MODEL 1
REMARK VINA RESULT:      -8.4      0.000      0.000
REMARK  Name = 
REMARK  4 active torsions:
REMARK  status: ('A' for Active; 'I' for Inactive)
REMARK    1  A    between atoms: C_1  and  C_2
REMARK    2  A    between atoms: C_11  and  C_12
REMARK    3  A    between atoms: C_15  and  C_16
REMARK    4  A    between atoms: C_27  and  C_28
REMARK                            x       y       z     vdW  Elec       q    Type
REMARK                         _______ _______ _______ _____ _____    ______ ____
ROOT
ATOM      1  C   UNL     1      -1.449  15.713  21.161  0.00  0.00    +0.000 C 
ATOM      2  C   UNL     1      -0.931  14.300  21.084  0.00  0.00    +0.000 A 
ATOM      3  C   UNL     1      -1.019  13.500  22.236  0.00  0.00    +0.000 A 
ATOM      4  C   UNL     1      -0.574  12.181  22.249  0.00  0.00    +0.000 A 
ATOM      5  C   UNL     1      -0.030  11.692  21.062  0.00  0.00    +0.000 A 
ATOM      6  C   UNL     1       0.096  12.445  19.892  0.00  0.00    +0.000 A 
ATOM      7  N   UNL     1       0.692  11.690  18.881  0.00  0.00    +0.000 NA
ATOM      8  C   UNL     1       0.907  10.530  19.441  0.00  0.00    +0.000 A 
ATOM      9  S   UNL     1       1.600   9.040  18.905  0.00  0.00    +0.000 S 
ATOM     10  C   UNL     1       1.277   8.318  20.463  0.00  0.00    +0.000 A 
ATOM     11  C   UNL     1       1.512   7.085  20.934  0.00  0.00    +0.000 C 
ATOM     12  C   UNL     1       0.633   9.280  21.396  0.00  0.00    +0.000 A 
ATOM     13  O   UNL     1       0.274   9.125  22.548  0.00  0.00    +0.000 OA
ATOM     14  N   UNL     1       0.483  10.469  20.724  0.00  0.00    +0.000 N 
ATOM     15  C   UNL     1      -0.368  13.785  19.880  0.00  0.00    +0.000 A 
ATOM     16  C   UNL     1      -0.282  14.652  18.655  0.00  0.00    +0.000 C 
ENDROOT
BRANCH  11  17
ATOM     17  C   UNL     1       2.154   6.020  20.246  0.00  0.00    +0.000 A 
ATOM     18  C   UNL     1       1.748   4.692  20.164  0.00  0.00    +0.000 A 
ATOM     19  C   UNL     1       2.721   3.981  19.421  0.00  0.00    +0.000 A 
ATOM     20  C   UNL     1       3.689   4.897  19.075  0.00  0.00    +0.000 A 
ATOM     21  O   UNL     1       3.335   6.122  19.560  0.00  0.00    +0.000 OA
BRANCH  20  22
ATOM     22  C   UNL     1       4.965   4.842  18.371  0.00  0.00    +0.000 A 
ATOM     23  C   UNL     1       6.155   5.209  19.023  0.00  0.00    +0.000 A 
ATOM     24  C   UNL     1       7.392   5.108  18.382  0.00  0.00    +0.000 A 
ATOM     25  C   UNL     1       7.463   4.646  17.071  0.00  0.00    +0.000 A 
ATOM     26  C   UNL     1       6.293   4.296  16.400  0.00  0.00    +0.000 A 
ATOM     27  C   UNL     1       5.061   4.396  17.047  0.00  0.00    +0.000 A 
ATOM     28  F   UNL     1       3.964   4.040  16.358  0.00  0.00    +0.000 F 
ENDBRANCH  20  22
ENDBRANCH  11  17
TORSDOF 2
ENDMDL
MODEL 2
REMARK VINA RESULT:      -8.4      1.019      1.371
REMARK  Name = 
REMARK  4 active torsions:
REMARK  status: ('A' for Active; 'I' for Inactive)
REMARK    1  A    between atoms: C_1  and  C_2
REMARK    2  A    between atoms: C_11  and  C_12
REMARK    3  A    between atoms: C_15  and  C_16
REMARK    4  A    between atoms: C_27  and  C_28
REMARK                            x       y       z     vdW  Elec       q    Type
REMARK                         _______ _______ _______ _____ _____    ______ ____
ROOT
ATOM      1  C   UNL     1      -1.328  15.202  20.818  0.00  0.00    +0.000 C 
ATOM      2  C   UNL     1      -0.788  13.795  20.788  0.00  0.00    +0.000 A 
ATOM      3  C   UNL     1      -0.869  13.030  21.963  0.00  0.00    +0.000 A 
ATOM      4  C   UNL     1      -0.404  11.720  22.020  0.00  0.00    +0.000 A 
ATOM      5  C   UNL     1       0.152  11.202  20.850  0.00  0.00    +0.000 A 
ATOM      6  C   UNL     1       0.271  11.920  19.658  0.00  0.00    +0.000 A 
ATOM      7  N   UNL     1       0.881  11.142  18.673  0.00  0.00    +0.000 NA
ATOM      8  C   UNL     1       1.113  10.004  19.270  0.00  0.00    +0.000 A 
ATOM      9  S   UNL     1       1.830   8.508  18.783  0.00  0.00    +0.000 S 
ATOM     10  C   UNL     1       1.512   7.831  20.363  0.00  0.00    +0.000 A 
ATOM     11  C   UNL     1       1.764   6.617  20.872  0.00  0.00    +0.000 C 
ATOM     12  C   UNL     1       0.850   8.812  21.262  0.00  0.00    +0.000 A 
ATOM     13  O   UNL     1       0.489   8.689  22.418  0.00  0.00    +0.000 OA
ATOM     14  N   UNL     1       0.685   9.977  20.553  0.00  0.00    +0.000 N 
ATOM     15  C   UNL     1      -0.213  13.251  19.602  0.00  0.00    +0.000 A 
ATOM     16  C   UNL     1      -0.137  14.081  18.350  0.00  0.00    +0.000 C 
ENDROOT
BRANCH  11  17
ATOM     17  C   UNL     1       2.424   5.541  20.220  0.00  0.00    +0.000 A 
ATOM     18  C   UNL     1       2.225   4.178  20.413  0.00  0.00    +0.000 A 
ATOM     19  C   UNL     1       3.140   3.480  19.588  0.00  0.00    +0.000 A 
ATOM     20  C   UNL     1       3.868   4.439  18.921  0.00  0.00    +0.000 A 
ATOM     21  O   UNL     1       3.423   5.674  19.293  0.00  0.00    +0.000 OA
BRANCH  20  22
ATOM     22  C   UNL     1       4.980   4.427  17.978  0.00  0.00    +0.000 A 
ATOM     23  C   UNL     1       4.776   4.046  16.640  0.00  0.00    +0.000 A 
ATOM     24  C   UNL     1       5.817   4.083  15.709  0.00  0.00    +0.000 A 
ATOM     25  C   UNL     1       7.088   4.494  16.101  0.00  0.00    +0.000 A 
ATOM     26  C   UNL     1       7.317   4.857  17.427  0.00  0.00    +0.000 A 
ATOM     27  C   UNL     1       6.271   4.820  18.351  0.00  0.00    +0.000 A 
ATOM     28  F   UNL     1       6.543   5.186  19.614  0.00  0.00    +0.000 F 
ENDBRANCH  20  22
ENDBRANCH  11  17
TORSDOF 2
ENDMDL
MODEL 3
REMARK VINA RESULT:      -8.2      3.519      9.082
REMARK  Name = 
REMARK  4 active torsions:
REMARK  status: ('A' for Active; 'I' for Inactive)
REMARK    1  A    between atoms: C_1  and  C_2
REMARK    2  A    between atoms: C_11  and  C_12
REMARK    3  A    between atoms: C_15  and  C_16
REMARK    4  A    between atoms: C_27  and  C_28
REMARK                            x       y       z     vdW  Elec       q    Type
REMARK                         _______ _______ _______ _____ _____    ______ ____
ROOT
ATOM      1  C   UNL     1       4.035   1.751  19.558  0.00  0.00    +0.000 C 
ATOM      2  C   UNL     1       3.488   3.155  19.611  0.00  0.00    +0.000 A 
ATOM      3  C   UNL     1       2.788   3.548  20.764  0.00  0.00    +0.000 A 
ATOM      4  C   UNL     1       2.259   4.829  20.901  0.00  0.00    +0.000 A 
ATOM      5  C   UNL     1       2.454   5.703  19.832  0.00  0.00    +0.000 A 
ATOM      6  C   UNL     1       3.128   5.363  18.657  0.00  0.00    +0.000 A 
ATOM      7  N   UNL     1       3.145   6.439  17.769  0.00  0.00    +0.000 NA
ATOM      8  C   UNL     1       2.501   7.381  18.405  0.00  0.00    +0.000 A 
ATOM      9  S   UNL     1       2.072   9.014  18.033  0.00  0.00    +0.000 S 
ATOM     10  C   UNL     1       1.333   9.189  19.607  0.00  0.00    +0.000 A 
ATOM     11  C   UNL     1       0.717  10.229  20.186  0.00  0.00    +0.000 C 
ATOM     12  C   UNL     1       1.427   7.937  20.404  0.00  0.00    +0.000 A 
ATOM     13  O   UNL     1       1.024   7.697  21.527  0.00  0.00    +0.000 OA
ATOM     14  N   UNL     1       2.087   7.007  19.636  0.00  0.00    +0.000 N 
ATOM     15  C   UNL     1       3.674   4.061  18.526  0.00  0.00    +0.000 A 
ATOM     16  C   UNL     1       4.428   3.627  17.299  0.00  0.00    +0.000 C 
ENDROOT
BRANCH  11  17
ATOM     17  C   UNL     1       0.470  11.502  19.605  0.00  0.00    +0.000 A 
ATOM     18  C   UNL     1      -0.725  11.980  19.078  0.00  0.00    +0.000 A 
ATOM     19  C   UNL     1      -0.489  13.277  18.562  0.00  0.00    +0.000 A 
ATOM     20  C   UNL     1       0.841  13.547  18.789  0.00  0.00    +0.000 A 
ATOM     21  O   UNL     1       1.408  12.484  19.429  0.00  0.00    +0.000 OA
BRANCH  20  22
ATOM     22  C   UNL     1       1.744  14.651  18.479  0.00  0.00    +0.000 A 
ATOM     23  C   UNL     1       3.034  14.398  17.983  0.00  0.00    +0.000 A 
ATOM     24  C   UNL     1       3.891  15.443  17.626  0.00  0.00    +0.000 A 
ATOM     25  C   UNL     1       3.476  16.763  17.768  0.00  0.00    +0.000 A 
ATOM     26  C   UNL     1       2.208  17.036  18.277  0.00  0.00    +0.000 A 
ATOM     27  C   UNL     1       1.356  15.988  18.628  0.00  0.00    +0.000 A 
ATOM     28  F   UNL     1       0.142  16.305  19.108  0.00  0.00    +0.000 F 
ENDBRANCH  20  22
ENDBRANCH  11  17
TORSDOF 2
ENDMDL
MODEL 4
REMARK VINA RESULT:      -8.2      4.037     10.173
REMARK  Name = 
REMARK  4 active torsions:
REMARK  status: ('A' for Active; 'I' for Inactive)
REMARK    1  A    between atoms: C_1  and  C_2
REMARK    2  A    between atoms: C_11  and  C_12
REMARK    3  A    between atoms: C_15  and  C_16
REMARK    4  A    between atoms: C_27  and  C_28
REMARK                            x       y       z     vdW  Elec       q    Type
REMARK                         _______ _______ _______ _____ _____    ______ ____
ROOT
ATOM      1  C   UNL     1       4.572   4.020  17.700  0.00  0.00    +0.000 C 
ATOM      2  C   UNL     1       3.802   5.226  18.174  0.00  0.00    +0.000 A 
ATOM      3  C   UNL     1       3.843   6.388  17.386  0.00  0.00    +0.000 A 
ATOM      4  C   UNL     1       3.153   7.543  17.744  0.00  0.00    +0.000 A 
ATOM      5  C   UNL     1       2.420   7.492  18.929  0.00  0.00    +0.000 A 
ATOM      6  C   UNL     1       2.355   6.370  19.759  0.00  0.00    +0.000 A 
ATOM      7  N   UNL     1       1.561   6.629  20.876  0.00  0.00    +0.000 NA
ATOM      8  C   UNL     1       1.172   7.864  20.706  0.00  0.00    +0.000 A 
ATOM      9  S   UNL     1       0.179   8.954  21.609  0.00  0.00    +0.000 S 
ATOM     10  C   UNL     1       0.387  10.178  20.379  0.00  0.00    +0.000 A 
ATOM     11  C   UNL     1      -0.092  11.426  20.282  0.00  0.00    +0.000 C 
ATOM     12  C   UNL     1       1.257   9.705  19.270  0.00  0.00    +0.000 A 
ATOM     13  O   UNL     1       1.616  10.284  18.261  0.00  0.00    +0.000 OA
ATOM     14  N   UNL     1       1.636   8.417  19.562  0.00  0.00    +0.000 N 
ATOM     15  C   UNL     1       3.051   5.193  19.386  0.00  0.00    +0.000 A 
ATOM     16  C   UNL     1       3.014   3.941  20.218  0.00  0.00    +0.000 C 
ENDROOT
BRANCH  11  17
ATOM     17  C   UNL     1      -0.900  12.104  21.234  0.00  0.00    +0.000 A 
ATOM     18  C   UNL     1      -0.480  12.879  22.309  0.00  0.00    +0.000 A 
ATOM     19  C   UNL     1      -1.629  13.310  23.015  0.00  0.00    +0.000 A 
ATOM     20  C   UNL     1      -2.712  12.783  22.349  0.00  0.00    +0.000 A 
ATOM     21  O   UNL     1      -2.269  12.073  21.272  0.00  0.00    +0.000 OA
BRANCH  20  22
ATOM     22  C   UNL     1      -4.156  12.787  22.551  0.00  0.00    +0.000 A 
ATOM     23  C   UNL     1      -5.029  12.699  21.453  0.00  0.00    +0.000 A 
ATOM     24  C   UNL     1      -6.414  12.643  21.632  0.00  0.00    +0.000 A 
ATOM     25  C   UNL     1      -6.954  12.683  22.915  0.00  0.00    +0.000 A 
ATOM     26  C   UNL     1      -6.107  12.791  24.015  0.00  0.00    +0.000 A 
ATOM     27  C   UNL     1      -4.724  12.843  23.830  0.00  0.00    +0.000 A 
ATOM     28  F   UNL     1      -3.951  12.940  24.924  0.00  0.00    +0.000 F 
ENDBRANCH  20  22
ENDBRANCH  11  17
TORSDOF 2
ENDMDL
MODEL 5
REMARK VINA RESULT:      -8.1      2.274      3.747
REMARK  Name = 
REMARK  4 active torsions:
REMARK  status: ('A' for Active; 'I' for Inactive)
REMARK    1  A    between atoms: C_1  and  C_2
REMARK    2  A    between atoms: C_11  and  C_12
REMARK    3  A    between atoms: C_15  and  C_16
REMARK    4  A    between atoms: C_27  and  C_28
REMARK                            x       y       z     vdW  Elec       q    Type
REMARK                         _______ _______ _______ _____ _____    ______ ____
ROOT
ATOM      1  C   UNL     1      -3.634  15.597  22.814  0.00  0.00    +0.000 C 
ATOM      2  C   UNL     1      -2.772  14.569  22.125  0.00  0.00    +0.000 A 
ATOM      3  C   UNL     1      -2.211  14.904  20.882  0.00  0.00    +0.000 A 
ATOM      4  C   UNL     1      -1.395  14.019  20.182  0.00  0.00    +0.000 A 
ATOM      5  C   UNL     1      -1.164  12.779  20.776  0.00  0.00    +0.000 A 
ATOM      6  C   UNL     1      -1.706  12.387  22.002  0.00  0.00    +0.000 A 
ATOM      7  N   UNL     1      -1.310  11.088  22.324  0.00  0.00    +0.000 NA
ATOM      8  C   UNL     1      -0.558  10.730  21.318  0.00  0.00    +0.000 A 
ATOM      9  S   UNL     1       0.323   9.298  20.916  0.00  0.00    +0.000 S 
ATOM     10  C   UNL     1       0.904  10.054  19.452  0.00  0.00    +0.000 A 
ATOM     11  C   UNL     1       1.715   9.603  18.484  0.00  0.00    +0.000 C 
ATOM     12  C   UNL     1       0.377  11.436  19.296  0.00  0.00    +0.000 A 
ATOM     13  O   UNL     1       0.568  12.246  18.408  0.00  0.00    +0.000 OA
ATOM     14  N   UNL     1      -0.423  11.698  20.383  0.00  0.00    +0.000 N 
ATOM     15  C   UNL     1      -2.529  13.294  22.716  0.00  0.00    +0.000 A 
ATOM     16  C   UNL     1      -3.133  12.951  24.049  0.00  0.00    +0.000 C 
ENDROOT
BRANCH  11  17
ATOM     17  C   UNL     1       2.298   8.310  18.397  0.00  0.00    +0.000 A 
ATOM     18  C   UNL     1       3.385   7.918  17.624  0.00  0.00    +0.000 A 
ATOM     19  C   UNL     1       3.578   6.528  17.813  0.00  0.00    +0.000 A 
ATOM     20  C   UNL     1       2.602   6.118  18.692  0.00  0.00    +0.000 A 
ATOM     21  O   UNL     1       1.846   7.196  19.051  0.00  0.00    +0.000 OA
BRANCH  20  22
ATOM     22  C   UNL     1       2.194   4.841  19.268  0.00  0.00    +0.000 A 
ATOM     23  C   UNL     1       2.130   4.678  20.662  0.00  0.00    +0.000 A 
ATOM     24  C   UNL     1       1.687   3.481  21.231  0.00  0.00    +0.000 A 
ATOM     25  C   UNL     1       1.308   2.419  20.415  0.00  0.00    +0.000 A 
ATOM     26  C   UNL     1       1.383   2.554  19.030  0.00  0.00    +0.000 A 
ATOM     27  C   UNL     1       1.823   3.753  18.469  0.00  0.00    +0.000 A 
ATOM     28  F   UNL     1       1.871   3.834  17.129  0.00  0.00    +0.000 F 
ENDBRANCH  20  22
ENDBRANCH  11  17
TORSDOF 2
ENDMDL
MODEL 6
REMARK VINA RESULT:      -8.1      3.384      9.846
REMARK  Name = 
REMARK  4 active torsions:
REMARK  status: ('A' for Active; 'I' for Inactive)
REMARK    1  A    between atoms: C_1  and  C_2
REMARK    2  A    between atoms: C_11  and  C_12
REMARK    3  A    between atoms: C_15  and  C_16
REMARK    4  A    between atoms: C_27  and  C_28
REMARK                            x       y       z     vdW  Elec       q    Type
REMARK                         _______ _______ _______ _____ _____    ______ ____
ROOT
ATOM      1  C   UNL     1       3.925   1.636  18.572  0.00  0.00    +0.000 C 
ATOM      2  C   UNL     1       3.495   3.077  18.675  0.00  0.00    +0.000 A 
ATOM      3  C   UNL     1       3.738   3.920  17.578  0.00  0.00    +0.000 A 
ATOM      4  C   UNL     1       3.364   5.261  17.585  0.00  0.00    +0.000 A 
ATOM      5  C   UNL     1       2.738   5.730  18.739  0.00  0.00    +0.000 A 
ATOM      6  C   UNL     1       2.483   4.942  19.864  0.00  0.00    +0.000 A 
ATOM      7  N   UNL     1       1.863   5.694  20.863  0.00  0.00    +0.000 NA
ATOM      8  C   UNL     1       1.757   6.886  20.339  0.00  0.00    +0.000 A 
ATOM      9  S   UNL     1       1.118   8.395  20.888  0.00  0.00    +0.000 S 
ATOM     10  C   UNL     1       1.502   9.129  19.349  0.00  0.00    +0.000 A 
ATOM     11  C   UNL     1       1.318  10.376  18.892  0.00  0.00    +0.000 C 
ATOM     12  C   UNL     1       2.148   8.163  18.421  0.00  0.00    +0.000 A 
ATOM     13  O   UNL     1       2.547   8.324  17.283  0.00  0.00    +0.000 OA
ATOM     14  N   UNL     1       2.241   6.959  19.078  0.00  0.00    +0.000 N 
ATOM     15  C   UNL     1       2.857   3.575  19.849  0.00  0.00    +0.000 A 
ATOM     16  C   UNL     1       2.600   2.660  21.015  0.00  0.00    +0.000 C 
ENDROOT
BRANCH  11  17
ATOM     17  C   UNL     1       0.767  11.472  19.609  0.00  0.00    +0.000 A 
ATOM     18  C   UNL     1       1.403  12.651  19.980  0.00  0.00    +0.000 A 
ATOM     19  C   UNL     1       0.484  13.430  20.724  0.00  0.00    +0.000 A 
ATOM     20  C   UNL     1      -0.681  12.700  20.784  0.00  0.00    +0.000 A 
ATOM     21  O   UNL     1      -0.510  11.532  20.099  0.00  0.00    +0.000 OA
BRANCH  20  22
ATOM     22  C   UNL     1      -1.983  12.875  21.418  0.00  0.00    +0.000 A 
ATOM     23  C   UNL     1      -3.159  12.842  20.649  0.00  0.00    +0.000 A 
ATOM     24  C   UNL     1      -4.418  12.950  21.247  0.00  0.00    +0.000 A 
ATOM     25  C   UNL     1      -4.524  13.103  22.626  0.00  0.00    +0.000 A 
ATOM     26  C   UNL     1      -3.370  13.157  23.404  0.00  0.00    +0.000 A 
ATOM     27  C   UNL     1      -2.116  13.046  22.801  0.00  0.00    +0.000 A 
ATOM     28  F   UNL     1      -1.034  13.098  23.596  0.00  0.00    +0.000 F 
ENDBRANCH  20  22
ENDBRANCH  11  17
TORSDOF 2
ENDMDL
MODEL 7
REMARK VINA RESULT:      -8.1      1.204      1.230
REMARK  Name = 
REMARK  4 active torsions:
REMARK  status: ('A' for Active; 'I' for Inactive)
REMARK    1  A    between atoms: C_1  and  C_2
REMARK    2  A    between atoms: C_11  and  C_12
REMARK    3  A    between atoms: C_15  and  C_16
REMARK    4  A    between atoms: C_27  and  C_28
REMARK                            x       y       z     vdW  Elec       q    Type
REMARK                         _______ _______ _______ _____ _____    ______ ____
ROOT
ATOM      1  C   UNL     1      -1.696  15.965  21.878  0.00  0.00    +0.000 C 
ATOM      2  C   UNL     1      -1.190  14.554  21.719  0.00  0.00    +0.000 A 
ATOM      3  C   UNL     1      -1.250  13.701  22.834  0.00  0.00    +0.000 A 
ATOM      4  C   UNL     1      -0.814  12.380  22.772  0.00  0.00    +0.000 A 
ATOM      5  C   UNL     1      -0.310  11.945  21.547  0.00  0.00    +0.000 A 
ATOM      6  C   UNL     1      -0.213  12.751  20.411  0.00  0.00    +0.000 A 
ATOM      7  N   UNL     1       0.347  12.041  19.348  0.00  0.00    +0.000 NA
ATOM      8  C   UNL     1       0.570  10.855  19.846  0.00  0.00    +0.000 A 
ATOM      9  S   UNL     1       1.236   9.388  19.220  0.00  0.00    +0.000 S 
ATOM     10  C   UNL     1       0.955   8.595  20.752  0.00  0.00    +0.000 A 
ATOM     11  C   UNL     1       1.195   7.340  21.156  0.00  0.00    +0.000 C 
ATOM     12  C   UNL     1       0.345   9.516  21.747  0.00  0.00    +0.000 A 
ATOM     13  O   UNL     1       0.020   9.310  22.902  0.00  0.00    +0.000 OA
ATOM     14  N   UNL     1       0.184  10.737  21.137  0.00  0.00    +0.000 N 
ATOM     15  C   UNL     1      -0.667  14.093  20.475  0.00  0.00    +0.000 A 
ATOM     16  C   UNL     1      -0.613  15.017  19.290  0.00  0.00    +0.000 C 
ENDROOT
BRANCH  11  17
ATOM     17  C   UNL     1       1.808   6.305  20.400  0.00  0.00    +0.000 A 
ATOM     18  C   UNL     1       1.819   4.942  20.676  0.00  0.00    +0.000 A 
ATOM     19  C   UNL     1       2.594   4.299  19.680  0.00  0.00    +0.000 A 
ATOM     20  C   UNL     1       3.031   5.291  18.832  0.00  0.00    +0.000 A 
ATOM     21  O   UNL     1       2.544   6.490  19.260  0.00  0.00    +0.000 OA
BRANCH  20  22
ATOM     22  C   UNL     1       3.890   5.343  17.653  0.00  0.00    +0.000 A 
ATOM     23  C   UNL     1       4.377   6.575  17.182  0.00  0.00    +0.000 A 
ATOM     24  C   UNL     1       5.246   6.639  16.089  0.00  0.00    +0.000 A 
ATOM     25  C   UNL     1       5.637   5.472  15.440  0.00  0.00    +0.000 A 
ATOM     26  C   UNL     1       5.149   4.243  15.879  0.00  0.00    +0.000 A 
ATOM     27  C   UNL     1       4.284   4.185  16.972  0.00  0.00    +0.000 A 
ATOM     28  F   UNL     1       3.847   2.975  17.359  0.00  0.00    +0.000 F 
ENDBRANCH  20  22
ENDBRANCH  11  17
TORSDOF 2
ENDMDL
MODEL 8
REMARK VINA RESULT:      -8.1      3.055      8.916
REMARK  Name = 
REMARK  4 active torsions:
REMARK  status: ('A' for Active; 'I' for Inactive)
REMARK    1  A    between atoms: C_1  and  C_2
REMARK    2  A    between atoms: C_11  and  C_12
REMARK    3  A    between atoms: C_15  and  C_16
REMARK    4  A    between atoms: C_27  and  C_28
REMARK                            x       y       z     vdW  Elec       q    Type
REMARK                         _______ _______ _______ _____ _____    ______ ____
ROOT
ATOM      1  C   UNL     1       3.982   1.779  19.341  0.00  0.00    +0.000 C 
ATOM      2  C   UNL     1       3.445   3.184  19.434  0.00  0.00    +0.000 A 
ATOM      3  C   UNL     1       2.755   3.552  20.601  0.00  0.00    +0.000 A 
ATOM      4  C   UNL     1       2.235   4.832  20.774  0.00  0.00    +0.000 A 
ATOM      5  C   UNL     1       2.430   5.733  19.728  0.00  0.00    +0.000 A 
ATOM      6  C   UNL     1       3.095   5.419  18.540  0.00  0.00    +0.000 A 
ATOM      7  N   UNL     1       3.115   6.518  17.681  0.00  0.00    +0.000 NA
ATOM      8  C   UNL     1       2.481   7.448  18.344  0.00  0.00    +0.000 A 
ATOM      9  S   UNL     1       2.061   9.092  18.018  0.00  0.00    +0.000 S 
ATOM     10  C   UNL     1       1.332   9.230  19.600  0.00  0.00    +0.000 A 
ATOM     11  C   UNL     1       0.727  10.260  20.209  0.00  0.00    +0.000 C 
ATOM     12  C   UNL     1       1.422   7.957  20.363  0.00  0.00    +0.000 A 
ATOM     13  O   UNL     1       1.023   7.691  21.482  0.00  0.00    +0.000 OA
ATOM     14  N   UNL     1       2.071   7.043  19.568  0.00  0.00    +0.000 N 
ATOM     15  C   UNL     1       3.631   4.118  18.372  0.00  0.00    +0.000 A 
ATOM     16  C   UNL     1       4.375   3.710  17.130  0.00  0.00    +0.000 C 
ENDROOT
BRANCH  11  17
ATOM     17  C   UNL     1       0.485  11.549  19.663  0.00  0.00    +0.000 A 
ATOM     18  C   UNL     1      -0.716  12.059  19.185  0.00  0.00    +0.000 A 
ATOM     19  C   UNL     1      -0.473  13.363  18.689  0.00  0.00    +0.000 A 
ATOM     20  C   UNL     1       0.869  13.604  18.879  0.00  0.00    +0.000 A 
ATOM     21  O   UNL     1       1.436  12.517  19.478  0.00  0.00    +0.000 OA
BRANCH  20  22
ATOM     22  C   UNL     1       1.781  14.698  18.563  0.00  0.00    +0.000 A 
ATOM     23  C   UNL     1       1.379  16.033  18.738  0.00  0.00    +0.000 A 
ATOM     24  C   UNL     1       2.259  17.091  18.494  0.00  0.00    +0.000 A 
ATOM     25  C   UNL     1       3.557  16.834  18.062  0.00  0.00    +0.000 A 
ATOM     26  C   UNL     1       3.968  15.518  17.863  0.00  0.00    +0.000 A 
ATOM     27  C   UNL     1       3.086  14.466  18.111  0.00  0.00    +0.000 A 
ATOM     28  F   UNL     1       3.534  13.215  17.910  0.00  0.00    +0.000 F 
ENDBRANCH  20  22
ENDBRANCH  11  17
TORSDOF 2
ENDMDL
MODEL 9
REMARK VINA RESULT:      -8.0      3.239      9.751
REMARK  Name = 
REMARK  4 active torsions:
REMARK  status: ('A' for Active; 'I' for Inactive)
REMARK    1  A    between atoms: C_1  and  C_2
REMARK    2  A    between atoms: C_11  and  C_12
REMARK    3  A    between atoms: C_15  and  C_16
REMARK    4  A    between atoms: C_27  and  C_28
REMARK                            x       y       z     vdW  Elec       q    Type
REMARK                         _______ _______ _______ _____ _____    ______ ____
ROOT
ATOM      1  C   UNL     1       4.082   1.568  18.909  0.00  0.00    +0.000 C 
ATOM      2  C   UNL     1       3.617   3.002  18.962  0.00  0.00    +0.000 A 
ATOM      3  C   UNL     1       3.909   3.831  17.866  0.00  0.00    +0.000 A 
ATOM      4  C   UNL     1       3.508   5.164  17.827  0.00  0.00    +0.000 A 
ATOM      5  C   UNL     1       2.804   5.638  18.933  0.00  0.00    +0.000 A 
ATOM      6  C   UNL     1       2.498   4.864  20.055  0.00  0.00    +0.000 A 
ATOM      7  N   UNL     1       1.804   5.619  21.001  0.00  0.00    +0.000 NA
ATOM      8  C   UNL     1       1.706   6.799  20.451  0.00  0.00    +0.000 A 
ATOM      9  S   UNL     1       1.004   8.303  20.934  0.00  0.00    +0.000 S 
ATOM     10  C   UNL     1       1.465   9.019  19.408  0.00  0.00    +0.000 A 
ATOM     11  C   UNL     1       1.283  10.254  18.919  0.00  0.00    +0.000 C 
ATOM     12  C   UNL     1       2.185   8.052  18.538  0.00  0.00    +0.000 A 
ATOM     13  O   UNL     1       2.648   8.203  17.423  0.00  0.00    +0.000 OA
ATOM     14  N   UNL     1       2.263   6.862  19.220  0.00  0.00    +0.000 N 
ATOM     15  C   UNL     1       2.900   3.504  20.086  0.00  0.00    +0.000 A 
ATOM     16  C   UNL     1       2.591   2.603  21.250  0.00  0.00    +0.000 C 
ENDROOT
BRANCH  11  17
ATOM     17  C   UNL     1       0.669  11.350  19.582  0.00  0.00    +0.000 A 
ATOM     18  C   UNL     1       1.151  12.648  19.707  0.00  0.00    +0.000 A 
ATOM     19  C   UNL     1       0.232  13.384  20.493  0.00  0.00    +0.000 A 
ATOM     20  C   UNL     1      -0.780  12.511  20.822  0.00  0.00    +0.000 A 
ATOM     21  O   UNL     1      -0.520  11.296  20.260  0.00  0.00    +0.000 OA
BRANCH  20  22
ATOM     22  C   UNL     1      -1.992  12.585  21.631  0.00  0.00    +0.000 A 
ATOM     23  C   UNL     1      -1.912  12.586  23.035  0.00  0.00    +0.000 A 
ATOM     24  C   UNL     1      -3.058  12.714  23.825  0.00  0.00    +0.000 A 
ATOM     25  C   UNL     1      -4.308  12.834  23.226  0.00  0.00    +0.000 A 
ATOM     26  C   UNL     1      -4.411  12.816  21.836  0.00  0.00    +0.000 A 
ATOM     27  C   UNL     1      -3.263  12.691  21.053  0.00  0.00    +0.000 A 
ATOM     28  F   UNL     1      -3.415  12.685  19.718  0.00  0.00    +0.000 F 
ENDBRANCH  20  22
ENDBRANCH  11  17
TORSDOF 2
ENDMDL
