MODEL 1
REMARK VINA RESULT:      -7.4      0.000      0.000
REMARK  Name = 
REMARK  5 active torsions:
REMARK  status: ('A' for Active; 'I' for Inactive)
REMARK    1  A    between atoms: C_1  and  C_2
REMARK    2  A    between atoms: C_2  and  O_4
REMARK    3  A    between atoms: O_4  and  C_5
REMARK    4  A    between atoms: C_11  and  C_12
REMARK    5  A    between atoms: N_14  and  C_15
REMARK                            x       y       z     vdW  Elec       q    Type
REMARK                         _______ _______ _______ _____ _____    ______ ____
ROOT
ATOM      1  C   UNL     1       2.828   5.091  18.299  0.00  0.00    +0.000 A 
ATOM      2  C   UNL     1       3.615   4.117  17.633  0.00  0.00    +0.000 A 
ATOM      3 CL   UNL     1       3.238   2.424  17.612  0.00  0.00    +0.000 Cl
ATOM      4  C   UNL     1       4.703   4.491  16.844  0.00  0.00    +0.000 A 
ATOM      5  C   UNL     1       5.010   5.832  16.677  0.00  0.00    +0.000 A 
ATOM      6  C   UNL     1       4.226   6.797  17.306  0.00  0.00    +0.000 A 
ATOM      7  C   UNL     1       3.119   6.456  18.118  0.00  0.00    +0.000 A 
ENDROOT
BRANCH   7   8
ATOM      8  C   UNL     1       2.323   7.631  18.614  0.00  0.00    +0.000 C 
ATOM      9  O   UNL     1       2.089   8.523  17.801  0.00  0.00    +0.000 OA
ATOM     10  N   UNL     1       1.932   7.671  19.945  0.00  0.00    +0.000 N 
ATOM     11  H   UNL     1       2.302   6.960  20.558  0.00  0.00    +0.000 HD
BRANCH  10  12
ATOM     12  C   UNL     1       1.165   8.702  20.543  0.00  0.00    +0.000 A 
ATOM     13  C   UNL     1       0.571   9.750  19.828  0.00  0.00    +0.000 A 
ATOM     14  C   UNL     1      -0.142  10.762  20.481  0.00  0.00    +0.000 A 
ATOM     15  C   UNL     1      -0.270  10.733  21.863  0.00  0.00    +0.000 A 
ATOM     16 BR   UNL     1      -1.202  12.116  22.750  0.00  0.00    +0.000 Br
ATOM     17  C   UNL     1       0.295   9.689  22.594  0.00  0.00    +0.000 A 
ATOM     18  C   UNL     1       1.001   8.673  21.935  0.00  0.00    +0.000 A 
ENDBRANCH  10  12
ENDBRANCH   7   8
BRANCH   1  19
ATOM     19  O   UNL     1       1.639   4.713  18.952  0.00  0.00    +0.000 OA
BRANCH  19  21
ATOM     20  C   UNL     1       1.083   2.974  20.441  0.00  0.00    +0.000 C 
ATOM     21  C   UNL     1       1.774   4.297  20.277  0.00  0.00    +0.000 C 
ATOM     22  O   UNL     1       2.352   4.918  21.159  0.00  0.00    +0.000 OA
ENDBRANCH  19  21
ENDBRANCH   1  19
TORSDOF 4
ENDMDL
MODEL 2
REMARK VINA RESULT:      -7.3      0.190      1.060
REMARK  Name = 
REMARK  5 active torsions:
REMARK  status: ('A' for Active; 'I' for Inactive)
REMARK    1  A    between atoms: C_1  and  C_2
REMARK    2  A    between atoms: C_2  and  O_4
REMARK    3  A    between atoms: O_4  and  C_5
REMARK    4  A    between atoms: C_11  and  C_12
REMARK    5  A    between atoms: N_14  and  C_15
REMARK                            x       y       z     vdW  Elec       q    Type
REMARK                         _______ _______ _______ _____ _____    ______ ____
ROOT
ATOM      1  C   UNL     1       2.754   5.055  18.351  0.00  0.00    +0.000 A 
ATOM      2  C   UNL     1       3.489   4.086  17.622  0.00  0.00    +0.000 A 
ATOM      3 CL   UNL     1       3.057   2.409  17.543  0.00  0.00    +0.000 Cl
ATOM      4  C   UNL     1       4.565   4.460  16.816  0.00  0.00    +0.000 A 
ATOM      5  C   UNL     1       4.910   5.796  16.694  0.00  0.00    +0.000 A 
ATOM      6  C   UNL     1       4.176   6.758  17.386  0.00  0.00    +0.000 A 
ATOM      7  C   UNL     1       3.083   6.417  18.217  0.00  0.00    +0.000 A 
ENDROOT
BRANCH   7   8
ATOM      8  C   UNL     1       2.341   7.595  18.786  0.00  0.00    +0.000 C 
ATOM      9  O   UNL     1       2.158   8.549  18.033  0.00  0.00    +0.000 OA
ATOM     10  N   UNL     1       1.941   7.566  20.114  0.00  0.00    +0.000 N 
ATOM     11  H   UNL     1       2.271   6.799  20.681  0.00  0.00    +0.000 HD
BRANCH  10  12
ATOM     12  C   UNL     1       1.220   8.592  20.776  0.00  0.00    +0.000 A 
ATOM     13  C   UNL     1       1.174   8.742  22.168  0.00  0.00    +0.000 A 
ATOM     14  C   UNL     1       0.413   9.754  22.764  0.00  0.00    +0.000 A 
ATOM     15  C   UNL     1      -0.313  10.630  21.968  0.00  0.00    +0.000 A 
ATOM     16 BR   UNL     1      -1.370  11.974  22.772  0.00  0.00    +0.000 Br
ATOM     17  C   UNL     1      -0.265  10.513  20.581  0.00  0.00    +0.000 A 
ATOM     18  C   UNL     1       0.507   9.504  19.987  0.00  0.00    +0.000 A 
ENDBRANCH  10  12
ENDBRANCH   7   8
BRANCH   1  19
ATOM     19  O   UNL     1       1.573   4.688  19.025  0.00  0.00    +0.000 OA
BRANCH  19  21
ATOM     20  C   UNL     1       1.017   2.904  20.460  0.00  0.00    +0.000 C 
ATOM     21  C   UNL     1       1.734   4.217  20.329  0.00  0.00    +0.000 C 
ATOM     22  O   UNL     1       2.349   4.791  21.218  0.00  0.00    +0.000 OA
ENDBRANCH  19  21
ENDBRANCH   1  19
TORSDOF 4
ENDMDL
MODEL 3
REMARK VINA RESULT:      -7.1      0.943      1.118
REMARK  Name = 
REMARK  5 active torsions:
REMARK  status: ('A' for Active; 'I' for Inactive)
REMARK    1  A    between atoms: C_1  and  C_2
REMARK    2  A    between atoms: C_2  and  O_4
REMARK    3  A    between atoms: O_4  and  C_5
REMARK    4  A    between atoms: C_11  and  C_12
REMARK    5  A    between atoms: N_14  and  C_15
REMARK                            x       y       z     vdW  Elec       q    Type
REMARK                         _______ _______ _______ _____ _____    ______ ____
ROOT
ATOM      1  C   UNL     1       3.458   4.956  19.535  0.00  0.00    +0.000 A 
ATOM      2  C   UNL     1       4.198   3.889  18.965  0.00  0.00    +0.000 A 
ATOM      3 CL   UNL     1       4.307   2.308  19.670  0.00  0.00    +0.000 Cl
ATOM      4  C   UNL     1       4.803   4.023  17.715  0.00  0.00    +0.000 A 
ATOM      5  C   UNL     1       4.661   5.200  16.998  0.00  0.00    +0.000 A 
ATOM      6  C   UNL     1       3.913   6.244  17.539  0.00  0.00    +0.000 A 
ATOM      7  C   UNL     1       3.290   6.147  18.805  0.00  0.00    +0.000 A 
ENDROOT
BRANCH   7   8
ATOM      8  C   UNL     1       2.430   7.325  19.169  0.00  0.00    +0.000 C 
ATOM      9  O   UNL     1       2.203   8.141  18.278  0.00  0.00    +0.000 OA
ATOM     10  N   UNL     1       1.973   7.454  20.473  0.00  0.00    +0.000 N 
ATOM     11  H   UNL     1       2.339   6.808  21.157  0.00  0.00    +0.000 HD
BRANCH  10  12
ATOM     12  C   UNL     1       1.142   8.498  20.952  0.00  0.00    +0.000 A 
ATOM     13  C   UNL     1       0.419   9.364  20.122  0.00  0.00    +0.000 A 
ATOM     14  C   UNL     1      -0.355  10.402  20.654  0.00  0.00    +0.000 A 
ATOM     15  C   UNL     1      -0.414  10.582  22.029  0.00  0.00    +0.000 A 
ATOM     16 BR   UNL     1      -1.430  12.004  22.747  0.00  0.00    +0.000 Br
ATOM     17  C   UNL     1       0.280   9.720  22.875  0.00  0.00    +0.000 A 
ATOM     18  C   UNL     1       1.047   8.676  22.339  0.00  0.00    +0.000 A 
ENDBRANCH  10  12
ENDBRANCH   7   8
BRANCH   1  19
ATOM     19  O   UNL     1       2.716   4.751  20.715  0.00  0.00    +0.000 OA
BRANCH  19  21
ATOM     20  C   UNL     1       1.633   2.906  21.698  0.00  0.00    +0.000 C 
ATOM     21  C   UNL     1       1.597   3.927  20.598  0.00  0.00    +0.000 C 
ATOM     22  O   UNL     1       0.738   4.018  19.731  0.00  0.00    +0.000 OA
ENDBRANCH  19  21
ENDBRANCH   1  19
TORSDOF 4
ENDMDL
MODEL 4
REMARK VINA RESULT:      -7.1      0.839      1.153
REMARK  Name = 
REMARK  5 active torsions:
REMARK  status: ('A' for Active; 'I' for Inactive)
REMARK    1  A    between atoms: C_1  and  C_2
REMARK    2  A    between atoms: C_2  and  O_4
REMARK    3  A    between atoms: O_4  and  C_5
REMARK    4  A    between atoms: C_11  and  C_12
REMARK    5  A    between atoms: N_14  and  C_15
REMARK                            x       y       z     vdW  Elec       q    Type
REMARK                         _______ _______ _______ _____ _____    ______ ____
ROOT
ATOM      1  C   UNL     1       3.463   5.120  18.117  0.00  0.00    +0.000 A 
ATOM      2  C   UNL     1       4.254   4.177  17.412  0.00  0.00    +0.000 A 
ATOM      3 CL   UNL     1       4.114   2.460  17.613  0.00  0.00    +0.000 Cl
ATOM      4  C   UNL     1       5.133   4.586  16.408  0.00  0.00    +0.000 A 
ATOM      5  C   UNL     1       5.221   5.926  16.067  0.00  0.00    +0.000 A 
ATOM      6  C   UNL     1       4.429   6.856  16.736  0.00  0.00    +0.000 A 
ATOM      7  C   UNL     1       3.530   6.480  17.762  0.00  0.00    +0.000 A 
ENDROOT
BRANCH   7   8
ATOM      8  C   UNL     1       2.675   7.602  18.284  0.00  0.00    +0.000 C 
ATOM      9  O   UNL     1       2.443   8.527  17.509  0.00  0.00    +0.000 OA
ATOM     10  N   UNL     1       2.230   7.559  19.598  0.00  0.00    +0.000 N 
ATOM     11  H   UNL     1       2.600   6.829  20.189  0.00  0.00    +0.000 HD
BRANCH  10  12
ATOM     12  C   UNL     1       1.406   8.533  20.216  0.00  0.00    +0.000 A 
ATOM     13  C   UNL     1       0.785   9.583  19.527  0.00  0.00    +0.000 A 
ATOM     14  C   UNL     1       0.013  10.536  20.200  0.00  0.00    +0.000 A 
ATOM     15  C   UNL     1      -0.148  10.446  21.576  0.00  0.00    +0.000 A 
ATOM     16 BR   UNL     1      -1.161  11.752  22.491  0.00  0.00    +0.000 Br
ATOM     17  C   UNL     1       0.442   9.398  22.280  0.00  0.00    +0.000 A 
ATOM     18  C   UNL     1       1.208   8.440  21.600  0.00  0.00    +0.000 A 
ENDBRANCH  10  12
ENDBRANCH   7   8
BRANCH   1  19
ATOM     19  O   UNL     1       2.463   4.681  19.006  0.00  0.00    +0.000 OA
BRANCH  19  21
ATOM     20  C   UNL     1       0.872   2.998  19.434  0.00  0.00    +0.000 C 
ATOM     21  C   UNL     1       1.398   3.985  18.432  0.00  0.00    +0.000 C 
ATOM     22  O   UNL     1       0.976   4.148  17.296  0.00  0.00    +0.000 OA
ENDBRANCH  19  21
ENDBRANCH   1  19
TORSDOF 4
ENDMDL
MODEL 5
REMARK VINA RESULT:      -6.9      0.955      1.527
REMARK  Name = 
REMARK  5 active torsions:
REMARK  status: ('A' for Active; 'I' for Inactive)
REMARK    1  A    between atoms: C_1  and  C_2
REMARK    2  A    between atoms: C_2  and  O_4
REMARK    3  A    between atoms: O_4  and  C_5
REMARK    4  A    between atoms: C_11  and  C_12
REMARK    5  A    between atoms: N_14  and  C_15
REMARK                            x       y       z     vdW  Elec       q    Type
REMARK                         _______ _______ _______ _____ _____    ______ ____
ROOT
ATOM      1  C   UNL     1       3.477   5.044  19.556  0.00  0.00    +0.000 A 
ATOM      2  C   UNL     1       4.205   3.987  18.954  0.00  0.00    +0.000 A 
ATOM      3 CL   UNL     1       4.330   2.395  19.631  0.00  0.00    +0.000 Cl
ATOM      4  C   UNL     1       4.783   4.141  17.693  0.00  0.00    +0.000 A 
ATOM      5  C   UNL     1       4.625   5.329  16.998  0.00  0.00    +0.000 A 
ATOM      6  C   UNL     1       3.888   6.364  17.571  0.00  0.00    +0.000 A 
ATOM      7  C   UNL     1       3.293   6.247  18.849  0.00  0.00    +0.000 A 
ENDROOT
BRANCH   7   8
ATOM      8  C   UNL     1       2.440   7.419  19.249  0.00  0.00    +0.000 C 
ATOM      9  O   UNL     1       2.206   8.256  18.380  0.00  0.00    +0.000 OA
ATOM     10  N   UNL     1       1.998   7.518  20.561  0.00  0.00    +0.000 N 
ATOM     11  H   UNL     1       2.369   6.855  21.226  0.00  0.00    +0.000 HD
BRANCH  10  12
ATOM     12  C   UNL     1       1.175   8.553  21.073  0.00  0.00    +0.000 A 
ATOM     13  C   UNL     1       1.032   8.835  22.438  0.00  0.00    +0.000 A 
ATOM     14  C   UNL     1       0.174   9.846  22.884  0.00  0.00    +0.000 A 
ATOM     15  C   UNL     1      -0.552  10.589  21.963  0.00  0.00    +0.000 A 
ATOM     16 BR   UNL     1      -1.738  11.931  22.565  0.00  0.00    +0.000 Br
ATOM     17  C   UNL     1      -0.410  10.341  20.599  0.00  0.00    +0.000 A 
ATOM     18  C   UNL     1       0.458   9.333  20.156  0.00  0.00    +0.000 A 
ENDBRANCH  10  12
ENDBRANCH   7   8
BRANCH   1  19
ATOM     19  O   UNL     1       2.760   4.821  20.748  0.00  0.00    +0.000 OA
BRANCH  19  21
ATOM     20  C   UNL     1       1.652   2.997  21.744  0.00  0.00    +0.000 C 
ATOM     21  C   UNL     1       1.628   4.013  20.639  0.00  0.00    +0.000 C 
ATOM     22  O   UNL     1       0.768   4.112  19.774  0.00  0.00    +0.000 OA
ENDBRANCH  19  21
ENDBRANCH   1  19
TORSDOF 4
ENDMDL
MODEL 6
REMARK VINA RESULT:      -6.9      1.973      2.124
REMARK  Name = 
REMARK  5 active torsions:
REMARK  status: ('A' for Active; 'I' for Inactive)
REMARK    1  A    between atoms: C_1  and  C_2
REMARK    2  A    between atoms: C_2  and  O_4
REMARK    3  A    between atoms: O_4  and  C_5
REMARK    4  A    between atoms: C_11  and  C_12
REMARK    5  A    between atoms: N_14  and  C_15
REMARK                            x       y       z     vdW  Elec       q    Type
REMARK                         _______ _______ _______ _____ _____    ______ ____
ROOT
ATOM      1  C   UNL     1       2.758   5.168  18.196  0.00  0.00    +0.000 A 
ATOM      2  C   UNL     1       3.432   4.140  17.490  0.00  0.00    +0.000 A 
ATOM      3 CL   UNL     1       2.891   2.493  17.438  0.00  0.00    +0.000 Cl
ATOM      4  C   UNL     1       4.535   4.426  16.685  0.00  0.00    +0.000 A 
ATOM      5  C   UNL     1       4.968   5.735  16.542  0.00  0.00    +0.000 A 
ATOM      6  C   UNL     1       4.295   6.755  17.211  0.00  0.00    +0.000 A 
ATOM      7  C   UNL     1       3.177   6.503  18.040  0.00  0.00    +0.000 A 
ENDROOT
BRANCH   7   8
ATOM      8  C   UNL     1       2.510   7.737  18.581  0.00  0.00    +0.000 C 
ATOM      9  O   UNL     1       2.324   7.779  19.795  0.00  0.00    +0.000 OA
ATOM     10  N   UNL     1       2.111   8.733  17.700  0.00  0.00    +0.000 N 
ATOM     11  H   UNL     1       2.179   8.532  16.713  0.00  0.00    +0.000 HD
BRANCH  10  12
ATOM     12  C   UNL     1       1.492   9.953  18.068  0.00  0.00    +0.000 A 
ATOM     13  C   UNL     1       2.187  11.152  18.272  0.00  0.00    +0.000 A 
ATOM     14  C   UNL     1       1.523  12.317  18.673  0.00  0.00    +0.000 A 
ATOM     15  C   UNL     1       0.150  12.293  18.874  0.00  0.00    +0.000 A 
ATOM     16 BR   UNL     1      -0.743  13.855  19.449  0.00  0.00    +0.000 Br
ATOM     17  C   UNL     1      -0.566  11.118  18.656  0.00  0.00    +0.000 A 
ATOM     18  C   UNL     1       0.102   9.955  18.245  0.00  0.00    +0.000 A 
ENDBRANCH  10  12
ENDBRANCH   7   8
BRANCH   1  19
ATOM     19  O   UNL     1       1.551   4.892  18.867  0.00  0.00    +0.000 OA
BRANCH  19  21
ATOM     20  C   UNL     1       0.796   3.165  20.281  0.00  0.00    +0.000 C 
ATOM     21  C   UNL     1       1.673   4.378  20.159  0.00  0.00    +0.000 C 
ATOM     22  O   UNL     1       2.372   4.850  21.045  0.00  0.00    +0.000 OA
ENDBRANCH  19  21
ENDBRANCH   1  19
TORSDOF 4
ENDMDL
MODEL 7
REMARK VINA RESULT:      -6.9      5.568      6.765
REMARK  Name = 
REMARK  5 active torsions:
REMARK  status: ('A' for Active; 'I' for Inactive)
REMARK    1  A    between atoms: C_1  and  C_2
REMARK    2  A    between atoms: C_2  and  O_4
REMARK    3  A    between atoms: O_4  and  C_5
REMARK    4  A    between atoms: C_11  and  C_12
REMARK    5  A    between atoms: N_14  and  C_15
REMARK                            x       y       z     vdW  Elec       q    Type
REMARK                         _______ _______ _______ _____ _____    ______ ____
ROOT
ATOM      1  C   UNL     1       6.827   5.291  14.671  0.00  0.00    +0.000 A 
ATOM      2  C   UNL     1       7.586   5.125  13.484  0.00  0.00    +0.000 A 
ATOM      3 CL   UNL     1       9.139   5.852  13.225  0.00  0.00    +0.000 Cl
ATOM      4  C   UNL     1       7.163   4.256  12.478  0.00  0.00    +0.000 A 
ATOM      5  C   UNL     1       6.004   3.515  12.644  0.00  0.00    +0.000 A 
ATOM      6  C   UNL     1       5.267   3.651  13.818  0.00  0.00    +0.000 A 
ATOM      7  C   UNL     1       5.660   4.527  14.857  0.00  0.00    +0.000 A 
ENDROOT
BRANCH   7   8
ATOM      8  C   UNL     1       4.808   4.450  16.093  0.00  0.00    +0.000 C 
ATOM      9  O   UNL     1       4.296   5.499  16.478  0.00  0.00    +0.000 OA
ATOM     10  N   UNL     1       4.672   3.234  16.749  0.00  0.00    +0.000 N 
ATOM     11  H   UNL     1       5.252   2.471  16.433  0.00  0.00    +0.000 HD
BRANCH  10  12
ATOM     12  C   UNL     1       3.888   3.011  17.908  0.00  0.00    +0.000 A 
ATOM     13  C   UNL     1       2.577   2.519  17.883  0.00  0.00    +0.000 A 
ATOM     14  C   UNL     1       1.839   2.356  19.061  0.00  0.00    +0.000 A 
ATOM     15  C   UNL     1       2.411   2.684  20.283  0.00  0.00    +0.000 A 
ATOM     16 BR   UNL     1       1.406   2.498  21.871  0.00  0.00    +0.000 Br
ATOM     17  C   UNL     1       3.722   3.155  20.335  0.00  0.00    +0.000 A 
ATOM     18  C   UNL     1       4.460   3.308  19.153  0.00  0.00    +0.000 A 
ENDBRANCH  10  12
ENDBRANCH   7   8
BRANCH   1  19
ATOM     19  O   UNL     1       7.347   6.040  15.745  0.00  0.00    +0.000 OA
BRANCH  19  21
ATOM     20  C   UNL     1       7.350   6.174  18.096  0.00  0.00    +0.000 C 
ATOM     21  C   UNL     1       7.656   5.320  16.900  0.00  0.00    +0.000 C 
ATOM     22  O   UNL     1       8.112   4.185  16.927  0.00  0.00    +0.000 OA
ENDBRANCH  19  21
ENDBRANCH   1  19
TORSDOF 4
ENDMDL
MODEL 8
REMARK VINA RESULT:      -6.9      0.826      1.532
REMARK  Name = 
REMARK  5 active torsions:
REMARK  status: ('A' for Active; 'I' for Inactive)
REMARK    1  A    between atoms: C_1  and  C_2
REMARK    2  A    between atoms: C_2  and  O_4
REMARK    3  A    between atoms: O_4  and  C_5
REMARK    4  A    between atoms: C_11  and  C_12
REMARK    5  A    between atoms: N_14  and  C_15
REMARK                            x       y       z     vdW  Elec       q    Type
REMARK                         _______ _______ _______ _____ _____    ______ ____
ROOT
ATOM      1  C   UNL     1       3.507   5.013  18.195  0.00  0.00    +0.000 A 
ATOM      2  C   UNL     1       4.198   4.046  17.422  0.00  0.00    +0.000 A 
ATOM      3 CL   UNL     1       3.991   2.335  17.611  0.00  0.00    +0.000 Cl
ATOM      4  C   UNL     1       5.020   4.430  16.361  0.00  0.00    +0.000 A 
ATOM      5  C   UNL     1       5.147   5.769  16.031  0.00  0.00    +0.000 A 
ATOM      6  C   UNL     1       4.450   6.725  16.769  0.00  0.00    +0.000 A 
ATOM      7  C   UNL     1       3.612   6.374  17.854  0.00  0.00    +0.000 A 
ENDROOT
BRANCH   7   8
ATOM      8  C   UNL     1       2.852   7.526  18.451  0.00  0.00    +0.000 C 
ATOM      9  O   UNL     1       2.842   8.574  17.810  0.00  0.00    +0.000 OA
ATOM     10  N   UNL     1       2.244   7.366  19.689  0.00  0.00    +0.000 N 
ATOM     11  H   UNL     1       2.439   6.515  20.194  0.00  0.00    +0.000 HD
BRANCH  10  12
ATOM     12  C   UNL     1       1.482   8.355  20.362  0.00  0.00    +0.000 A 
ATOM     13  C   UNL     1       1.396   8.461  21.756  0.00  0.00    +0.000 A 
ATOM     14  C   UNL     1       0.595   9.436  22.362  0.00  0.00    +0.000 A 
ATOM     15  C   UNL     1      -0.129  10.320  21.573  0.00  0.00    +0.000 A 
ATOM     16 BR   UNL     1      -1.238  11.614  22.388  0.00  0.00    +0.000 Br
ATOM     17  C   UNL     1      -0.042  10.247  20.184  0.00  0.00    +0.000 A 
ATOM     18  C   UNL     1       0.769   9.275  19.582  0.00  0.00    +0.000 A 
ENDBRANCH  10  12
ENDBRANCH   7   8
BRANCH   1  19
ATOM     19  O   UNL     1       2.555   4.607  19.150  0.00  0.00    +0.000 OA
BRANCH  19  21
ATOM     20  C   UNL     1       0.809   3.133  19.723  0.00  0.00    +0.000 C 
ATOM     21  C   UNL     1       1.408   3.990  18.647  0.00  0.00    +0.000 C 
ATOM     22  O   UNL     1       0.976   4.121  17.509  0.00  0.00    +0.000 OA
ENDBRANCH  19  21
ENDBRANCH   1  19
TORSDOF 4
ENDMDL
MODEL 9
REMARK VINA RESULT:      -6.8      2.099      2.319
REMARK  Name = 
REMARK  5 active torsions:
REMARK  status: ('A' for Active; 'I' for Inactive)
REMARK    1  A    between atoms: C_1  and  C_2
REMARK    2  A    between atoms: C_2  and  O_4
REMARK    3  A    between atoms: O_4  and  C_5
REMARK    4  A    between atoms: C_11  and  C_12
REMARK    5  A    between atoms: N_14  and  C_15
REMARK                            x       y       z     vdW  Elec       q    Type
REMARK                         _______ _______ _______ _____ _____    ______ ____
ROOT
ATOM      1  C   UNL     1       2.579   4.932  18.249  0.00  0.00    +0.000 A 
ATOM      2  C   UNL     1       3.235   3.883  17.557  0.00  0.00    +0.000 A 
ATOM      3 CL   UNL     1       2.635   2.257  17.480  0.00  0.00    +0.000 Cl
ATOM      4  C   UNL     1       4.371   4.132  16.787  0.00  0.00    +0.000 A 
ATOM      5  C   UNL     1       4.857   5.424  16.663  0.00  0.00    +0.000 A 
ATOM      6  C   UNL     1       4.202   6.465  17.318  0.00  0.00    +0.000 A 
ATOM      7  C   UNL     1       3.051   6.251  18.112  0.00  0.00    +0.000 A 
ENDROOT
BRANCH   7   8
ATOM      8  C   UNL     1       2.416   7.507  18.640  0.00  0.00    +0.000 C 
ATOM      9  O   UNL     1       2.244   7.572  19.855  0.00  0.00    +0.000 OA
ATOM     10  N   UNL     1       2.026   8.496  17.747  0.00  0.00    +0.000 N 
ATOM     11  H   UNL     1       2.079   8.278  16.763  0.00  0.00    +0.000 HD
BRANCH  10  12
ATOM     12  C   UNL     1       1.435   9.734  18.102  0.00  0.00    +0.000 A 
ATOM     13  C   UNL     1       0.068   9.903  18.360  0.00  0.00    +0.000 A 
ATOM     14  C   UNL     1      -0.463  11.161  18.668  0.00  0.00    +0.000 A 
ATOM     15  C   UNL     1       0.374  12.267  18.723  0.00  0.00    +0.000 A 
ATOM     16 BR   UNL     1      -0.346  13.971  19.105  0.00  0.00    +0.000 Br
ATOM     17  C   UNL     1       1.740  12.120  18.491  0.00  0.00    +0.000 A 
ATOM     18  C   UNL     1       2.270  10.857  18.192  0.00  0.00    +0.000 A 
ENDBRANCH  10  12
ENDBRANCH   7   8
BRANCH   1  19
ATOM     19  O   UNL     1       1.343   4.698  18.883  0.00  0.00    +0.000 OA
BRANCH  19  21
ATOM     20  C   UNL     1       2.248   4.543  21.052  0.00  0.00    +0.000 C 
ATOM     21  C   UNL     1       1.382   3.886  20.017  0.00  0.00    +0.000 C 
ATOM     22  O   UNL     1       0.813   2.809  20.136  0.00  0.00    +0.000 OA
ENDBRANCH  19  21
ENDBRANCH   1  19
TORSDOF 4
ENDMDL
