MODEL 1
REMARK VINA RESULT:      -8.2      0.000      0.000
REMARK  Name = 
REMARK  3 active torsions:
REMARK  status: ('A' for Active; 'I' for Inactive)
REMARK    1  A    between atoms: N_1  and  C_2
REMARK    2  A    between atoms: C_6  and  C_7
REMARK    3  A    between atoms: C_13  and  C_14
REMARK                            x       y       z     vdW  Elec       q    Type
REMARK                         _______ _______ _______ _____ _____    ______ ____
ROOT
ATOM      1  C   UNL     1       2.195   6.384  20.018  0.00  0.00    +0.000 A 
ATOM      2  C   UNL     1       1.788   5.425  20.956  0.00  0.00    +0.000 A 
ATOM      3  N   UNL     1       2.173   4.123  21.025  0.00  0.00    +0.000 NA
ATOM      4  C   UNL     1       3.033   3.786  20.049  0.00  0.00    +0.000 A 
ATOM      5  N   UNL     1       3.557   2.537  19.880  0.00  0.00    +0.000 N 
ATOM      6  C   UNL     1       4.392   2.526  18.792  0.00  0.00    +0.000 A 
ATOM      7  C   UNL     1       4.417   3.801  18.247  0.00  0.00    +0.000 A 
ATOM      8  C   UNL     1       3.541   4.603  19.048  0.00  0.00    +0.000 A 
ATOM      9  C   UNL     1       3.103   5.940  19.043  0.00  0.00    +0.000 A 
ATOM     10  H   UNL     1       3.344   1.757  20.482  0.00  0.00    +0.000 HD
ENDROOT
BRANCH   7  11
ATOM     11  C   UNL     1       5.227   4.161  17.089  0.00  0.00    +0.000 A 
ATOM     12  C   UNL     1       4.688   4.129  15.796  0.00  0.00    +0.000 A 
ATOM     13  C   UNL     1       5.475   4.457  14.685  0.00  0.00    +0.000 A 
ATOM     14  C   UNL     1       6.803   4.831  14.866  0.00  0.00    +0.000 A 
ATOM     15 CL   UNL     1       7.778   5.216  13.501  0.00  0.00    +0.000 Cl
ATOM     16  C   UNL     1       7.351   4.886  16.143  0.00  0.00    +0.000 A 
ATOM     17  C   UNL     1       6.566   4.545  17.249  0.00  0.00    +0.000 A 
ENDBRANCH   7  11
BRANCH   1  22
ATOM     18  C   UNL     1       1.329   9.925  18.884  0.00  0.00    +0.000 A 
ATOM     19  C   UNL     1       0.797  10.456  20.056  0.00  0.00    +0.000 A 
ATOM     20  C   UNL     1       0.666   9.663  21.195  0.00  0.00    +0.000 A 
ATOM     21  C   UNL     1       1.114   8.340  21.184  0.00  0.00    +0.000 A 
ATOM     22  C   UNL     1       1.698   7.779  20.037  0.00  0.00    +0.000 A 
ATOM     23  C   UNL     1       1.812   8.611  18.901  0.00  0.00    +0.000 A 
BRANCH  18  24
ATOM     24  N   UNL     1       1.596  10.756  17.789  0.00  0.00    +0.000 N 
ATOM     25  H   UNL     1       2.581  10.823  17.556  0.00  0.00    +0.000 HD
ATOM     26  H   UNL     1       1.150  11.666  17.842  0.00  0.00    +0.000 HD
ENDBRANCH  18  24
ENDBRANCH   1  22
TORSDOF 3
ENDMDL
MODEL 2
REMARK VINA RESULT:      -8.2      0.107      1.010
REMARK  Name = 
REMARK  3 active torsions:
REMARK  status: ('A' for Active; 'I' for Inactive)
REMARK    1  A    between atoms: N_1  and  C_2
REMARK    2  A    between atoms: C_6  and  C_7
REMARK    3  A    between atoms: C_13  and  C_14
REMARK                            x       y       z     vdW  Elec       q    Type
REMARK                         _______ _______ _______ _____ _____    ______ ____
ROOT
ATOM      1  C   UNL     1       2.156   6.411  20.065  0.00  0.00    +0.000 A 
ATOM      2  C   UNL     1       1.733   5.469  21.013  0.00  0.00    +0.000 A 
ATOM      3  N   UNL     1       2.110   4.165  21.106  0.00  0.00    +0.000 NA
ATOM      4  C   UNL     1       2.979   3.809  20.144  0.00  0.00    +0.000 A 
ATOM      5  N   UNL     1       3.496   2.554  20.000  0.00  0.00    +0.000 N 
ATOM      6  C   UNL     1       4.343   2.523  18.921  0.00  0.00    +0.000 A 
ATOM      7  C   UNL     1       4.382   3.789  18.358  0.00  0.00    +0.000 A 
ATOM      8  C   UNL     1       3.502   4.608  19.137  0.00  0.00    +0.000 A 
ATOM      9  C   UNL     1       3.073   5.948  19.108  0.00  0.00    +0.000 A 
ATOM     10  H   UNL     1       3.272   1.785  20.611  0.00  0.00    +0.000 HD
ENDROOT
BRANCH   7  11
ATOM     11  C   UNL     1       5.207   4.127  17.205  0.00  0.00    +0.000 A 
ATOM     12  C   UNL     1       6.519   4.594  17.369  0.00  0.00    +0.000 A 
ATOM     13  C   UNL     1       7.300   4.937  16.258  0.00  0.00    +0.000 A 
ATOM     14  C   UNL     1       6.775   4.802  14.976  0.00  0.00    +0.000 A 
ATOM     15 CL   UNL     1       7.727   5.241  13.612  0.00  0.00    +0.000 Cl
ATOM     16  C   UNL     1       5.482   4.324  14.792  0.00  0.00    +0.000 A 
ATOM     17  C   UNL     1       4.700   3.996  15.903  0.00  0.00    +0.000 A 
ENDBRANCH   7  11
BRANCH   1  22
ATOM     18  C   UNL     1       1.341   9.946  18.875  0.00  0.00    +0.000 A 
ATOM     19  C   UNL     1       0.784  10.492  20.028  0.00  0.00    +0.000 A 
ATOM     20  C   UNL     1       0.620   9.711  21.172  0.00  0.00    +0.000 A 
ATOM     21  C   UNL     1       1.060   8.386  21.184  0.00  0.00    +0.000 A 
ATOM     22  C   UNL     1       1.669   7.809  20.058  0.00  0.00    +0.000 A 
ATOM     23  C   UNL     1       1.815   8.629  18.917  0.00  0.00    +0.000 A 
BRANCH  18  24
ATOM     24  N   UNL     1       1.640  10.763  17.778  0.00  0.00    +0.000 N 
ATOM     25  H   UNL     1       0.898  11.411  17.536  0.00  0.00    +0.000 HD
ATOM     26  H   UNL     1       1.989  10.259  16.970  0.00  0.00    +0.000 HD
ENDBRANCH  18  24
ENDBRANCH   1  22
TORSDOF 3
ENDMDL
MODEL 3
REMARK VINA RESULT:      -8.1      0.974      1.723
REMARK  Name = 
REMARK  3 active torsions:
REMARK  status: ('A' for Active; 'I' for Inactive)
REMARK    1  A    between atoms: N_1  and  C_2
REMARK    2  A    between atoms: C_6  and  C_7
REMARK    3  A    between atoms: C_13  and  C_14
REMARK                            x       y       z     vdW  Elec       q    Type
REMARK                         _______ _______ _______ _____ _____    ______ ____
ROOT
ATOM      1  C   UNL     1       2.226   6.733  19.766  0.00  0.00    +0.000 A 
ATOM      2  C   UNL     1       1.811   5.860  20.780  0.00  0.00    +0.000 A 
ATOM      3  N   UNL     1       2.196   4.568  20.967  0.00  0.00    +0.000 NA
ATOM      4  C   UNL     1       3.065   4.148  20.031  0.00  0.00    +0.000 A 
ATOM      5  N   UNL     1       3.590   2.890  19.978  0.00  0.00    +0.000 N 
ATOM      6  C   UNL     1       4.435   2.785  18.902  0.00  0.00    +0.000 A 
ATOM      7  C   UNL     1       4.465   4.007  18.248  0.00  0.00    +0.000 A 
ATOM      8  C   UNL     1       3.581   4.875  18.968  0.00  0.00    +0.000 A 
ATOM      9  C   UNL     1       3.143   6.207  18.842  0.00  0.00    +0.000 A 
ATOM     10  H   UNL     1       3.372   2.166  20.643  0.00  0.00    +0.000 HD
ENDROOT
BRANCH   7  11
ATOM     11  C   UNL     1       5.285   4.266  17.071  0.00  0.00    +0.000 A 
ATOM     12  C   UNL     1       6.635   4.621  17.197  0.00  0.00    +0.000 A 
ATOM     13  C   UNL     1       7.414   4.889  16.065  0.00  0.00    +0.000 A 
ATOM     14  C   UNL     1       6.846   4.789  14.798  0.00  0.00    +0.000 A 
ATOM     15 CL   UNL     1       7.796   5.136  13.405  0.00  0.00    +0.000 Cl
ATOM     16  C   UNL     1       5.513   4.422  14.651  0.00  0.00    +0.000 A 
ATOM     17  C   UNL     1       4.735   4.169  15.784  0.00  0.00    +0.000 A 
ENDBRANCH   7  11
BRANCH   1  22
ATOM     18  C   UNL     1       0.685  10.100  20.695  0.00  0.00    +0.000 A 
ATOM     19  C   UNL     1       0.737  10.762  19.472  0.00  0.00    +0.000 A 
ATOM     20  C   UNL     1       1.314  10.148  18.360  0.00  0.00    +0.000 A 
ATOM     21  C   UNL     1       1.803   8.844  18.455  0.00  0.00    +0.000 A 
ATOM     22  C   UNL     1       1.729   8.124  19.658  0.00  0.00    +0.000 A 
ATOM     23  C   UNL     1       1.141   8.778  20.763  0.00  0.00    +0.000 A 
BRANCH  18  24
ATOM     24  N   UNL     1      -0.022  10.654  21.769  0.00  0.00    +0.000 N 
ATOM     25  H   UNL     1      -0.987  10.877  21.553  0.00  0.00    +0.000 HD
ATOM     26  H   UNL     1       0.457  11.422  22.228  0.00  0.00    +0.000 HD
ENDBRANCH  18  24
ENDBRANCH   1  22
TORSDOF 3
ENDMDL
MODEL 4
REMARK VINA RESULT:      -8.1      0.983      1.405
REMARK  Name = 
REMARK  3 active torsions:
REMARK  status: ('A' for Active; 'I' for Inactive)
REMARK    1  A    between atoms: N_1  and  C_2
REMARK    2  A    between atoms: C_6  and  C_7
REMARK    3  A    between atoms: C_13  and  C_14
REMARK                            x       y       z     vdW  Elec       q    Type
REMARK                         _______ _______ _______ _____ _____    ______ ____
ROOT
ATOM      1  C   UNL     1       2.244   6.732  19.751  0.00  0.00    +0.000 A 
ATOM      2  C   UNL     1       1.845   5.846  20.761  0.00  0.00    +0.000 A 
ATOM      3  N   UNL     1       2.237   4.554  20.928  0.00  0.00    +0.000 NA
ATOM      4  C   UNL     1       3.096   4.148  19.977  0.00  0.00    +0.000 A 
ATOM      5  N   UNL     1       3.625   2.892  19.903  0.00  0.00    +0.000 N 
ATOM      6  C   UNL     1       4.457   2.802  18.815  0.00  0.00    +0.000 A 
ATOM      7  C   UNL     1       4.474   4.032  18.175  0.00  0.00    +0.000 A 
ATOM      8  C   UNL     1       3.596   4.888  18.915  0.00  0.00    +0.000 A 
ATOM      9  C   UNL     1       3.152   6.220  18.810  0.00  0.00    +0.000 A 
ATOM     10  H   UNL     1       3.418   2.159  20.563  0.00  0.00    +0.000 HD
ENDROOT
BRANCH   7  11
ATOM     11  C   UNL     1       5.278   4.307  16.990  0.00  0.00    +0.000 A 
ATOM     12  C   UNL     1       4.739   4.163  15.704  0.00  0.00    +0.000 A 
ATOM     13  C   UNL     1       5.521   4.408  14.569  0.00  0.00    +0.000 A 
ATOM     14  C   UNL     1       6.844   4.813  14.717  0.00  0.00    +0.000 A 
ATOM     15 CL   UNL     1       7.813   5.097  13.323  0.00  0.00    +0.000 Cl
ATOM     16  C   UNL     1       7.392   4.978  15.984  0.00  0.00    +0.000 A 
ATOM     17  C   UNL     1       6.613   4.719  17.115  0.00  0.00    +0.000 A 
ENDBRANCH   7  11
BRANCH   1  22
ATOM     18  C   UNL     1       0.692  10.078  20.734  0.00  0.00    +0.000 A 
ATOM     19  C   UNL     1       0.736  10.758  19.520  0.00  0.00    +0.000 A 
ATOM     20  C   UNL     1       1.312  10.163  18.398  0.00  0.00    +0.000 A 
ATOM     21  C   UNL     1       1.807   8.860  18.472  0.00  0.00    +0.000 A 
ATOM     22  C   UNL     1       1.741   8.122  19.665  0.00  0.00    +0.000 A 
ATOM     23  C   UNL     1       1.154   8.757  20.781  0.00  0.00    +0.000 A 
BRANCH  18  24
ATOM     24  N   UNL     1      -0.014  10.613  21.819  0.00  0.00    +0.000 N 
ATOM     25  H   UNL     1       0.205  11.584  22.012  0.00  0.00    +0.000 HD
ATOM     26  H   UNL     1       0.016  10.038  22.655  0.00  0.00    +0.000 HD
ENDBRANCH  18  24
ENDBRANCH   1  22
TORSDOF 3
ENDMDL
MODEL 5
REMARK VINA RESULT:      -7.7      2.911      6.920
REMARK  Name = 
REMARK  3 active torsions:
REMARK  status: ('A' for Active; 'I' for Inactive)
REMARK    1  A    between atoms: N_1  and  C_2
REMARK    2  A    between atoms: C_6  and  C_7
REMARK    3  A    between atoms: C_13  and  C_14
REMARK                            x       y       z     vdW  Elec       q    Type
REMARK                         _______ _______ _______ _____ _____    ______ ____
ROOT
ATOM      1  C   UNL     1       4.681   4.526  17.350  0.00  0.00    +0.000 A 
ATOM      2  C   UNL     1       4.536   3.343  18.089  0.00  0.00    +0.000 A 
ATOM      3  N   UNL     1       3.758   3.146  19.187  0.00  0.00    +0.000 NA
ATOM      4  C   UNL     1       3.091   4.254  19.553  0.00  0.00    +0.000 A 
ATOM      5  N   UNL     1       2.258   4.331  20.632  0.00  0.00    +0.000 N 
ATOM      6  C   UNL     1       1.742   5.598  20.731  0.00  0.00    +0.000 A 
ATOM      7  C   UNL     1       2.245   6.358  19.686  0.00  0.00    +0.000 A 
ATOM      8  C   UNL     1       3.114   5.498  18.939  0.00  0.00    +0.000 A 
ATOM      9  C   UNL     1       3.935   5.626  17.803  0.00  0.00    +0.000 A 
ATOM     10  H   UNL     1       2.070   3.555  21.247  0.00  0.00    +0.000 HD
ENDROOT
BRANCH   7  11
ATOM     11  C   UNL     1       1.884   7.753  19.465  0.00  0.00    +0.000 A 
ATOM     12  C   UNL     1       1.300   8.517  20.485  0.00  0.00    +0.000 A 
ATOM     13  C   UNL     1       0.936   9.850  20.261  0.00  0.00    +0.000 A 
ATOM     14  C   UNL     1       1.169  10.430  19.017  0.00  0.00    +0.000 A 
ATOM     15 CL   UNL     1       0.706  12.063  18.735  0.00  0.00    +0.000 Cl
ATOM     16  C   UNL     1       1.763   9.694  17.998  0.00  0.00    +0.000 A 
ATOM     17  C   UNL     1       2.112   8.359  18.220  0.00  0.00    +0.000 A 
ENDBRANCH   7  11
BRANCH   1  22
ATOM     18  C   UNL     1       6.110   3.991  13.851  0.00  0.00    +0.000 A 
ATOM     19  C   UNL     1       7.266   4.763  13.916  0.00  0.00    +0.000 A 
ATOM     20  C   UNL     1       7.561   5.498  15.064  0.00  0.00    +0.000 A 
ATOM     21  C   UNL     1       6.721   5.427  16.177  0.00  0.00    +0.000 A 
ATOM     22  C   UNL     1       5.569   4.625  16.170  0.00  0.00    +0.000 A 
ATOM     23  C   UNL     1       5.300   3.898  14.990  0.00  0.00    +0.000 A 
BRANCH  18  24
ATOM     24  N   UNL     1       5.887   3.141  12.761  0.00  0.00    +0.000 N 
ATOM     25  H   UNL     1       6.450   2.298  12.777  0.00  0.00    +0.000 HD
ATOM     26  H   UNL     1       5.919   3.608  11.859  0.00  0.00    +0.000 HD
ENDBRANCH  18  24
ENDBRANCH   1  22
TORSDOF 3
ENDMDL
MODEL 6
REMARK VINA RESULT:      -7.7      4.079      8.003
REMARK  Name = 
REMARK  3 active torsions:
REMARK  status: ('A' for Active; 'I' for Inactive)
REMARK    1  A    between atoms: N_1  and  C_2
REMARK    2  A    between atoms: C_6  and  C_7
REMARK    3  A    between atoms: C_13  and  C_14
REMARK                            x       y       z     vdW  Elec       q    Type
REMARK                         _______ _______ _______ _____ _____    ______ ____
ROOT
ATOM      1  C   UNL     1       6.100   4.334  14.395  0.00  0.00    +0.000 A 
ATOM      2  C   UNL     1       7.253   5.131  14.368  0.00  0.00    +0.000 A 
ATOM      3  N   UNL     1       7.806   5.818  15.404  0.00  0.00    +0.000 NA
ATOM      4  C   UNL     1       7.113   5.676  16.546  0.00  0.00    +0.000 A 
ATOM      5  N   UNL     1       7.443   6.276  17.727  0.00  0.00    +0.000 N 
ATOM      6  C   UNL     1       6.531   5.933  18.693  0.00  0.00    +0.000 A 
ATOM      7  C   UNL     1       5.592   5.084  18.127  0.00  0.00    +0.000 A 
ATOM      8  C   UNL     1       5.962   4.928  16.752  0.00  0.00    +0.000 A 
ATOM      9  C   UNL     1       5.450   4.238  15.637  0.00  0.00    +0.000 A 
ATOM     10  H   UNL     1       8.244   6.876  17.843  0.00  0.00    +0.000 HD
ENDROOT
BRANCH   7  11
ATOM     11  C   UNL     1       4.487   4.499  18.876  0.00  0.00    +0.000 A 
ATOM     12  C   UNL     1       3.456   5.302  19.383  0.00  0.00    +0.000 A 
ATOM     13  C   UNL     1       2.406   4.738  20.119  0.00  0.00    +0.000 A 
ATOM     14  C   UNL     1       2.378   3.364  20.340  0.00  0.00    +0.000 A 
ATOM     15 CL   UNL     1       1.099   2.672  21.260  0.00  0.00    +0.000 Cl
ATOM     16  C   UNL     1       3.382   2.549  19.830  0.00  0.00    +0.000 A 
ATOM     17  C   UNL     1       4.436   3.116  19.107  0.00  0.00    +0.000 A 
ENDBRANCH   7  11
BRANCH   1  22
ATOM     18  C   UNL     1       5.796   1.848  11.513  0.00  0.00    +0.000 A 
ATOM     19  C   UNL     1       4.645   2.313  10.883  0.00  0.00    +0.000 A 
ATOM     20  C   UNL     1       3.936   3.391  11.412  0.00  0.00    +0.000 A 
ATOM     21  C   UNL     1       4.403   4.044  12.554  0.00  0.00    +0.000 A 
ATOM     22  C   UNL     1       5.584   3.637  13.195  0.00  0.00    +0.000 A 
ATOM     23  C   UNL     1       6.274   2.540  12.633  0.00  0.00    +0.000 A 
BRANCH  18  24
ATOM     24  N   UNL     1       6.587   0.866  10.906  0.00  0.00    +0.000 N 
ATOM     25  H   UNL     1       6.117   0.363  10.162  0.00  0.00    +0.000 HD
ATOM     26  H   UNL     1       7.047   0.241  11.562  0.00  0.00    +0.000 HD
ENDBRANCH  18  24
ENDBRANCH   1  22
TORSDOF 3
ENDMDL
MODEL 7
REMARK VINA RESULT:      -7.7      2.906      6.898
REMARK  Name = 
REMARK  3 active torsions:
REMARK  status: ('A' for Active; 'I' for Inactive)
REMARK    1  A    between atoms: N_1  and  C_2
REMARK    2  A    between atoms: C_6  and  C_7
REMARK    3  A    between atoms: C_13  and  C_14
REMARK                            x       y       z     vdW  Elec       q    Type
REMARK                         _______ _______ _______ _____ _____    ______ ____
ROOT
ATOM      1  C   UNL     1       4.689   4.576  17.398  0.00  0.00    +0.000 A 
ATOM      2  C   UNL     1       4.559   3.407  18.160  0.00  0.00    +0.000 A 
ATOM      3  N   UNL     1       3.788   3.223  19.266  0.00  0.00    +0.000 NA
ATOM      4  C   UNL     1       3.112   4.331  19.613  0.00  0.00    +0.000 A 
ATOM      5  N   UNL     1       2.283   4.421  20.694  0.00  0.00    +0.000 N 
ATOM      6  C   UNL     1       1.755   5.685  20.772  0.00  0.00    +0.000 A 
ATOM      7  C   UNL     1       2.246   6.430  19.710  0.00  0.00    +0.000 A 
ATOM      8  C   UNL     1       3.120   5.564  18.975  0.00  0.00    +0.000 A 
ATOM      9  C   UNL     1       3.935   5.678  17.833  0.00  0.00    +0.000 A 
ATOM     10  H   UNL     1       2.105   3.656  21.325  0.00  0.00    +0.000 HD
ENDROOT
BRANCH   7  11
ATOM     11  C   UNL     1       1.871   7.817  19.463  0.00  0.00    +0.000 A 
ATOM     12  C   UNL     1       2.108   8.417  18.219  0.00  0.00    +0.000 A 
ATOM     13  C   UNL     1       1.765   9.755  17.993  0.00  0.00    +0.000 A 
ATOM     14  C   UNL     1       1.169  10.496  19.010  0.00  0.00    +0.000 A 
ATOM     15 CL   UNL     1       0.763  12.147  18.740  0.00  0.00    +0.000 Cl
ATOM     16  C   UNL     1       0.909   9.913  20.245  0.00  0.00    +0.000 A 
ATOM     17  C   UNL     1       1.266   8.581  20.472  0.00  0.00    +0.000 A 
ENDBRANCH   7  11
BRANCH   1  22
ATOM     18  C   UNL     1       6.092   4.008  13.893  0.00  0.00    +0.000 A 
ATOM     19  C   UNL     1       7.254   4.772  13.947  0.00  0.00    +0.000 A 
ATOM     20  C   UNL     1       7.563   5.511  15.088  0.00  0.00    +0.000 A 
ATOM     21  C   UNL     1       6.729   5.454  16.206  0.00  0.00    +0.000 A 
ATOM     22  C   UNL     1       5.570   4.661  16.212  0.00  0.00    +0.000 A 
ATOM     23  C   UNL     1       5.289   3.928  15.038  0.00  0.00    +0.000 A 
BRANCH  18  24
ATOM     24  N   UNL     1       5.856   3.154  12.810  0.00  0.00    +0.000 N 
ATOM     25  H   UNL     1       5.355   2.308  13.057  0.00  0.00    +0.000 HD
ATOM     26  H   UNL     1       6.679   2.963  12.247  0.00  0.00    +0.000 HD
ENDBRANCH  18  24
ENDBRANCH   1  22
TORSDOF 3
ENDMDL
MODEL 8
REMARK VINA RESULT:      -7.7      4.084      8.005
REMARK  Name = 
REMARK  3 active torsions:
REMARK  status: ('A' for Active; 'I' for Inactive)
REMARK    1  A    between atoms: N_1  and  C_2
REMARK    2  A    between atoms: C_6  and  C_7
REMARK    3  A    between atoms: C_13  and  C_14
REMARK                            x       y       z     vdW  Elec       q    Type
REMARK                         _______ _______ _______ _____ _____    ______ ____
ROOT
ATOM      1  C   UNL     1       6.105   4.328  14.386  0.00  0.00    +0.000 A 
ATOM      2  C   UNL     1       7.259   5.123  14.358  0.00  0.00    +0.000 A 
ATOM      3  N   UNL     1       7.814   5.810  15.392  0.00  0.00    +0.000 NA
ATOM      4  C   UNL     1       7.120   5.671  16.535  0.00  0.00    +0.000 A 
ATOM      5  N   UNL     1       7.452   6.272  17.715  0.00  0.00    +0.000 N 
ATOM      6  C   UNL     1       6.539   5.932  18.682  0.00  0.00    +0.000 A 
ATOM      7  C   UNL     1       5.599   5.084  18.117  0.00  0.00    +0.000 A 
ATOM      8  C   UNL     1       5.969   4.926  16.742  0.00  0.00    +0.000 A 
ATOM      9  C   UNL     1       5.455   4.235  15.627  0.00  0.00    +0.000 A 
ATOM     10  H   UNL     1       8.254   6.871  17.830  0.00  0.00    +0.000 HD
ENDROOT
BRANCH   7  11
ATOM     11  C   UNL     1       4.492   4.502  18.866  0.00  0.00    +0.000 A 
ATOM     12  C   UNL     1       4.297   3.115  18.903  0.00  0.00    +0.000 A 
ATOM     13  C   UNL     1       3.221   2.562  19.607  0.00  0.00    +0.000 A 
ATOM     14  C   UNL     1       2.342   3.396  20.291  0.00  0.00    +0.000 A 
ATOM     15 CL   UNL     1       1.007   2.720  21.142  0.00  0.00    +0.000 Cl
ATOM     16  C   UNL     1       2.528   4.774  20.281  0.00  0.00    +0.000 A 
ATOM     17  C   UNL     1       3.596   5.324  19.565  0.00  0.00    +0.000 A 
ENDBRANCH   7  11
BRANCH   1  22
ATOM     18  C   UNL     1       5.797   1.839  11.507  0.00  0.00    +0.000 A 
ATOM     19  C   UNL     1       4.647   2.305  10.877  0.00  0.00    +0.000 A 
ATOM     20  C   UNL     1       3.939   3.385  11.404  0.00  0.00    +0.000 A 
ATOM     21  C   UNL     1       4.408   4.039  12.545  0.00  0.00    +0.000 A 
ATOM     22  C   UNL     1       5.588   3.630  13.187  0.00  0.00    +0.000 A 
ATOM     23  C   UNL     1       6.276   2.532  12.626  0.00  0.00    +0.000 A 
BRANCH  18  24
ATOM     24  N   UNL     1       6.586   0.854  10.902  0.00  0.00    +0.000 N 
ATOM     25  H   UNL     1       6.712   0.986   9.905  0.00  0.00    +0.000 HD
ATOM     26  H   UNL     1       6.311  -0.096  11.133  0.00  0.00    +0.000 HD
ENDBRANCH  18  24
ENDBRANCH   1  22
TORSDOF 3
ENDMDL
MODEL 9
REMARK VINA RESULT:      -7.7      4.147      8.271
REMARK  Name = 
REMARK  3 active torsions:
REMARK  status: ('A' for Active; 'I' for Inactive)
REMARK    1  A    between atoms: N_1  and  C_2
REMARK    2  A    between atoms: C_6  and  C_7
REMARK    3  A    between atoms: C_13  and  C_14
REMARK                            x       y       z     vdW  Elec       q    Type
REMARK                         _______ _______ _______ _____ _____    ______ ____
ROOT
ATOM      1  C   UNL     1       2.529   6.402  19.317  0.00  0.00    +0.000 A 
ATOM      2  C   UNL     1       3.221   6.685  18.132  0.00  0.00    +0.000 A 
ATOM      3  N   UNL     1       3.231   7.858  17.442  0.00  0.00    +0.000 NA
ATOM      4  C   UNL     1       2.464   8.801  18.015  0.00  0.00    +0.000 A 
ATOM      5  N   UNL     1       2.287  10.058  17.515  0.00  0.00    +0.000 N 
ATOM      6  C   UNL     1       1.443  10.768  18.331  0.00  0.00    +0.000 A 
ATOM      7  C   UNL     1       1.072   9.955  19.391  0.00  0.00    +0.000 A 
ATOM      8  C   UNL     1       1.720   8.694  19.182  0.00  0.00    +0.000 A 
ATOM      9  C   UNL     1       1.763   7.454  19.846  0.00  0.00    +0.000 A 
ATOM     10  H   UNL     1       2.723  10.388  16.668  0.00  0.00    +0.000 HD
ENDROOT
BRANCH   7  11
ATOM     11  C   UNL     1       0.199  10.395  20.471  0.00  0.00    +0.000 A 
ATOM     12  C   UNL     1       0.240   9.777  21.729  0.00  0.00    +0.000 A 
ATOM     13  C   UNL     1      -0.615  10.190  22.758  0.00  0.00    +0.000 A 
ATOM     14  C   UNL     1      -1.507  11.235  22.536  0.00  0.00    +0.000 A 
ATOM     15 CL   UNL     1      -2.572  11.732  23.793  0.00  0.00    +0.000 Cl
ATOM     16  C   UNL     1      -1.551  11.872  21.301  0.00  0.00    +0.000 A 
ATOM     17  C   UNL     1      -0.706  11.448  20.271  0.00  0.00    +0.000 A 
ENDBRANCH   7  11
BRANCH   1  22
ATOM     18  C   UNL     1       3.745   2.938  20.364  0.00  0.00    +0.000 A 
ATOM     19  C   UNL     1       2.702   2.530  21.191  0.00  0.00    +0.000 A 
ATOM     20  C   UNL     1       1.634   3.386  21.456  0.00  0.00    +0.000 A 
ATOM     21  C   UNL     1       1.578   4.644  20.854  0.00  0.00    +0.000 A 
ATOM     22  C   UNL     1       2.586   5.078  19.977  0.00  0.00    +0.000 A 
ATOM     23  C   UNL     1       3.653   4.186  19.735  0.00  0.00    +0.000 A 
BRANCH  18  24
ATOM     24  N   UNL     1       4.740   2.031  19.981  0.00  0.00    +0.000 N 
ATOM     25  H   UNL     1       5.548   2.027  20.593  0.00  0.00    +0.000 HD
ATOM     26  H   UNL     1       5.000   2.092  19.001  0.00  0.00    +0.000 HD
ENDBRANCH  18  24
ENDBRANCH   1  22
TORSDOF 3
ENDMDL
