MODEL 1
REMARK VINA RESULT:      -6.2      0.000      0.000
REMARK  Name = 
REMARK  9 active torsions:
REMARK  status: ('A' for Active; 'I' for Inactive)
REMARK    1  A    between atoms: C_1  and  C_2
REMARK    2  A    between atoms: C_2  and  O_3
REMARK    3  A    between atoms: O_3  and  C_4
REMARK    4  A    between atoms: C_4  and  C_6
REMARK    5  A    between atoms: C_6  and  N_7
REMARK    6  A    between atoms: C_6  and  C_12
REMARK    7  A    between atoms: N_7  and  C_8
REMARK    8  A    between atoms: C_8  and  C_9
REMARK    9  A    between atoms: C_9  and  C_10
REMARK                            x       y       z     vdW  Elec       q    Type
REMARK                         _______ _______ _______ _____ _____    ______ ____
ROOT
ATOM      1  C   UNL     1       5.301   4.680  16.926  0.00  0.00    +0.000 C 
ENDROOT
BRANCH   1   2
ATOM      2  C   UNL     1       3.958   4.171  17.437  0.00  0.00    +0.000 A 
ATOM      3  C   UNL     1       3.715   2.791  17.529  0.00  0.00    +0.000 A 
ATOM      4  C   UNL     1       2.482   2.320  17.979  0.00  0.00    +0.000 A 
ATOM      5  C   UNL     1       1.477   3.218  18.340  0.00  0.00    +0.000 A 
ATOM      6  C   UNL     1       1.706   4.589  18.258  0.00  0.00    +0.000 A 
ATOM      7  C   UNL     1       2.938   5.063  17.816  0.00  0.00    +0.000 A 
ENDBRANCH   1   2
BRANCH   1   8
ATOM      8  C   UNL     1       6.285   4.754  18.117  0.00  0.00    +0.000 C 
ATOM      9  O   UNL     1       6.153   4.158  19.182  0.00  0.00    +0.000 OA
BRANCH   8  10
ATOM     10  O   UNL     1       7.217   5.724  17.867  0.00  0.00    +0.000 OA
BRANCH  10  12
ATOM     11  C   UNL     1       7.759   8.034  17.591  0.00  0.00    +0.000 C 
ATOM     12  C   UNL     1       6.702   6.966  17.372  0.00  0.00    +0.000 C 
ENDBRANCH  10  12
ENDBRANCH   8  10
ENDBRANCH   1   8
BRANCH   1  13
ATOM     13  N   UNL     1       5.865   3.840  15.837  0.00  0.00    +0.000 NA
ATOM     14  H   UNL     1       5.451   2.909  15.902  0.00  0.00    +0.000 HD
BRANCH  13  15
ATOM     15  C   UNL     1       5.643   4.426  14.517  0.00  0.00    +0.000 C 
BRANCH  15  16
ATOM     16  C   UNL     1       6.329   3.600  13.430  0.00  0.00    +0.000 C 
BRANCH  16  17
ATOM     17  C   UNL     1       5.374   3.394  12.261  0.00  0.00    +0.000 C 
ATOM     18 CL   UNL     1       5.698   1.850  11.445  0.00  0.00    +0.000 Cl
ENDBRANCH  16  17
ENDBRANCH  15  16
ENDBRANCH  13  15
ENDBRANCH   1  13
TORSDOF 8
ENDMDL
MODEL 2
REMARK VINA RESULT:      -6.2      2.962      4.624
REMARK  Name = 
REMARK  9 active torsions:
REMARK  status: ('A' for Active; 'I' for Inactive)
REMARK    1  A    between atoms: C_1  and  C_2
REMARK    2  A    between atoms: C_2  and  O_3
REMARK    3  A    between atoms: O_3  and  C_4
REMARK    4  A    between atoms: C_4  and  C_6
REMARK    5  A    between atoms: C_6  and  N_7
REMARK    6  A    between atoms: C_6  and  C_12
REMARK    7  A    between atoms: N_7  and  C_8
REMARK    8  A    between atoms: C_8  and  C_9
REMARK    9  A    between atoms: C_9  and  C_10
REMARK                            x       y       z     vdW  Elec       q    Type
REMARK                         _______ _______ _______ _____ _____    ______ ____
ROOT
ATOM      1  C   UNL     1       5.549   4.423  17.222  0.00  0.00    +0.000 C 
ENDROOT
BRANCH   1   2
ATOM      2  C   UNL     1       4.094   4.056  17.497  0.00  0.00    +0.000 A 
ATOM      3  C   UNL     1       3.135   5.064  17.679  0.00  0.00    +0.000 A 
ATOM      4  C   UNL     1       1.807   4.734  17.948  0.00  0.00    +0.000 A 
ATOM      5  C   UNL     1       1.422   3.396  18.042  0.00  0.00    +0.000 A 
ATOM      6  C   UNL     1       2.363   2.386  17.860  0.00  0.00    +0.000 A 
ATOM      7  C   UNL     1       3.688   2.712  17.584  0.00  0.00    +0.000 A 
ENDBRANCH   1   2
BRANCH   1   8
ATOM      8  C   UNL     1       5.671   4.879  15.749  0.00  0.00    +0.000 C 
ATOM      9  O   UNL     1       5.456   6.016  15.339  0.00  0.00    +0.000 OA
BRANCH   8  10
ATOM     10  O   UNL     1       5.872   3.780  14.958  0.00  0.00    +0.000 OA
BRANCH  10  12
ATOM     11  C   UNL     1       5.716   3.448  12.597  0.00  0.00    +0.000 C 
ATOM     12  C   UNL     1       6.558   4.022  13.724  0.00  0.00    +0.000 C 
ENDBRANCH  10  12
ENDBRANCH   8  10
ENDBRANCH   1   8
BRANCH   1  13
ATOM     13  N   UNL     1       6.065   5.476  18.136  0.00  0.00    +0.000 NA
ATOM     14  H   UNL     1       5.559   5.411  19.020  0.00  0.00    +0.000 HD
BRANCH  13  15
ATOM     15  C   UNL     1       7.508   5.364  18.345  0.00  0.00    +0.000 C 
BRANCH  15  16
ATOM     16  C   UNL     1       8.114   6.721  18.703  0.00  0.00    +0.000 C 
BRANCH  16  17
ATOM     17  C   UNL     1       7.722   7.752  17.651  0.00  0.00    +0.000 C 
ATOM     18 CL   UNL     1       8.334   9.362  18.086  0.00  0.00    +0.000 Cl
ENDBRANCH  16  17
ENDBRANCH  15  16
ENDBRANCH  13  15
ENDBRANCH   1  13
TORSDOF 8
ENDMDL
MODEL 3
REMARK VINA RESULT:      -6.1      3.333      4.270
REMARK  Name = 
REMARK  9 active torsions:
REMARK  status: ('A' for Active; 'I' for Inactive)
REMARK    1  A    between atoms: C_1  and  C_2
REMARK    2  A    between atoms: C_2  and  O_3
REMARK    3  A    between atoms: O_3  and  C_4
REMARK    4  A    between atoms: C_4  and  C_6
REMARK    5  A    between atoms: C_6  and  N_7
REMARK    6  A    between atoms: C_6  and  C_12
REMARK    7  A    between atoms: N_7  and  C_8
REMARK    8  A    between atoms: C_8  and  C_9
REMARK    9  A    between atoms: C_9  and  C_10
REMARK                            x       y       z     vdW  Elec       q    Type
REMARK                         _______ _______ _______ _____ _____    ______ ____
ROOT
ATOM      1  C   UNL     1       5.099   4.788  18.073  0.00  0.00    +0.000 C 
ENDROOT
BRANCH   1   2
ATOM      2  C   UNL     1       4.067   5.875  18.355  0.00  0.00    +0.000 A 
ATOM      3  C   UNL     1       3.906   6.943  17.460  0.00  0.00    +0.000 A 
ATOM      4  C   UNL     1       2.976   7.949  17.722  0.00  0.00    +0.000 A 
ATOM      5  C   UNL     1       2.199   7.902  18.880  0.00  0.00    +0.000 A 
ATOM      6  C   UNL     1       2.346   6.846  19.775  0.00  0.00    +0.000 A 
ATOM      7  C   UNL     1       3.269   5.836  19.513  0.00  0.00    +0.000 A 
ENDBRANCH   1   2
BRANCH   1   8
ATOM      8  C   UNL     1       6.426   5.178  18.766  0.00  0.00    +0.000 C 
ATOM      9  O   UNL     1       6.658   5.068  19.966  0.00  0.00    +0.000 OA
BRANCH   8  10
ATOM     10  O   UNL     1       7.223   5.831  17.866  0.00  0.00    +0.000 OA
BRANCH  10  12
ATOM     11  C   UNL     1       7.672   8.154  17.531  0.00  0.00    +0.000 C 
ATOM     12  C   UNL     1       7.971   6.937  18.388  0.00  0.00    +0.000 C 
ENDBRANCH  10  12
ENDBRANCH   8  10
ENDBRANCH   1   8
BRANCH   1  13
ATOM     13  N   UNL     1       4.658   3.439  18.516  0.00  0.00    +0.000 NA
ATOM     14  H   UNL     1       4.094   3.546  19.361  0.00  0.00    +0.000 HD
BRANCH  13  15
ATOM     15  C   UNL     1       3.918   2.732  17.473  0.00  0.00    +0.000 C 
BRANCH  15  16
ATOM     16  C   UNL     1       2.424   2.694  17.794  0.00  0.00    +0.000 C 
BRANCH  16  17
ATOM     17  C   UNL     1       2.219   2.230  19.231  0.00  0.00    +0.000 C 
ATOM     18 CL   UNL     1       0.923   3.158  20.015  0.00  0.00    +0.000 Cl
ENDBRANCH  16  17
ENDBRANCH  15  16
ENDBRANCH  13  15
ENDBRANCH   1  13
TORSDOF 8
ENDMDL
MODEL 4
REMARK VINA RESULT:      -6.1      3.042      4.291
REMARK  Name = 
REMARK  9 active torsions:
REMARK  status: ('A' for Active; 'I' for Inactive)
REMARK    1  A    between atoms: C_1  and  C_2
REMARK    2  A    between atoms: C_2  and  O_3
REMARK    3  A    between atoms: O_3  and  C_4
REMARK    4  A    between atoms: C_4  and  C_6
REMARK    5  A    between atoms: C_6  and  N_7
REMARK    6  A    between atoms: C_6  and  C_12
REMARK    7  A    between atoms: N_7  and  C_8
REMARK    8  A    between atoms: C_8  and  C_9
REMARK    9  A    between atoms: C_9  and  C_10
REMARK                            x       y       z     vdW  Elec       q    Type
REMARK                         _______ _______ _______ _____ _____    ______ ____
ROOT
ATOM      1  C   UNL     1       4.915   4.136  18.284  0.00  0.00    +0.000 C 
ENDROOT
BRANCH   1   2
ATOM      2  C   UNL     1       3.553   4.087  18.970  0.00  0.00    +0.000 A 
ATOM      3  C   UNL     1       2.610   3.117  18.596  0.00  0.00    +0.000 A 
ATOM      4  C   UNL     1       1.357   3.079  19.207  0.00  0.00    +0.000 A 
ATOM      5  C   UNL     1       1.030   4.008  20.195  0.00  0.00    +0.000 A 
ATOM      6  C   UNL     1       1.957   4.974  20.578  0.00  0.00    +0.000 A 
ATOM      7  C   UNL     1       3.212   5.010  19.975  0.00  0.00    +0.000 A 
ENDBRANCH   1   2
BRANCH   1   8
ATOM      8  C   UNL     1       4.768   4.910  16.953  0.00  0.00    +0.000 C 
ATOM      9  O   UNL     1       4.216   5.998  16.823  0.00  0.00    +0.000 OA
BRANCH   8  10
ATOM     10  O   UNL     1       5.182   4.108  15.924  0.00  0.00    +0.000 OA
BRANCH  10  12
ATOM     11  C   UNL     1       6.012   3.828  13.701  0.00  0.00    +0.000 C 
ATOM     12  C   UNL     1       5.943   4.759  14.899  0.00  0.00    +0.000 C 
ENDBRANCH  10  12
ENDBRANCH   8  10
ENDBRANCH   1   8
BRANCH   1  13
ATOM     13  N   UNL     1       5.969   4.754  19.131  0.00  0.00    +0.000 NA
ATOM     14  H   UNL     1       6.102   4.169  19.957  0.00  0.00    +0.000 HD
BRANCH  13  15
ATOM     15  C   UNL     1       7.224   4.933  18.404  0.00  0.00    +0.000 C 
BRANCH  15  16
ATOM     16  C   UNL     1       7.846   6.294  18.716  0.00  0.00    +0.000 C 
BRANCH  16  17
ATOM     17  C   UNL     1       7.503   7.282  17.607  0.00  0.00    +0.000 C 
ATOM     18 CL   UNL     1       8.164   8.891  17.968  0.00  0.00    +0.000 Cl
ENDBRANCH  16  17
ENDBRANCH  15  16
ENDBRANCH  13  15
ENDBRANCH   1  13
TORSDOF 8
ENDMDL
MODEL 5
REMARK VINA RESULT:      -6.1      1.148      1.455
REMARK  Name = 
REMARK  9 active torsions:
REMARK  status: ('A' for Active; 'I' for Inactive)
REMARK    1  A    between atoms: C_1  and  C_2
REMARK    2  A    between atoms: C_2  and  O_3
REMARK    3  A    between atoms: O_3  and  C_4
REMARK    4  A    between atoms: C_4  and  C_6
REMARK    5  A    between atoms: C_6  and  N_7
REMARK    6  A    between atoms: C_6  and  C_12
REMARK    7  A    between atoms: N_7  and  C_8
REMARK    8  A    between atoms: C_8  and  C_9
REMARK    9  A    between atoms: C_9  and  C_10
REMARK                            x       y       z     vdW  Elec       q    Type
REMARK                         _______ _______ _______ _____ _____    ______ ____
ROOT
ATOM      1  C   UNL     1       5.951   4.950  16.385  0.00  0.00    +0.000 C 
ENDROOT
BRANCH   1   2
ATOM      2  C   UNL     1       4.610   5.190  17.073  0.00  0.00    +0.000 A 
ATOM      3  C   UNL     1       3.723   4.122  17.280  0.00  0.00    +0.000 A 
ATOM      4  C   UNL     1       2.489   4.338  17.893  0.00  0.00    +0.000 A 
ATOM      5  C   UNL     1       2.125   5.621  18.303  0.00  0.00    +0.000 A 
ATOM      6  C   UNL     1       2.997   6.689  18.107  0.00  0.00    +0.000 A 
ATOM      7  C   UNL     1       4.233   6.475  17.502  0.00  0.00    +0.000 A 
ENDBRANCH   1   2
BRANCH   1   8
ATOM      8  C   UNL     1       7.075   5.094  17.437  0.00  0.00    +0.000 C 
ATOM      9  O   UNL     1       7.210   4.388  18.432  0.00  0.00    +0.000 OA
BRANCH   8  10
ATOM     10  O   UNL     1       7.779   6.240  17.182  0.00  0.00    +0.000 OA
BRANCH  10  12
ATOM     11  C   UNL     1       7.930   8.555  17.752  0.00  0.00    +0.000 C 
ATOM     12  C   UNL     1       7.929   7.135  18.291  0.00  0.00    +0.000 C 
ENDBRANCH  10  12
ENDBRANCH   8  10
ENDBRANCH   1   8
BRANCH   1  13
ATOM     13  N   UNL     1       6.031   3.626  15.715  0.00  0.00    +0.000 NA
ATOM     14  H   UNL     1       5.397   2.984  16.193  0.00  0.00    +0.000 HD
BRANCH  13  15
ATOM     15  C   UNL     1       5.721   3.710  14.289  0.00  0.00    +0.000 C 
BRANCH  15  16
ATOM     16  C   UNL     1       6.862   4.377  13.521  0.00  0.00    +0.000 C 
BRANCH  16  17
ATOM     17  C   UNL     1       6.890   3.857  12.089  0.00  0.00    +0.000 C 
ATOM     18 CL   UNL     1       5.584   2.684  11.818  0.00  0.00    +0.000 Cl
ENDBRANCH  16  17
ENDBRANCH  15  16
ENDBRANCH  13  15
ENDBRANCH   1  13
TORSDOF 8
ENDMDL
MODEL 6
REMARK VINA RESULT:      -6.1      1.573      2.009
REMARK  Name = 
REMARK  9 active torsions:
REMARK  status: ('A' for Active; 'I' for Inactive)
REMARK    1  A    between atoms: C_1  and  C_2
REMARK    2  A    between atoms: C_2  and  O_3
REMARK    3  A    between atoms: O_3  and  C_4
REMARK    4  A    between atoms: C_4  and  C_6
REMARK    5  A    between atoms: C_6  and  N_7
REMARK    6  A    between atoms: C_6  and  C_12
REMARK    7  A    between atoms: N_7  and  C_8
REMARK    8  A    between atoms: C_8  and  C_9
REMARK    9  A    between atoms: C_9  and  C_10
REMARK                            x       y       z     vdW  Elec       q    Type
REMARK                         _______ _______ _______ _____ _____    ______ ____
ROOT
ATOM      1  C   UNL     1       4.198   5.187  18.302  0.00  0.00    +0.000 C 
ENDROOT
BRANCH   1   2
ATOM      2  C   UNL     1       2.965   4.545  18.930  0.00  0.00    +0.000 A 
ATOM      3  C   UNL     1       2.211   3.608  18.206  0.00  0.00    +0.000 A 
ATOM      4  C   UNL     1       1.073   3.031  18.769  0.00  0.00    +0.000 A 
ATOM      5  C   UNL     1       0.673   3.384  20.059  0.00  0.00    +0.000 A 
ATOM      6  C   UNL     1       1.414   4.309  20.789  0.00  0.00    +0.000 A 
ATOM      7  C   UNL     1       2.554   4.881  20.233  0.00  0.00    +0.000 A 
ENDBRANCH   1   2
BRANCH   1   8
ATOM      8  C   UNL     1       5.455   4.638  19.016  0.00  0.00    +0.000 C 
ATOM      9  O   UNL     1       5.707   3.450  19.194  0.00  0.00    +0.000 OA
BRANCH   8  10
ATOM     10  O   UNL     1       6.142   5.681  19.575  0.00  0.00    +0.000 OA
BRANCH  10  12
ATOM     11  C   UNL     1       7.909   6.843  18.463  0.00  0.00    +0.000 C 
ATOM     12  C   UNL     1       7.559   5.673  19.367  0.00  0.00    +0.000 C 
ENDBRANCH  10  12
ENDBRANCH   8  10
ENDBRANCH   1   8
BRANCH   1  13
ATOM     13  N   UNL     1       4.289   4.957  16.836  0.00  0.00    +0.000 NA
ATOM     14  H   UNL     1       3.490   5.408  16.389  0.00  0.00    +0.000 HD
BRANCH  13  15
ATOM     15  C   UNL     1       5.550   5.444  16.280  0.00  0.00    +0.000 C 
BRANCH  15  16
ATOM     16  C   UNL     1       5.592   5.242  14.766  0.00  0.00    +0.000 C 
BRANCH  16  17
ATOM     17  C   UNL     1       6.226   3.893  14.445  0.00  0.00    +0.000 C 
ATOM     18 CL   UNL     1       6.117   3.542  12.707  0.00  0.00    +0.000 Cl
ENDBRANCH  16  17
ENDBRANCH  15  16
ENDBRANCH  13  15
ENDBRANCH   1  13
TORSDOF 8
ENDMDL
MODEL 7
REMARK VINA RESULT:      -6.1      4.037      4.604
REMARK  Name = 
REMARK  9 active torsions:
REMARK  status: ('A' for Active; 'I' for Inactive)
REMARK    1  A    between atoms: C_1  and  C_2
REMARK    2  A    between atoms: C_2  and  O_3
REMARK    3  A    between atoms: O_3  and  C_4
REMARK    4  A    between atoms: C_4  and  C_6
REMARK    5  A    between atoms: C_6  and  N_7
REMARK    6  A    between atoms: C_6  and  C_12
REMARK    7  A    between atoms: N_7  and  C_8
REMARK    8  A    between atoms: C_8  and  C_9
REMARK    9  A    between atoms: C_9  and  C_10
REMARK                            x       y       z     vdW  Elec       q    Type
REMARK                         _______ _______ _______ _____ _____    ______ ____
ROOT
ATOM      1  C   UNL     1       4.005   5.531  18.955  0.00  0.00    +0.000 C 
ENDROOT
BRANCH   1   2
ATOM      2  C   UNL     1       2.850   4.587  19.277  0.00  0.00    +0.000 A 
ATOM      3  C   UNL     1       2.232   3.855  18.252  0.00  0.00    +0.000 A 
ATOM      4  C   UNL     1       1.164   3.003  18.537  0.00  0.00    +0.000 A 
ATOM      5  C   UNL     1       0.700   2.876  19.847  0.00  0.00    +0.000 A 
ATOM      6  C   UNL     1       1.307   3.594  20.874  0.00  0.00    +0.000 A 
ATOM      7  C   UNL     1       2.378   4.439  20.593  0.00  0.00    +0.000 A 
ENDBRANCH   1   2
BRANCH   1   8
ATOM      8  C   UNL     1       5.335   4.775  19.181  0.00  0.00    +0.000 C 
ATOM      9  O   UNL     1       5.440   3.567  19.371  0.00  0.00    +0.000 OA
BRANCH   8  10
ATOM     10  O   UNL     1       6.347   5.685  19.319  0.00  0.00    +0.000 OA
BRANCH  10  12
ATOM     11  C   UNL     1       7.654   7.067  17.872  0.00  0.00    +0.000 C 
ATOM     12  C   UNL     1       7.362   5.641  18.309  0.00  0.00    +0.000 C 
ENDBRANCH  10  12
ENDBRANCH   8  10
ENDBRANCH   1   8
BRANCH   1  13
ATOM     13  N   UNL     1       3.943   6.074  17.573  0.00  0.00    +0.000 NA
ATOM     14  H   UNL     1       3.218   5.570  17.061  0.00  0.00    +0.000 HD
BRANCH  13  15
ATOM     15  C   UNL     1       3.694   7.514  17.558  0.00  0.00    +0.000 C 
BRANCH  15  16
ATOM     16  C   UNL     1       2.311   7.836  18.123  0.00  0.00    +0.000 C 
BRANCH  16  17
ATOM     17  C   UNL     1       1.959   9.288  17.823  0.00  0.00    +0.000 C 
ATOM     18 CL   UNL     1       0.732   9.887  18.959  0.00  0.00    +0.000 Cl
ENDBRANCH  16  17
ENDBRANCH  15  16
ENDBRANCH  13  15
ENDBRANCH   1  13
TORSDOF 8
ENDMDL
MODEL 8
REMARK VINA RESULT:      -6.0      3.094      4.481
REMARK  Name = 
REMARK  9 active torsions:
REMARK  status: ('A' for Active; 'I' for Inactive)
REMARK    1  A    between atoms: C_1  and  C_2
REMARK    2  A    between atoms: C_2  and  O_3
REMARK    3  A    between atoms: O_3  and  C_4
REMARK    4  A    between atoms: C_4  and  C_6
REMARK    5  A    between atoms: C_6  and  N_7
REMARK    6  A    between atoms: C_6  and  C_12
REMARK    7  A    between atoms: N_7  and  C_8
REMARK    8  A    between atoms: C_8  and  C_9
REMARK    9  A    between atoms: C_9  and  C_10
REMARK                            x       y       z     vdW  Elec       q    Type
REMARK                         _______ _______ _______ _____ _____    ______ ____
ROOT
ATOM      1  C   UNL     1       4.906   4.628  18.166  0.00  0.00    +0.000 C 
ENDROOT
BRANCH   1   2
ATOM      2  C   UNL     1       3.941   5.781  18.428  0.00  0.00    +0.000 A 
ATOM      3  C   UNL     1       3.834   6.834  17.508  0.00  0.00    +0.000 A 
ATOM      4  C   UNL     1       2.966   7.899  17.751  0.00  0.00    +0.000 A 
ATOM      5  C   UNL     1       2.199   7.925  18.915  0.00  0.00    +0.000 A 
ATOM      6  C   UNL     1       2.292   6.885  19.835  0.00  0.00    +0.000 A 
ATOM      7  C   UNL     1       3.152   5.817  19.592  0.00  0.00    +0.000 A 
ENDBRANCH   1   2
BRANCH   1   8
ATOM      8  C   UNL     1       6.321   5.061  18.613  0.00  0.00    +0.000 C 
ATOM      9  O   UNL     1       6.680   5.217  19.776  0.00  0.00    +0.000 OA
BRANCH   8  10
ATOM     10  O   UNL     1       7.048   5.418  17.510  0.00  0.00    +0.000 OA
BRANCH  10  12
ATOM     11  C   UNL     1       6.915   5.032  15.156  0.00  0.00    +0.000 C 
ATOM     12  C   UNL     1       7.196   4.403  16.510  0.00  0.00    +0.000 C 
ENDBRANCH  10  12
ENDBRANCH   8  10
ENDBRANCH   1   8
BRANCH   1  13
ATOM     13  N   UNL     1       4.506   3.370  18.848  0.00  0.00    +0.000 NA
ATOM     14  H   UNL     1       3.888   3.607  19.626  0.00  0.00    +0.000 HD
BRANCH  13  15
ATOM     15  C   UNL     1       3.866   2.426  17.934  0.00  0.00    +0.000 C 
BRANCH  15  16
ATOM     16  C   UNL     1       2.358   2.665  17.872  0.00  0.00    +0.000 C 
BRANCH  16  17
ATOM     17  C   UNL     1       1.689   2.046  19.094  0.00  0.00    +0.000 C 
ATOM     18 CL   UNL     1       0.802   3.277  20.019  0.00  0.00    +0.000 Cl
ENDBRANCH  16  17
ENDBRANCH  15  16
ENDBRANCH  13  15
ENDBRANCH   1  13
TORSDOF 8
ENDMDL
MODEL 9
REMARK VINA RESULT:      -6.0      2.382      4.932
REMARK  Name = 
REMARK  9 active torsions:
REMARK  status: ('A' for Active; 'I' for Inactive)
REMARK    1  A    between atoms: C_1  and  C_2
REMARK    2  A    between atoms: C_2  and  O_3
REMARK    3  A    between atoms: O_3  and  C_4
REMARK    4  A    between atoms: C_4  and  C_6
REMARK    5  A    between atoms: C_6  and  N_7
REMARK    6  A    between atoms: C_6  and  C_12
REMARK    7  A    between atoms: N_7  and  C_8
REMARK    8  A    between atoms: C_8  and  C_9
REMARK    9  A    between atoms: C_9  and  C_10
REMARK                            x       y       z     vdW  Elec       q    Type
REMARK                         _______ _______ _______ _____ _____    ______ ____
ROOT
ATOM      1  C   UNL     1       6.026   4.673  15.999  0.00  0.00    +0.000 C 
ENDROOT
BRANCH   1   2
ATOM      2  C   UNL     1       6.367   4.495  14.523  0.00  0.00    +0.000 A 
ATOM      3  C   UNL     1       5.620   3.611  13.729  0.00  0.00    +0.000 A 
ATOM      4  C   UNL     1       5.939   3.432  12.382  0.00  0.00    +0.000 A 
ATOM      5  C   UNL     1       7.006   4.128  11.815  0.00  0.00    +0.000 A 
ATOM      6  C   UNL     1       7.753   5.011  12.591  0.00  0.00    +0.000 A 
ATOM      7  C   UNL     1       7.433   5.198  13.933  0.00  0.00    +0.000 A 
ENDBRANCH   1   2
BRANCH   1   8
ATOM      8  C   UNL     1       7.295   5.152  16.742  0.00  0.00    +0.000 C 
ATOM      9  O   UNL     1       8.113   4.420  17.292  0.00  0.00    +0.000 OA
BRANCH   8  10
ATOM     10  O   UNL     1       7.261   6.516  16.849  0.00  0.00    +0.000 OA
BRANCH  10  12
ATOM     11  C   UNL     1       8.082   8.519  17.859  0.00  0.00    +0.000 C 
ATOM     12  C   UNL     1       7.751   7.054  18.083  0.00  0.00    +0.000 C 
ENDBRANCH  10  12
ENDBRANCH   8  10
ENDBRANCH   1   8
BRANCH   1  13
ATOM     13  N   UNL     1       4.902   5.620  16.225  0.00  0.00    +0.000 NA
ATOM     14  H   UNL     1       4.447   5.799  15.329  0.00  0.00    +0.000 HD
BRANCH  13  15
ATOM     15  C   UNL     1       3.947   5.116  17.211  0.00  0.00    +0.000 C 
BRANCH  15  16
ATOM     16  C   UNL     1       3.913   3.588  17.207  0.00  0.00    +0.000 C 
BRANCH  16  17
ATOM     17  C   UNL     1       2.805   3.097  18.131  0.00  0.00    +0.000 C 
ATOM     18 CL   UNL     1       1.337   4.077  17.932  0.00  0.00    +0.000 Cl
ENDBRANCH  16  17
ENDBRANCH  15  16
ENDBRANCH  13  15
ENDBRANCH   1  13
TORSDOF 8
ENDMDL
