MODEL 1
REMARK VINA RESULT:      -9.9      0.000      0.000
REMARK  Name = 
REMARK  5 active torsions:
REMARK  status: ('A' for Active; 'I' for Inactive)
REMARK    1  A    between atoms: C_1  and  N_2
REMARK    2  A    between atoms: C_7  and  N_8
REMARK    3  A    between atoms: N_11  and  C_12
REMARK    4  A    between atoms: C_14  and  C_15
REMARK    5  A    between atoms: C_14  and  C_16
REMARK                            x       y       z     vdW  Elec       q    Type
REMARK                         _______ _______ _______ _____ _____    ______ ____
ROOT
ATOM      1  N   UNL     1       7.804   8.919  17.649  0.00  0.00    +0.000 N 
ATOM      2  C   UNL     1       7.802   7.611  18.130  0.00  0.00    +0.000 C 
ATOM      3  O   UNL     1       8.500   7.170  19.031  0.00  0.00    +0.000 OA
ATOM      4  N   UNL     1       6.934   6.802  17.450  0.00  0.00    +0.000 N 
ATOM      5  H   UNL     1       7.383   9.088  16.745  0.00  0.00    +0.000 HD
ATOM      6  H   UNL     1       6.729   7.154  16.527  0.00  0.00    +0.000 HD
ENDROOT
BRANCH   1  13
ATOM      7  C   UNL     1      11.858  15.452  19.500  0.00  0.00    +0.000 C 
ATOM      8  N   UNL     1      11.003  14.373  19.041  0.00  0.00    +0.000 N 
ATOM      9  C   UNL     1      11.105  13.105  19.733  0.00  0.00    +0.000 C 
ATOM     10  C   UNL     1      10.173  12.048  19.238  0.00  0.00    +0.000 A 
ATOM     11  C   UNL     1      10.062  10.835  19.916  0.00  0.00    +0.000 A 
ATOM     12  C   UNL     1       9.260   9.817  19.405  0.00  0.00    +0.000 A 
ATOM     13  C   UNL     1       8.567   9.983  18.203  0.00  0.00    +0.000 A 
ATOM     14  C   UNL     1       8.630  11.225  17.547  0.00  0.00    +0.000 A 
ATOM     15  C   UNL     1       9.450  12.245  18.066  0.00  0.00    +0.000 A 
ATOM     16  N   UNL     1       9.581  13.475  17.410  0.00  0.00    +0.000 N 
ATOM     17  C   UNL     1      10.327  14.529  17.853  0.00  0.00    +0.000 C 
ATOM     18  O   UNL     1      10.363  15.563  17.189  0.00  0.00    +0.000 OA
ATOM     19  H   UNL     1       9.093  13.644  16.542  0.00  0.00    +0.000 HD
ENDBRANCH   1  13
BRANCH   4  20
ATOM     20  C   UNL     1       6.915   5.331  17.562  0.00  0.00    +0.000 C 
ATOM     21  C   UNL     1       7.298   4.783  16.194  0.00  0.00    +0.000 C 
ATOM     22  C   UNL     1       6.085   4.879  15.245  0.00  0.00    +0.000 C 
ATOM     23  C   UNL     1       5.310   6.214  15.169  0.00  0.00    +0.000 C 
ATOM     24  C   UNL     1       6.587   4.576  13.830  0.00  0.00    +0.000 C 
ATOM     25  O   UNL     1       5.151   3.865  15.646  0.00  0.00    +0.000 OA
ATOM     26  C   UNL     1       4.874   3.878  16.999  0.00  0.00    +0.000 A 
ATOM     27  C   UNL     1       3.828   3.036  17.378  0.00  0.00    +0.000 A 
ATOM     28  C   UNL     1       3.508   2.914  18.722  0.00  0.00    +0.000 A 
ATOM     29  F   UNL     1       2.541   2.066  19.096  0.00  0.00    +0.000 F 
ATOM     30  C   UNL     1       4.199   3.644  19.683  0.00  0.00    +0.000 A 
ATOM     31  C   UNL     1       5.246   4.492  19.304  0.00  0.00    +0.000 A 
ATOM     32  C   UNL     1       5.620   4.614  17.955  0.00  0.00    +0.000 A 
ENDBRANCH   4  20
TORSDOF 2
ENDMDL
MODEL 2
REMARK VINA RESULT:      -9.5      6.192      7.236
REMARK  Name = 
REMARK  5 active torsions:
REMARK  status: ('A' for Active; 'I' for Inactive)
REMARK    1  A    between atoms: C_1  and  N_2
REMARK    2  A    between atoms: C_7  and  N_8
REMARK    3  A    between atoms: N_11  and  C_12
REMARK    4  A    between atoms: C_14  and  C_15
REMARK    5  A    between atoms: C_14  and  C_16
REMARK                            x       y       z     vdW  Elec       q    Type
REMARK                         _______ _______ _______ _____ _____    ______ ____
ROOT
ATOM      1  N   UNL     1       1.153   9.453  19.168  0.00  0.00    +0.000 N 
ATOM      2  C   UNL     1       1.928   8.739  18.256  0.00  0.00    +0.000 C 
ATOM      3  O   UNL     1       2.321   9.138  17.170  0.00  0.00    +0.000 OA
ATOM      4  N   UNL     1       2.197   7.466  18.680  0.00  0.00    +0.000 N 
ATOM      5  H   UNL     1       0.680   8.932  19.894  0.00  0.00    +0.000 HD
ATOM      6  H   UNL     1       1.524   7.139  19.355  0.00  0.00    +0.000 HD
ENDROOT
BRANCH   1  13
ATOM      7  C   UNL     1       0.358  17.299  18.575  0.00  0.00    +0.000 C 
ATOM      8  N   UNL     1       0.693  15.888  18.617  0.00  0.00    +0.000 N 
ATOM      9  C   UNL     1      -0.393  14.954  18.829  0.00  0.00    +0.000 C 
ATOM     10  C   UNL     1       0.010  13.516  18.825  0.00  0.00    +0.000 A 
ATOM     11  C   UNL     1      -0.957  12.513  18.862  0.00  0.00    +0.000 A 
ATOM     12  C   UNL     1      -0.578  11.176  18.948  0.00  0.00    +0.000 A 
ATOM     13  C   UNL     1       0.770  10.814  19.012  0.00  0.00    +0.000 A 
ATOM     14  C   UNL     1       1.750  11.818  18.915  0.00  0.00    +0.000 A 
ATOM     15  C   UNL     1       1.358  13.168  18.838  0.00  0.00    +0.000 A 
ATOM     16  N   UNL     1       2.305  14.197  18.796  0.00  0.00    +0.000 N 
ATOM     17  C   UNL     1       2.019  15.528  18.692  0.00  0.00    +0.000 C 
ATOM     18  O   UNL     1       2.940  16.342  18.661  0.00  0.00    +0.000 OA
ATOM     19  H   UNL     1       3.292  13.984  18.832  0.00  0.00    +0.000 HD
ENDBRANCH   1  13
BRANCH   4  20
ATOM     20  C   UNL     1       2.761   6.411  17.817  0.00  0.00    +0.000 C 
ATOM     21  C   UNL     1       1.903   5.170  18.025  0.00  0.00    +0.000 C 
ATOM     22  C   UNL     1       2.288   4.498  19.360  0.00  0.00    +0.000 C 
ATOM     23  C   UNL     1       2.401   5.379  20.625  0.00  0.00    +0.000 C 
ATOM     24  C   UNL     1       1.231   3.430  19.655  0.00  0.00    +0.000 C 
ATOM     25  O   UNL     1       3.562   3.867  19.165  0.00  0.00    +0.000 OA
ATOM     26  C   UNL     1       4.508   4.700  18.602  0.00  0.00    +0.000 A 
ATOM     27  C   UNL     1       5.800   4.173  18.585  0.00  0.00    +0.000 A 
ATOM     28  C   UNL     1       6.819   4.893  17.980  0.00  0.00    +0.000 A 
ATOM     29  F   UNL     1       8.049   4.367  17.912  0.00  0.00    +0.000 F 
ATOM     30  C   UNL     1       6.568   6.142  17.422  0.00  0.00    +0.000 A 
ATOM     31  C   UNL     1       5.274   6.675  17.443  0.00  0.00    +0.000 A 
ATOM     32  C   UNL     1       4.211   5.957  18.017  0.00  0.00    +0.000 A 
ENDBRANCH   4  20
TORSDOF 2
ENDMDL
MODEL 3
REMARK VINA RESULT:      -9.5      6.927      8.157
REMARK  Name = 
REMARK  5 active torsions:
REMARK  status: ('A' for Active; 'I' for Inactive)
REMARK    1  A    between atoms: C_1  and  N_2
REMARK    2  A    between atoms: C_7  and  N_8
REMARK    3  A    between atoms: N_11  and  C_12
REMARK    4  A    between atoms: C_14  and  C_15
REMARK    5  A    between atoms: C_14  and  C_16
REMARK                            x       y       z     vdW  Elec       q    Type
REMARK                         _______ _______ _______ _____ _____    ______ ____
ROOT
ATOM      1  N   UNL     1       1.432   8.303  21.003  0.00  0.00    +0.000 N 
ATOM      2  C   UNL     1       1.755   8.112  19.661  0.00  0.00    +0.000 C 
ATOM      3  O   UNL     1       1.383   8.798  18.721  0.00  0.00    +0.000 OA
ATOM      4  N   UNL     1       2.538   7.007  19.462  0.00  0.00    +0.000 N 
ATOM      5  H   UNL     1       1.580   7.530  21.638  0.00  0.00    +0.000 HD
ATOM      6  H   UNL     1       2.447   6.336  20.209  0.00  0.00    +0.000 HD
ENDROOT
BRANCH   1  13
ATOM      7  C   UNL     1      -1.898  15.185  23.027  0.00  0.00    +0.000 C 
ATOM      8  N   UNL     1      -1.244  14.011  22.479  0.00  0.00    +0.000 N 
ATOM      9  C   UNL     1      -1.385  12.770  23.211  0.00  0.00    +0.000 C 
ATOM     10  C   UNL     1      -0.721  11.592  22.577  0.00  0.00    +0.000 A 
ATOM     11  C   UNL     1      -0.911  10.313  23.097  0.00  0.00    +0.000 A 
ATOM     12  C   UNL     1      -0.222   9.228  22.559  0.00  0.00    +0.000 A 
ATOM     13  C   UNL     1       0.679   9.400  21.505  0.00  0.00    +0.000 A 
ATOM     14  C   UNL     1       0.829  10.678  20.939  0.00  0.00    +0.000 A 
ATOM     15  C   UNL     1       0.136  11.771  21.495  0.00  0.00    +0.000 A 
ATOM     16  N   UNL     1       0.302  13.067  20.994  0.00  0.00    +0.000 N 
ATOM     17  C   UNL     1      -0.348  14.178  21.448  0.00  0.00    +0.000 C 
ATOM     18  O   UNL     1      -0.120  15.267  20.924  0.00  0.00    +0.000 OA
ATOM     19  H   UNL     1       0.937  13.239  20.227  0.00  0.00    +0.000 HD
ENDBRANCH   1  13
BRANCH   4  20
ATOM     20  C   UNL     1       2.810   6.415  18.139  0.00  0.00    +0.000 C 
ATOM     21  C   UNL     1       1.861   5.233  17.984  0.00  0.00    +0.000 C 
ATOM     22  C   UNL     1       2.397   4.037  18.799  0.00  0.00    +0.000 C 
ATOM     23  C   UNL     1       2.837   4.277  20.261  0.00  0.00    +0.000 C 
ATOM     24  C   UNL     1       1.291   2.978  18.835  0.00  0.00    +0.000 C 
ATOM     25  O   UNL     1       3.532   3.517  18.091  0.00  0.00    +0.000 OA
ATOM     26  C   UNL     1       4.454   4.483  17.743  0.00  0.00    +0.000 A 
ATOM     27  C   UNL     1       5.650   3.979  17.232  0.00  0.00    +0.000 A 
ATOM     28  C   UNL     1       6.622   4.860  16.784  0.00  0.00    +0.000 A 
ATOM     29  F   UNL     1       7.750   4.380  16.242  0.00  0.00    +0.000 F 
ATOM     30  C   UNL     1       6.426   6.234  16.868  0.00  0.00    +0.000 A 
ATOM     31  C   UNL     1       5.228   6.743  17.385  0.00  0.00    +0.000 A 
ATOM     32  C   UNL     1       4.207   5.878  17.817  0.00  0.00    +0.000 A 
ENDBRANCH   4  20
TORSDOF 2
ENDMDL
MODEL 4
REMARK VINA RESULT:      -9.3      7.620      8.997
REMARK  Name = 
REMARK  5 active torsions:
REMARK  status: ('A' for Active; 'I' for Inactive)
REMARK    1  A    between atoms: C_1  and  N_2
REMARK    2  A    between atoms: C_7  and  N_8
REMARK    3  A    between atoms: N_11  and  C_12
REMARK    4  A    between atoms: C_14  and  C_15
REMARK    5  A    between atoms: C_14  and  C_16
REMARK                            x       y       z     vdW  Elec       q    Type
REMARK                         _______ _______ _______ _____ _____    ______ ____
ROOT
ATOM      1  N   UNL     1       1.303   8.806  20.868  0.00  0.00    +0.000 N 
ATOM      2  C   UNL     1       1.649   8.483  19.557  0.00  0.00    +0.000 C 
ATOM      3  O   UNL     1       1.377   9.128  18.556  0.00  0.00    +0.000 OA
ATOM      4  N   UNL     1       2.323   7.295  19.470  0.00  0.00    +0.000 N 
ATOM      5  H   UNL     1       1.353   8.073  21.563  0.00  0.00    +0.000 HD
ATOM      6  H   UNL     1       2.141   6.695  20.260  0.00  0.00    +0.000 HD
ENDROOT
BRANCH   1  13
ATOM      7  C   UNL     1      -3.331  14.639  23.524  0.00  0.00    +0.000 C 
ATOM      8  N   UNL     1      -2.556  13.459  23.189  0.00  0.00    +0.000 N 
ATOM      9  C   UNL     1      -1.504  13.612  22.205  0.00  0.00    +0.000 C 
ATOM     10  C   UNL     1      -0.720  12.371  21.932  0.00  0.00    +0.000 A 
ATOM     11  C   UNL     1       0.416  12.420  21.125  0.00  0.00    +0.000 A 
ATOM     12  C   UNL     1       1.095  11.249  20.799  0.00  0.00    +0.000 A 
ATOM     13  C   UNL     1       0.648  10.007  21.258  0.00  0.00    +0.000 A 
ATOM     14  C   UNL     1      -0.462   9.959  22.120  0.00  0.00    +0.000 A 
ATOM     15  C   UNL     1      -1.148  11.147  22.437  0.00  0.00    +0.000 A 
ATOM     16  N   UNL     1      -2.289  11.132  23.247  0.00  0.00    +0.000 N 
ATOM     17  C   UNL     1      -2.999  12.233  23.630  0.00  0.00    +0.000 C 
ATOM     18  O   UNL     1      -3.988  12.094  24.348  0.00  0.00    +0.000 OA
ATOM     19  H   UNL     1      -2.646  10.258  23.608  0.00  0.00    +0.000 HD
ENDBRANCH   1  13
BRANCH   4  20
ATOM     20  C   UNL     1       2.577   6.581  18.205  0.00  0.00    +0.000 C 
ATOM     21  C   UNL     1       1.646   5.376  18.188  0.00  0.00    +0.000 C 
ATOM     22  C   UNL     1       2.218   4.273  19.103  0.00  0.00    +0.000 C 
ATOM     23  C   UNL     1       2.686   4.661  20.525  0.00  0.00    +0.000 C 
ATOM     24  C   UNL     1       1.132   3.206  19.268  0.00  0.00    +0.000 C 
ATOM     25  O   UNL     1       3.347   3.702  18.424  0.00  0.00    +0.000 OA
ATOM     26  C   UNL     1       4.245   4.644  17.963  0.00  0.00    +0.000 A 
ATOM     27  C   UNL     1       5.439   4.110  17.476  0.00  0.00    +0.000 A 
ATOM     28  C   UNL     1       6.386   4.957  16.922  0.00  0.00    +0.000 A 
ATOM     29  F   UNL     1       7.509   4.443  16.404  0.00  0.00    +0.000 F 
ATOM     30  C   UNL     1       6.167   6.330  16.876  0.00  0.00    +0.000 A 
ATOM     31  C   UNL     1       4.973   6.869  17.368  0.00  0.00    +0.000 A 
ATOM     32  C   UNL     1       3.976   6.035  17.905  0.00  0.00    +0.000 A 
ENDBRANCH   4  20
TORSDOF 2
ENDMDL
MODEL 5
REMARK VINA RESULT:      -9.2      6.684      7.723
REMARK  Name = 
REMARK  5 active torsions:
REMARK  status: ('A' for Active; 'I' for Inactive)
REMARK    1  A    between atoms: C_1  and  N_2
REMARK    2  A    between atoms: C_7  and  N_8
REMARK    3  A    between atoms: N_11  and  C_12
REMARK    4  A    between atoms: C_14  and  C_15
REMARK    5  A    between atoms: C_14  and  C_16
REMARK                            x       y       z     vdW  Elec       q    Type
REMARK                         _______ _______ _______ _____ _____    ______ ____
ROOT
ATOM      1  N   UNL     1       1.185   9.113  19.722  0.00  0.00    +0.000 N 
ATOM      2  C   UNL     1       1.830   8.570  18.613  0.00  0.00    +0.000 C 
ATOM      3  O   UNL     1       1.878   9.055  17.492  0.00  0.00    +0.000 OA
ATOM      4  N   UNL     1       2.407   7.359  18.883  0.00  0.00    +0.000 N 
ATOM      5  H   UNL     1       0.995   8.501  20.504  0.00  0.00    +0.000 HD
ATOM      6  H   UNL     1       1.981   6.902  19.674  0.00  0.00    +0.000 HD
ENDROOT
BRANCH   1  13
ATOM      7  C   UNL     1      -1.155  16.639  20.377  0.00  0.00    +0.000 C 
ATOM      8  N   UNL     1      -0.540  15.334  20.228  0.00  0.00    +0.000 N 
ATOM      9  C   UNL     1      -1.424  14.195  20.094  0.00  0.00    +0.000 C 
ATOM     10  C   UNL     1      -0.731  12.885  19.906  0.00  0.00    +0.000 A 
ATOM     11  C   UNL     1      -1.464  11.737  19.610  0.00  0.00    +0.000 A 
ATOM     12  C   UNL     1      -0.827  10.502  19.523  0.00  0.00    +0.000 A 
ATOM     13  C   UNL     1       0.548  10.385  19.744  0.00  0.00    +0.000 A 
ATOM     14  C   UNL     1       1.300  11.549  19.984  0.00  0.00    +0.000 A 
ATOM     15  C   UNL     1       0.646  12.792  20.080  0.00  0.00    +0.000 A 
ATOM     16  N   UNL     1       1.354  13.963  20.373  0.00  0.00    +0.000 N 
ATOM     17  C   UNL     1       0.811  15.213  20.455  0.00  0.00    +0.000 C 
ATOM     18  O   UNL     1       1.538  16.170  20.718  0.00  0.00    +0.000 OA
ATOM     19  H   UNL     1       2.351  13.930  20.533  0.00  0.00    +0.000 HD
ENDBRANCH   1  13
BRANCH   4  20
ATOM     20  C   UNL     1       2.921   6.441  17.850  0.00  0.00    +0.000 C 
ATOM     21  C   UNL     1       2.032   5.205  17.881  0.00  0.00    +0.000 C 
ATOM     22  C   UNL     1       2.427   4.320  19.081  0.00  0.00    +0.000 C 
ATOM     23  C   UNL     1       2.593   4.984  20.467  0.00  0.00    +0.000 C 
ATOM     24  C   UNL     1       1.346   3.244  19.231  0.00  0.00    +0.000 C 
ATOM     25  O   UNL     1       3.678   3.696  18.755  0.00  0.00    +0.000 OA
ATOM     26  C   UNL     1       4.635   4.584  18.307  0.00  0.00    +0.000 A 
ATOM     27  C   UNL     1       5.910   4.034  18.172  0.00  0.00    +0.000 A 
ATOM     28  C   UNL     1       6.936   4.816  17.662  0.00  0.00    +0.000 A 
ATOM     29  F   UNL     1       8.149   4.277  17.479  0.00  0.00    +0.000 F 
ATOM     30  C   UNL     1       6.709   6.143  17.316  0.00  0.00    +0.000 A 
ATOM     31  C   UNL     1       5.432   6.699  17.456  0.00  0.00    +0.000 A 
ATOM     32  C   UNL     1       4.361   5.925  17.936  0.00  0.00    +0.000 A 
ENDBRANCH   4  20
TORSDOF 2
ENDMDL
MODEL 6
REMARK VINA RESULT:      -9.0      6.226      8.443
REMARK  Name = 
REMARK  5 active torsions:
REMARK  status: ('A' for Active; 'I' for Inactive)
REMARK    1  A    between atoms: C_1  and  N_2
REMARK    2  A    between atoms: C_7  and  N_8
REMARK    3  A    between atoms: N_11  and  C_12
REMARK    4  A    between atoms: C_14  and  C_15
REMARK    5  A    between atoms: C_14  and  C_16
REMARK                            x       y       z     vdW  Elec       q    Type
REMARK                         _______ _______ _______ _____ _____    ______ ____
ROOT
ATOM      1  N   UNL     1       2.765   8.558  18.296  0.00  0.00    +0.000 N 
ATOM      2  C   UNL     1       2.932   7.231  17.902  0.00  0.00    +0.000 C 
ATOM      3  O   UNL     1       2.062   6.373  17.860  0.00  0.00    +0.000 OA
ATOM      4  N   UNL     1       4.229   6.938  17.583  0.00  0.00    +0.000 N 
ATOM      5  H   UNL     1       3.594   9.085  18.537  0.00  0.00    +0.000 HD
ATOM      6  H   UNL     1       4.881   7.571  18.019  0.00  0.00    +0.000 HD
ENDROOT
BRANCH   1  13
ATOM      7  C   UNL     1      -4.319  12.039  18.778  0.00  0.00    +0.000 C 
ATOM      8  N   UNL     1      -3.082  11.330  18.510  0.00  0.00    +0.000 N 
ATOM      9  C   UNL     1      -2.138  11.206  19.601  0.00  0.00    +0.000 C 
ATOM     10  C   UNL     1      -0.903  10.435  19.274  0.00  0.00    +0.000 A 
ATOM     11  C   UNL     1       0.011  10.111  20.275  0.00  0.00    +0.000 A 
ATOM     12  C   UNL     1       1.205   9.469  19.954  0.00  0.00    +0.000 A 
ATOM     13  C   UNL     1       1.516   9.151  18.629  0.00  0.00    +0.000 A 
ATOM     14  C   UNL     1       0.571   9.423  17.624  0.00  0.00    +0.000 A 
ATOM     15  C   UNL     1      -0.628  10.081  17.956  0.00  0.00    +0.000 A 
ATOM     16  N   UNL     1      -1.567  10.417  16.974  0.00  0.00    +0.000 N 
ATOM     17  C   UNL     1      -2.767  11.026  17.206  0.00  0.00    +0.000 C 
ATOM     18  O   UNL     1      -3.513  11.269  16.259  0.00  0.00    +0.000 OA
ATOM     19  H   UNL     1      -1.390  10.200  16.004  0.00  0.00    +0.000 HD
ENDBRANCH   1  13
BRANCH   4  20
ATOM     20  C   UNL     1       4.743   5.568  17.392  0.00  0.00    +0.000 C 
ATOM     21  C   UNL     1       5.830   5.358  18.438  0.00  0.00    +0.000 C 
ATOM     22  C   UNL     1       7.122   6.070  17.984  0.00  0.00    +0.000 C 
ATOM     23  C   UNL     1       7.026   7.532  17.491  0.00  0.00    +0.000 C 
ATOM     24  C   UNL     1       8.088   6.064  19.172  0.00  0.00    +0.000 C 
ATOM     25  O   UNL     1       7.679   5.294  16.912  0.00  0.00    +0.000 OA
ATOM     26  C   UNL     1       6.767   4.989  15.922  0.00  0.00    +0.000 A 
ATOM     27  C   UNL     1       7.328   4.409  14.783  0.00  0.00    +0.000 A 
ATOM     28  C   UNL     1       6.497   3.996  13.753  0.00  0.00    +0.000 A 
ATOM     29  F   UNL     1       7.025   3.389  12.681  0.00  0.00    +0.000 F 
ATOM     30  C   UNL     1       5.121   4.183  13.834  0.00  0.00    +0.000 A 
ATOM     31  C   UNL     1       4.557   4.770  14.972  0.00  0.00    +0.000 A 
ATOM     32  C   UNL     1       5.366   5.168  16.051  0.00  0.00    +0.000 A 
ENDBRANCH   4  20
TORSDOF 2
ENDMDL
MODEL 7
REMARK VINA RESULT:      -8.8      5.930      7.916
REMARK  Name = 
REMARK  5 active torsions:
REMARK  status: ('A' for Active; 'I' for Inactive)
REMARK    1  A    between atoms: C_1  and  N_2
REMARK    2  A    between atoms: C_7  and  N_8
REMARK    3  A    between atoms: N_11  and  C_12
REMARK    4  A    between atoms: C_14  and  C_15
REMARK    5  A    between atoms: C_14  and  C_16
REMARK                            x       y       z     vdW  Elec       q    Type
REMARK                         _______ _______ _______ _____ _____    ______ ____
ROOT
ATOM      1  N   UNL     1       2.770   7.945  18.387  0.00  0.00    +0.000 N 
ATOM      2  C   UNL     1       3.120   6.604  18.246  0.00  0.00    +0.000 C 
ATOM      3  O   UNL     1       2.795   5.688  18.987  0.00  0.00    +0.000 OA
ATOM      4  N   UNL     1       3.938   6.385  17.171  0.00  0.00    +0.000 N 
ATOM      5  H   UNL     1       3.309   8.629  17.873  0.00  0.00    +0.000 HD
ATOM      6  H   UNL     1       4.435   7.217  16.894  0.00  0.00    +0.000 HD
ENDROOT
BRANCH   1  13
ATOM      7  C   UNL     1      -2.205  11.878  23.112  0.00  0.00    +0.000 C 
ATOM      8  N   UNL     1      -1.381  11.256  22.093  0.00  0.00    +0.000 N 
ATOM      9  C   UNL     1      -0.559  10.134  22.497  0.00  0.00    +0.000 C 
ATOM     10  C   UNL     1       0.236   9.514  21.395  0.00  0.00    +0.000 A 
ATOM     11  C   UNL     1       0.946   8.336  21.617  0.00  0.00    +0.000 A 
ATOM     12  C   UNL     1       1.757   7.807  20.616  0.00  0.00    +0.000 A 
ATOM     13  C   UNL     1       1.888   8.450  19.382  0.00  0.00    +0.000 A 
ATOM     14  C   UNL     1       1.129   9.607  19.134  0.00  0.00    +0.000 A 
ATOM     15  C   UNL     1       0.318  10.139  20.155  0.00  0.00    +0.000 A 
ATOM     16  N   UNL     1      -0.409  11.319  19.962  0.00  0.00    +0.000 N 
ATOM     17  C   UNL     1      -1.241  11.892  20.880  0.00  0.00    +0.000 C 
ATOM     18  O   UNL     1      -1.831  12.932  20.595  0.00  0.00    +0.000 OA
ATOM     19  H   UNL     1      -0.352  11.816  19.084  0.00  0.00    +0.000 HD
ENDBRANCH   1  13
BRANCH   4  20
ATOM     20  C   UNL     1       4.671   5.128  16.934  0.00  0.00    +0.000 C 
ATOM     21  C   UNL     1       5.757   5.047  17.999  0.00  0.00    +0.000 C 
ATOM     22  C   UNL     1       6.924   5.979  17.612  0.00  0.00    +0.000 C 
ATOM     23  C   UNL     1       6.601   7.428  17.182  0.00  0.00    +0.000 C 
ATOM     24  C   UNL     1       7.855   6.073  18.825  0.00  0.00    +0.000 C 
ATOM     25  O   UNL     1       7.622   5.356  16.523  0.00  0.00    +0.000 OA
ATOM     26  C   UNL     1       6.792   4.955  15.496  0.00  0.00    +0.000 A 
ATOM     27  C   UNL     1       7.462   4.528  14.349  0.00  0.00    +0.000 A 
ATOM     28  C   UNL     1       6.731   4.036  13.279  0.00  0.00    +0.000 A 
ATOM     29  F   UNL     1       7.372   3.575  12.197  0.00  0.00    +0.000 F 
ATOM     30  C   UNL     1       5.342   3.994  13.330  0.00  0.00    +0.000 A 
ATOM     31  C   UNL     1       4.667   4.426  14.477  0.00  0.00    +0.000 A 
ATOM     32  C   UNL     1       5.378   4.898  15.594  0.00  0.00    +0.000 A 
ENDBRANCH   4  20
TORSDOF 2
ENDMDL
MODEL 8
REMARK VINA RESULT:      -8.8      7.258      8.344
REMARK  Name = 
REMARK  5 active torsions:
REMARK  status: ('A' for Active; 'I' for Inactive)
REMARK    1  A    between atoms: C_1  and  N_2
REMARK    2  A    between atoms: C_7  and  N_8
REMARK    3  A    between atoms: N_11  and  C_12
REMARK    4  A    between atoms: C_14  and  C_15
REMARK    5  A    between atoms: C_14  and  C_16
REMARK                            x       y       z     vdW  Elec       q    Type
REMARK                         _______ _______ _______ _____ _____    ______ ____
ROOT
ATOM      1  N   UNL     1       1.145   9.183  19.635  0.00  0.00    +0.000 N 
ATOM      2  C   UNL     1       1.882   8.615  18.597  0.00  0.00    +0.000 C 
ATOM      3  O   UNL     1       2.199   9.161  17.551  0.00  0.00    +0.000 OA
ATOM      4  N   UNL     1       2.208   7.309  18.839  0.00  0.00    +0.000 N 
ATOM      5  H   UNL     1       0.730   8.559  20.314  0.00  0.00    +0.000 HD
ATOM      6  H   UNL     1       1.585   6.877  19.504  0.00  0.00    +0.000 HD
ENDROOT
BRANCH   1  13
ATOM      7  C   UNL     1      -2.372  16.219  20.449  0.00  0.00    +0.000 C 
ATOM      8  N   UNL     1      -1.828  14.875  20.467  0.00  0.00    +0.000 N 
ATOM      9  C   UNL     1      -0.730  14.591  19.567  0.00  0.00    +0.000 C 
ATOM     10  C   UNL     1      -0.190  13.202  19.659  0.00  0.00    +0.000 A 
ATOM     11  C   UNL     1       0.963  12.847  18.961  0.00  0.00    +0.000 A 
ATOM     12  C   UNL     1       1.415  11.530  18.977  0.00  0.00    +0.000 A 
ATOM     13  C   UNL     1       0.720  10.540  19.676  0.00  0.00    +0.000 A 
ATOM     14  C   UNL     1      -0.410  10.905  20.429  0.00  0.00    +0.000 A 
ATOM     15  C   UNL     1      -0.865  12.237  20.400  0.00  0.00    +0.000 A 
ATOM     16  N   UNL     1      -2.018  12.625  21.092  0.00  0.00    +0.000 N 
ATOM     17  C   UNL     1      -2.516  13.895  21.145  0.00  0.00    +0.000 C 
ATOM     18  O   UNL     1      -3.539  14.115  21.791  0.00  0.00    +0.000 OA
ATOM     19  H   UNL     1      -2.550  11.945  21.618  0.00  0.00    +0.000 HD
ENDBRANCH   1  13
BRANCH   4  20
ATOM     20  C   UNL     1       2.746   6.390  17.818  0.00  0.00    +0.000 C 
ATOM     21  C   UNL     1       1.895   5.128  17.874  0.00  0.00    +0.000 C 
ATOM     22  C   UNL     1       2.322   4.275  19.087  0.00  0.00    +0.000 C 
ATOM     23  C   UNL     1       2.474   4.968  20.461  0.00  0.00    +0.000 C 
ATOM     24  C   UNL     1       1.276   3.170  19.259  0.00  0.00    +0.000 C 
ATOM     25  O   UNL     1       3.591   3.685  18.765  0.00  0.00    +0.000 OA
ATOM     26  C   UNL     1       4.518   4.594  18.298  0.00  0.00    +0.000 A 
ATOM     27  C   UNL     1       5.809   4.081  18.166  0.00  0.00    +0.000 A 
ATOM     28  C   UNL     1       6.808   4.886  17.639  0.00  0.00    +0.000 A 
ATOM     29  F   UNL     1       8.036   4.381  17.459  0.00  0.00    +0.000 F 
ATOM     30  C   UNL     1       6.539   6.200  17.272  0.00  0.00    +0.000 A 
ATOM     31  C   UNL     1       5.246   6.718  17.408  0.00  0.00    +0.000 A 
ATOM     32  C   UNL     1       4.201   5.920  17.907  0.00  0.00    +0.000 A 
ENDBRANCH   4  20
TORSDOF 2
ENDMDL
MODEL 9
REMARK VINA RESULT:      -8.8      8.916     11.668
REMARK  Name = 
REMARK  5 active torsions:
REMARK  status: ('A' for Active; 'I' for Inactive)
REMARK    1  A    between atoms: C_1  and  N_2
REMARK    2  A    between atoms: C_7  and  N_8
REMARK    3  A    between atoms: N_11  and  C_12
REMARK    4  A    between atoms: C_14  and  C_15
REMARK    5  A    between atoms: C_14  and  C_16
REMARK                            x       y       z     vdW  Elec       q    Type
REMARK                         _______ _______ _______ _____ _____    ______ ____
ROOT
ATOM      1  N   UNL     1       0.929   9.559  20.056  0.00  0.00    +0.000 N 
ATOM      2  C   UNL     1      -0.097  10.135  19.308  0.00  0.00    +0.000 C 
ATOM      3  O   UNL     1      -0.546   9.717  18.251  0.00  0.00    +0.000 OA
ATOM      4  N   UNL     1      -0.564  11.295  19.864  0.00  0.00    +0.000 N 
ATOM      5  H   UNL     1       1.379  10.132  20.757  0.00  0.00    +0.000 HD
ATOM      6  H   UNL     1       0.114  11.724  20.474  0.00  0.00    +0.000 HD
ENDROOT
BRANCH   1  13
ATOM      7  C   UNL     1       4.176   2.360  19.646  0.00  0.00    +0.000 C 
ATOM      8  N   UNL     1       3.455   3.600  19.858  0.00  0.00    +0.000 N 
ATOM      9  C   UNL     1       3.711   4.684  18.933  0.00  0.00    +0.000 C 
ATOM     10  C   UNL     1       2.911   5.920  19.182  0.00  0.00    +0.000 A 
ATOM     11  C   UNL     1       2.948   6.978  18.275  0.00  0.00    +0.000 A 
ATOM     12  C   UNL     1       2.272   8.163  18.552  0.00  0.00    +0.000 A 
ATOM     13  C   UNL     1       1.560   8.323  19.744  0.00  0.00    +0.000 A 
ATOM     14  C   UNL     1       1.472   7.239  20.635  0.00  0.00    +0.000 A 
ATOM     15  C   UNL     1       2.166   6.047  20.351  0.00  0.00    +0.000 A 
ATOM     16  N   UNL     1       2.146   4.967  21.240  0.00  0.00    +0.000 N 
ATOM     17  C   UNL     1       2.762   3.766  21.036  0.00  0.00    +0.000 C 
ATOM     18  O   UNL     1       2.671   2.888  21.892  0.00  0.00    +0.000 OA
ATOM     19  H   UNL     1       1.639   5.033  22.111  0.00  0.00    +0.000 HD
ENDBRANCH   1  13
BRANCH   4  20
ATOM     20  C   UNL     1      -1.449  12.246  19.166  0.00  0.00    +0.000 C 
ATOM     21  C   UNL     1      -1.350  13.567  19.918  0.00  0.00    +0.000 C 
ATOM     22  C   UNL     1      -2.195  13.489  21.206  0.00  0.00    +0.000 C 
ATOM     23  C   UNL     1      -2.033  12.254  22.122  0.00  0.00    +0.000 C 
ATOM     24  C   UNL     1      -1.854  14.719  22.052  0.00  0.00    +0.000 C 
ATOM     25  O   UNL     1      -3.575  13.549  20.812  0.00  0.00    +0.000 OA
ATOM     26  C   UNL     1      -3.901  12.658  19.810  0.00  0.00    +0.000 A 
ATOM     27  C   UNL     1      -5.268  12.561  19.549  0.00  0.00    +0.000 A 
ATOM     28  C   UNL     1      -5.706  11.749  18.515  0.00  0.00    +0.000 A 
ATOM     29  F   UNL     1      -7.013  11.695  18.226  0.00  0.00    +0.000 F 
ATOM     30  C   UNL     1      -4.799  11.012  17.761  0.00  0.00    +0.000 A 
ATOM     31  C   UNL     1      -3.427  11.103  18.023  0.00  0.00    +0.000 A 
ATOM     32  C   UNL     1      -2.945  11.944  19.042  0.00  0.00    +0.000 A 
ENDBRANCH   4  20
TORSDOF 2
ENDMDL
