MODEL 1
REMARK VINA RESULT:      -8.1      0.000      0.000
REMARK  Name = 
REMARK  6 active torsions:
REMARK  status: ('A' for Active; 'I' for Inactive)
REMARK    1  A    between atoms: C_1  and  C_2
REMARK    2  A    between atoms: C_5  and  C_6
REMARK    3  A    between atoms: C_13  and  C_14
REMARK    4  A    between atoms: C_14  and  C_15
REMARK    5  A    between atoms: N_17  and  C_18
REMARK    6  A    between atoms: C_18  and  C_19
REMARK                            x       y       z     vdW  Elec       q    Type
REMARK                         _______ _______ _______ _____ _____    ______ ____
ROOT
ATOM      1  C   UNL     1       0.949   2.514  19.258  0.00  0.00    +0.000 C 
ATOM      2  C   UNL     1       2.222   3.127  18.811  0.00  0.00    +0.000 A 
ATOM      3  N   UNL     1       2.988   2.498  17.875  0.00  0.00    +0.000 N 
ATOM      4  N   UNL     1       4.127   3.124  17.592  0.00  0.00    +0.000 NA
ATOM      5  C   UNL     1       4.128   4.214  18.373  0.00  0.00    +0.000 A 
ATOM      6  C   UNL     1       2.913   4.282  19.157  0.00  0.00    +0.000 A 
ATOM      7  H   UNL     1       2.794   1.625  17.395  0.00  0.00    +0.000 HD
ENDROOT
BRANCH   5   8
ATOM      8  C   UNL     1       5.300   5.108  18.353  0.00  0.00    +0.000 A 
ATOM      9  C   UNL     1       6.320   5.032  19.312  0.00  0.00    +0.000 A 
ATOM     10  C   UNL     1       7.434   5.877  19.246  0.00  0.00    +0.000 A 
ATOM     11  C   UNL     1       7.521   6.821  18.232  0.00  0.00    +0.000 A 
ATOM     12  F   UNL     1       8.584   7.636  18.178  0.00  0.00    +0.000 F 
ATOM     13  C   UNL     1       6.515   6.939  17.286  0.00  0.00    +0.000 A 
ATOM     14  C   UNL     1       5.411   6.084  17.345  0.00  0.00    +0.000 A 
ENDBRANCH   5   8
BRANCH   6  15
ATOM     15  C   UNL     1       2.579   5.363  20.142  0.00  0.00    +0.000 C 
BRANCH  15  16
ATOM     16  C   UNL     1       2.278   6.744  19.605  0.00  0.00    +0.000 C 
ATOM     17  O   UNL     1       2.290   6.989  18.400  0.00  0.00    +0.000 OA
ATOM     18  N   UNL     1       1.904   7.685  20.551  0.00  0.00    +0.000 N 
ATOM     19  H   UNL     1       1.849   7.416  21.527  0.00  0.00    +0.000 HD
BRANCH  18  20
ATOM     20  C   UNL     1       1.462   8.990  20.112  0.00  0.00    +0.000 C 
BRANCH  20  21
ATOM     21  C   UNL     1       0.414   9.688  20.984  0.00  0.00    +0.000 C 
ATOM     22  C   UNL     1       0.494  11.217  20.929  0.00  0.00    +0.000 C 
ATOM     23  C   UNL     1      -0.613  11.828  21.781  0.00  0.00    +0.000 C 
ATOM     24  O   UNL     1      -0.524  11.356  23.126  0.00  0.00    +0.000 OA
ATOM     25  C   UNL     1      -0.682   9.939  23.215  0.00  0.00    +0.000 C 
ATOM     26  C   UNL     1       0.422   9.224  22.442  0.00  0.00    +0.000 C 
ENDBRANCH  20  21
ENDBRANCH  18  20
ENDBRANCH  15  16
ENDBRANCH   6  15
TORSDOF 5
ENDMDL
MODEL 2
REMARK VINA RESULT:      -7.9      0.338      1.439
REMARK  Name = 
REMARK  6 active torsions:
REMARK  status: ('A' for Active; 'I' for Inactive)
REMARK    1  A    between atoms: C_1  and  C_2
REMARK    2  A    between atoms: C_5  and  C_6
REMARK    3  A    between atoms: C_13  and  C_14
REMARK    4  A    between atoms: C_14  and  C_15
REMARK    5  A    between atoms: N_17  and  C_18
REMARK    6  A    between atoms: C_18  and  C_19
REMARK                            x       y       z     vdW  Elec       q    Type
REMARK                         _______ _______ _______ _____ _____    ______ ____
ROOT
ATOM      1  C   UNL     1       0.945   2.634  18.903  0.00  0.00    +0.000 C 
ATOM      2  C   UNL     1       2.233   3.246  18.501  0.00  0.00    +0.000 A 
ATOM      3  N   UNL     1       2.996   2.655  17.538  0.00  0.00    +0.000 N 
ATOM      4  N   UNL     1       4.149   3.273  17.299  0.00  0.00    +0.000 NA
ATOM      5  C   UNL     1       4.162   4.320  18.137  0.00  0.00    +0.000 A 
ATOM      6  C   UNL     1       2.941   4.368  18.914  0.00  0.00    +0.000 A 
ATOM      7  H   UNL     1       2.791   1.812  17.011  0.00  0.00    +0.000 HD
ENDROOT
BRANCH   5   8
ATOM      8  C   UNL     1       5.350   5.191  18.176  0.00  0.00    +0.000 A 
ATOM      9  C   UNL     1       5.563   6.215  17.241  0.00  0.00    +0.000 A 
ATOM     10  C   UNL     1       6.688   7.043  17.326  0.00  0.00    +0.000 A 
ATOM     11  C   UNL     1       7.621   6.834  18.333  0.00  0.00    +0.000 A 
ATOM     12  F   UNL     1       8.704   7.622  18.404  0.00  0.00    +0.000 F 
ATOM     13  C   UNL     1       7.452   5.812  19.253  0.00  0.00    +0.000 A 
ATOM     14  C   UNL     1       6.320   4.996  19.177  0.00  0.00    +0.000 A 
ENDBRANCH   5   8
BRANCH   6  15
ATOM     15  C   UNL     1       2.616   5.401  19.952  0.00  0.00    +0.000 C 
BRANCH  15  16
ATOM     16  C   UNL     1       2.277   6.797  19.482  0.00  0.00    +0.000 C 
ATOM     17  O   UNL     1       2.337   7.116  18.296  0.00  0.00    +0.000 OA
ATOM     18  N   UNL     1       1.812   7.662  20.461  0.00  0.00    +0.000 N 
ATOM     19  H   UNL     1       1.722   7.331  21.416  0.00  0.00    +0.000 HD
BRANCH  18  20
ATOM     20  C   UNL     1       1.331   8.970  20.078  0.00  0.00    +0.000 C 
BRANCH  20  21
ATOM     21  C   UNL     1       0.761   9.846  21.197  0.00  0.00    +0.000 C 
ATOM     22  C   UNL     1      -0.086   9.069  22.209  0.00  0.00    +0.000 C 
ATOM     23  C   UNL     1      -0.569  10.004  23.312  0.00  0.00    +0.000 C 
ATOM     24  O   UNL     1      -1.304  11.094  22.754  0.00  0.00    +0.000 OA
ATOM     25  C   UNL     1      -0.511  11.888  21.871  0.00  0.00    +0.000 C 
ATOM     26  C   UNL     1      -0.025  11.057  20.688  0.00  0.00    +0.000 C 
ENDBRANCH  20  21
ENDBRANCH  18  20
ENDBRANCH  15  16
ENDBRANCH   6  15
TORSDOF 5
ENDMDL
MODEL 3
REMARK VINA RESULT:      -7.8      1.646      2.080
REMARK  Name = 
REMARK  6 active torsions:
REMARK  status: ('A' for Active; 'I' for Inactive)
REMARK    1  A    between atoms: C_1  and  C_2
REMARK    2  A    between atoms: C_5  and  C_6
REMARK    3  A    between atoms: C_13  and  C_14
REMARK    4  A    between atoms: C_14  and  C_15
REMARK    5  A    between atoms: N_17  and  C_18
REMARK    6  A    between atoms: C_18  and  C_19
REMARK                            x       y       z     vdW  Elec       q    Type
REMARK                         _______ _______ _______ _____ _____    ______ ____
ROOT
ATOM      1  C   UNL     1       1.671   3.174  21.202  0.00  0.00    +0.000 C 
ATOM      2  C   UNL     1       2.522   3.207  19.990  0.00  0.00    +0.000 A 
ATOM      3  N   UNL     1       2.636   2.096  19.207  0.00  0.00    +0.000 N 
ATOM      4  N   UNL     1       3.464   2.237  18.177  0.00  0.00    +0.000 NA
ATOM      5  C   UNL     1       3.928   3.491  18.273  0.00  0.00    +0.000 A 
ATOM      6  C   UNL     1       3.334   4.171  19.405  0.00  0.00    +0.000 A 
ATOM      7  H   UNL     1       2.180   1.198  19.331  0.00  0.00    +0.000 HD
ENDROOT
BRANCH   5   8
ATOM      8  C   UNL     1       4.937   3.957  17.304  0.00  0.00    +0.000 A 
ATOM      9  C   UNL     1       6.249   4.280  17.680  0.00  0.00    +0.000 A 
ATOM     10  C   UNL     1       7.189   4.690  16.729  0.00  0.00    +0.000 A 
ATOM     11  C   UNL     1       6.815   4.806  15.397  0.00  0.00    +0.000 A 
ATOM     12  F   UNL     1       7.715   5.211  14.490  0.00  0.00    +0.000 F 
ATOM     13  C   UNL     1       5.517   4.522  15.000  0.00  0.00    +0.000 A 
ATOM     14  C   UNL     1       4.584   4.097  15.948  0.00  0.00    +0.000 A 
ENDBRANCH   5   8
BRANCH   6  15
ATOM     15  C   UNL     1       3.627   5.583  19.817  0.00  0.00    +0.000 C 
BRANCH  15  16
ATOM     16  C   UNL     1       2.702   6.673  19.323  0.00  0.00    +0.000 C 
ATOM     17  O   UNL     1       2.361   6.750  18.144  0.00  0.00    +0.000 OA
ATOM     18  N   UNL     1       2.198   7.518  20.299  0.00  0.00    +0.000 N 
ATOM     19  H   UNL     1       2.461   7.373  21.268  0.00  0.00    +0.000 HD
BRANCH  18  20
ATOM     20  C   UNL     1       1.197   8.497  19.938  0.00  0.00    +0.000 C 
BRANCH  20  21
ATOM     21  C   UNL     1       0.767   9.474  21.035  0.00  0.00    +0.000 C 
ATOM     22  C   UNL     1      -0.190   8.858  22.060  0.00  0.00    +0.000 C 
ATOM     23  C   UNL     1      -0.525   9.881  23.141  0.00  0.00    +0.000 C 
ATOM     24  O   UNL     1      -1.085  11.057  22.557  0.00  0.00    +0.000 OA
ATOM     25  C   UNL     1      -0.179  11.701  21.659  0.00  0.00    +0.000 C 
ATOM     26  C   UNL     1       0.175  10.779  20.497  0.00  0.00    +0.000 C 
ENDBRANCH  20  21
ENDBRANCH  18  20
ENDBRANCH  15  16
ENDBRANCH   6  15
TORSDOF 5
ENDMDL
MODEL 4
REMARK VINA RESULT:      -7.7      1.786      2.136
REMARK  Name = 
REMARK  6 active torsions:
REMARK  status: ('A' for Active; 'I' for Inactive)
REMARK    1  A    between atoms: C_1  and  C_2
REMARK    2  A    between atoms: C_5  and  C_6
REMARK    3  A    between atoms: C_13  and  C_14
REMARK    4  A    between atoms: C_14  and  C_15
REMARK    5  A    between atoms: N_17  and  C_18
REMARK    6  A    between atoms: C_18  and  C_19
REMARK                            x       y       z     vdW  Elec       q    Type
REMARK                         _______ _______ _______ _____ _____    ______ ____
ROOT
ATOM      1  C   UNL     1       1.739   2.830  21.694  0.00  0.00    +0.000 C 
ATOM      2  C   UNL     1       2.813   2.948  20.680  0.00  0.00    +0.000 A 
ATOM      3  N   UNL     1       3.956   2.215  20.811  0.00  0.00    +0.000 N 
ATOM      4  N   UNL     1       4.862   2.444  19.865  0.00  0.00    +0.000 NA
ATOM      5  C   UNL     1       4.308   3.370  19.069  0.00  0.00    +0.000 A 
ATOM      6  C   UNL     1       2.978   3.710  19.530  0.00  0.00    +0.000 A 
ATOM      7  H   UNL     1       4.187   1.545  21.537  0.00  0.00    +0.000 HD
ENDROOT
BRANCH   5   8
ATOM      8  C   UNL     1       5.089   3.903  17.939  0.00  0.00    +0.000 A 
ATOM      9  C   UNL     1       4.634   3.843  16.614  0.00  0.00    +0.000 A 
ATOM     10  C   UNL     1       5.389   4.387  15.569  0.00  0.00    +0.000 A 
ATOM     11  C   UNL     1       6.618   4.972  15.841  0.00  0.00    +0.000 A 
ATOM     12  F   UNL     1       7.344   5.482  14.835  0.00  0.00    +0.000 F 
ATOM     13  C   UNL     1       7.107   5.021  17.137  0.00  0.00    +0.000 A 
ATOM     14  C   UNL     1       6.345   4.492  18.181  0.00  0.00    +0.000 A 
ENDBRANCH   5   8
BRANCH   6  15
ATOM     15  C   UNL     1       2.069   4.713  18.884  0.00  0.00    +0.000 C 
BRANCH  15  16
ATOM     16  C   UNL     1       2.353   6.180  19.116  0.00  0.00    +0.000 C 
ATOM     17  O   UNL     1       2.811   6.901  18.231  0.00  0.00    +0.000 OA
ATOM     18  N   UNL     1       1.982   6.673  20.357  0.00  0.00    +0.000 N 
ATOM     19  H   UNL     1       1.550   6.051  21.032  0.00  0.00    +0.000 HD
BRANCH  18  20
ATOM     20  C   UNL     1       2.086   8.092  20.614  0.00  0.00    +0.000 C 
BRANCH  20  21
ATOM     21  C   UNL     1       0.794   8.814  21.007  0.00  0.00    +0.000 C 
ATOM     22  C   UNL     1       0.525  10.076  20.182  0.00  0.00    +0.000 C 
ATOM     23  C   UNL     1      -0.802  10.701  20.602  0.00  0.00    +0.000 C 
ATOM     24  O   UNL     1      -0.793  10.993  22.000  0.00  0.00    +0.000 OA
ATOM     25  C   UNL     1      -0.629   9.819  22.798  0.00  0.00    +0.000 C 
ATOM     26  C   UNL     1       0.707   9.146  22.499  0.00  0.00    +0.000 C 
ENDBRANCH  20  21
ENDBRANCH  18  20
ENDBRANCH  15  16
ENDBRANCH   6  15
TORSDOF 5
ENDMDL
MODEL 5
REMARK VINA RESULT:      -7.7      1.735      2.115
REMARK  Name = 
REMARK  6 active torsions:
REMARK  status: ('A' for Active; 'I' for Inactive)
REMARK    1  A    between atoms: C_1  and  C_2
REMARK    2  A    between atoms: C_5  and  C_6
REMARK    3  A    between atoms: C_13  and  C_14
REMARK    4  A    between atoms: C_14  and  C_15
REMARK    5  A    between atoms: N_17  and  C_18
REMARK    6  A    between atoms: C_18  and  C_19
REMARK                            x       y       z     vdW  Elec       q    Type
REMARK                         _______ _______ _______ _____ _____    ______ ____
ROOT
ATOM      1  C   UNL     1       1.836   2.681  21.020  0.00  0.00    +0.000 C 
ATOM      2  C   UNL     1       3.007   3.218  20.287  0.00  0.00    +0.000 A 
ATOM      3  N   UNL     1       3.993   2.374  19.868  0.00  0.00    +0.000 N 
ATOM      4  N   UNL     1       5.011   2.980  19.265  0.00  0.00    +0.000 NA
ATOM      5  C   UNL     1       4.698   4.284  19.283  0.00  0.00    +0.000 A 
ATOM      6  C   UNL     1       3.406   4.492  19.903  0.00  0.00    +0.000 A 
ATOM      7  H   UNL     1       4.037   1.365  19.976  0.00  0.00    +0.000 HD
ENDROOT
BRANCH   5   8
ATOM      8  C   UNL     1       5.663   5.259  18.742  0.00  0.00    +0.000 A 
ATOM      9  C   UNL     1       6.902   5.508  19.349  0.00  0.00    +0.000 A 
ATOM     10  C   UNL     1       7.806   6.419  18.792  0.00  0.00    +0.000 A 
ATOM     11  C   UNL     1       7.464   7.107  17.635  0.00  0.00    +0.000 A 
ATOM     12  F   UNL     1       8.328   7.987  17.110  0.00  0.00    +0.000 F 
ATOM     13  C   UNL     1       6.235   6.903  17.029  0.00  0.00    +0.000 A 
ATOM     14  C   UNL     1       5.339   5.982  17.577  0.00  0.00    +0.000 A 
ENDBRANCH   5   8
BRANCH   6  15
ATOM     15  C   UNL     1       2.745   5.824  20.098  0.00  0.00    +0.000 C 
BRANCH  15  16
ATOM     16  C   UNL     1       2.305   6.584  18.868  0.00  0.00    +0.000 C 
ATOM     17  O   UNL     1       1.889   6.010  17.863  0.00  0.00    +0.000 OA
ATOM     18  N   UNL     1       2.320   7.966  18.981  0.00  0.00    +0.000 N 
ATOM     19  H   UNL     1       2.614   8.391  19.854  0.00  0.00    +0.000 HD
BRANCH  18  20
ATOM     20  C   UNL     1       1.783   8.769  17.906  0.00  0.00    +0.000 C 
BRANCH  20  21
ATOM     21  C   UNL     1       0.853   9.918  18.306  0.00  0.00    +0.000 C 
ATOM     22  C   UNL     1       0.806  10.166  19.817  0.00  0.00    +0.000 C 
ATOM     23  C   UNL     1      -0.100  11.355  20.122  0.00  0.00    +0.000 C 
ATOM     24  O   UNL     1      -1.409  11.131  19.595  0.00  0.00    +0.000 OA
ATOM     25  C   UNL     1      -1.404  10.982  18.175  0.00  0.00    +0.000 C 
ATOM     26  C   UNL     1      -0.570   9.772  17.763  0.00  0.00    +0.000 C 
ENDBRANCH  20  21
ENDBRANCH  18  20
ENDBRANCH  15  16
ENDBRANCH   6  15
TORSDOF 5
ENDMDL
MODEL 6
REMARK VINA RESULT:      -7.7      2.178      2.619
REMARK  Name = 
REMARK  6 active torsions:
REMARK  status: ('A' for Active; 'I' for Inactive)
REMARK    1  A    between atoms: C_1  and  C_2
REMARK    2  A    between atoms: C_5  and  C_6
REMARK    3  A    between atoms: C_13  and  C_14
REMARK    4  A    between atoms: C_14  and  C_15
REMARK    5  A    between atoms: N_17  and  C_18
REMARK    6  A    between atoms: C_18  and  C_19
REMARK                            x       y       z     vdW  Elec       q    Type
REMARK                         _______ _______ _______ _____ _____    ______ ____
ROOT
ATOM      1  C   UNL     1       1.969   3.467  21.611  0.00  0.00    +0.000 C 
ATOM      2  C   UNL     1       2.835   3.398  20.410  0.00  0.00    +0.000 A 
ATOM      3  N   UNL     1       3.224   2.186  19.921  0.00  0.00    +0.000 N 
ATOM      4  N   UNL     1       4.036   2.256  18.871  0.00  0.00    +0.000 NA
ATOM      5  C   UNL     1       4.202   3.568  18.647  0.00  0.00    +0.000 A 
ATOM      6  C   UNL     1       3.429   4.349  19.590  0.00  0.00    +0.000 A 
ATOM      7  H   UNL     1       2.979   1.265  20.271  0.00  0.00    +0.000 HD
ENDROOT
BRANCH   5   8
ATOM      8  C   UNL     1       5.114   4.001  17.573  0.00  0.00    +0.000 A 
ATOM      9  C   UNL     1       6.428   4.420  17.825  0.00  0.00    +0.000 A 
ATOM     10  C   UNL     1       7.276   4.796  16.778  0.00  0.00    +0.000 A 
ATOM     11  C   UNL     1       6.805   4.781  15.472  0.00  0.00    +0.000 A 
ATOM     12  F   UNL     1       7.617   5.153  14.472  0.00  0.00    +0.000 F 
ATOM     13  C   UNL     1       5.502   4.400  15.195  0.00  0.00    +0.000 A 
ATOM     14  C   UNL     1       4.661   4.009  16.239  0.00  0.00    +0.000 A 
ENDBRANCH   5   8
BRANCH   6  15
ATOM     15  C   UNL     1       3.380   5.847  19.637  0.00  0.00    +0.000 C 
BRANCH  15  16
ATOM     16  C   UNL     1       2.576   6.564  18.576  0.00  0.00    +0.000 C 
ATOM     17  O   UNL     1       1.917   5.953  17.736  0.00  0.00    +0.000 OA
ATOM     18  N   UNL     1       2.561   7.948  18.669  0.00  0.00    +0.000 N 
ATOM     19  H   UNL     1       3.072   8.402  19.418  0.00  0.00    +0.000 HD
BRANCH  18  20
ATOM     20  C   UNL     1       1.706   8.706  17.784  0.00  0.00    +0.000 C 
BRANCH  20  21
ATOM     21  C   UNL     1       0.899   9.842  18.419  0.00  0.00    +0.000 C 
ATOM     22  C   UNL     1       0.844   9.772  19.948  0.00  0.00    +0.000 C 
ATOM     23  C   UNL     1       0.068  10.965  20.497  0.00  0.00    +0.000 C 
ATOM     24  O   UNL     1      -1.245  11.005  19.936  0.00  0.00    +0.000 OA
ATOM     25  C   UNL     1      -1.224  11.157  18.516  0.00  0.00    +0.000 C 
ATOM     26  C   UNL     1      -0.519   9.976  17.858  0.00  0.00    +0.000 C 
ENDBRANCH  20  21
ENDBRANCH  18  20
ENDBRANCH  15  16
ENDBRANCH   6  15
TORSDOF 5
ENDMDL
MODEL 7
REMARK VINA RESULT:      -7.6      1.568      1.957
REMARK  Name = 
REMARK  6 active torsions:
REMARK  status: ('A' for Active; 'I' for Inactive)
REMARK    1  A    between atoms: C_1  and  C_2
REMARK    2  A    between atoms: C_5  and  C_6
REMARK    3  A    between atoms: C_13  and  C_14
REMARK    4  A    between atoms: C_14  and  C_15
REMARK    5  A    between atoms: N_17  and  C_18
REMARK    6  A    between atoms: C_18  and  C_19
REMARK                            x       y       z     vdW  Elec       q    Type
REMARK                         _______ _______ _______ _____ _____    ______ ____
ROOT
ATOM      1  C   UNL     1       1.274   2.435  18.531  0.00  0.00    +0.000 C 
ATOM      2  C   UNL     1       2.462   3.238  18.157  0.00  0.00    +0.000 A 
ATOM      3  N   UNL     1       3.028   3.083  16.926  0.00  0.00    +0.000 N 
ATOM      4  N   UNL     1       4.114   3.823  16.728  0.00  0.00    +0.000 NA
ATOM      5  C   UNL     1       4.287   4.500  17.872  0.00  0.00    +0.000 A 
ATOM      6  C   UNL     1       3.236   4.184  18.817  0.00  0.00    +0.000 A 
ATOM      7  H   UNL     1       2.725   2.472  16.174  0.00  0.00    +0.000 HD
ENDROOT
BRANCH   5   8
ATOM      8  C   UNL     1       5.461   5.380  18.014  0.00  0.00    +0.000 A 
ATOM      9  C   UNL     1       6.493   5.117  18.926  0.00  0.00    +0.000 A 
ATOM     10  C   UNL     1       7.608   5.958  19.012  0.00  0.00    +0.000 A 
ATOM     11  C   UNL     1       7.685   7.083  18.203  0.00  0.00    +0.000 A 
ATOM     12  F   UNL     1       8.750   7.893  18.296  0.00  0.00    +0.000 F 
ATOM     13  C   UNL     1       6.667   7.384  17.311  0.00  0.00    +0.000 A 
ATOM     14  C   UNL     1       5.562   6.536  17.215  0.00  0.00    +0.000 A 
ENDBRANCH   5   8
BRANCH   6  15
ATOM     15  C   UNL     1       3.117   4.752  20.200  0.00  0.00    +0.000 C 
BRANCH  15  16
ATOM     16  C   UNL     1       1.914   5.615  20.510  0.00  0.00    +0.000 C 
ATOM     17  O   UNL     1       0.792   5.135  20.662  0.00  0.00    +0.000 OA
ATOM     18  N   UNL     1       2.178   6.963  20.699  0.00  0.00    +0.000 N 
ATOM     19  H   UNL     1       3.132   7.299  20.624  0.00  0.00    +0.000 HD
BRANCH  18  20
ATOM     20  C   UNL     1       1.113   7.837  21.138  0.00  0.00    +0.000 C 
BRANCH  20  21
ATOM     21  C   UNL     1       1.019   9.202  20.451  0.00  0.00    +0.000 C 
ATOM     22  C   UNL     1      -0.360   9.856  20.578  0.00  0.00    +0.000 C 
ATOM     23  C   UNL     1      -0.350  11.229  19.913  0.00  0.00    +0.000 C 
ATOM     24  O   UNL     1       0.042  11.115  18.544  0.00  0.00    +0.000 OA
ATOM     25  C   UNL     1       1.362  10.587  18.400  0.00  0.00    +0.000 C 
ATOM     26  C   UNL     1       1.445   9.180  18.981  0.00  0.00    +0.000 C 
ENDBRANCH  20  21
ENDBRANCH  18  20
ENDBRANCH  15  16
ENDBRANCH   6  15
TORSDOF 5
ENDMDL
MODEL 8
REMARK VINA RESULT:      -7.6      4.131      6.852
REMARK  Name = 
REMARK  6 active torsions:
REMARK  status: ('A' for Active; 'I' for Inactive)
REMARK    1  A    between atoms: C_1  and  C_2
REMARK    2  A    between atoms: C_5  and  C_6
REMARK    3  A    between atoms: C_13  and  C_14
REMARK    4  A    between atoms: C_14  and  C_15
REMARK    5  A    between atoms: N_17  and  C_18
REMARK    6  A    between atoms: C_18  and  C_19
REMARK                            x       y       z     vdW  Elec       q    Type
REMARK                         _______ _______ _______ _____ _____    ______ ____
ROOT
ATOM      1  C   UNL     1       6.109   3.787  15.587  0.00  0.00    +0.000 C 
ATOM      2  C   UNL     1       5.108   4.483  16.429  0.00  0.00    +0.000 A 
ATOM      3  N   UNL     1       4.042   3.793  16.928  0.00  0.00    +0.000 N 
ATOM      4  N   UNL     1       3.190   4.537  17.628  0.00  0.00    +0.000 NA
ATOM      5  C   UNL     1       3.703   5.776  17.595  0.00  0.00    +0.000 A 
ATOM      6  C   UNL     1       4.951   5.794  16.861  0.00  0.00    +0.000 A 
ATOM      7  H   UNL     1       3.829   2.808  16.815  0.00  0.00    +0.000 HD
ENDROOT
BRANCH   5   8
ATOM      8  C   UNL     1       2.957   6.876  18.232  0.00  0.00    +0.000 A 
ATOM      9  C   UNL     1       2.647   8.065  17.557  0.00  0.00    +0.000 A 
ATOM     10  C   UNL     1       1.911   9.077  18.183  0.00  0.00    +0.000 A 
ATOM     11  C   UNL     1       1.502   8.916  19.500  0.00  0.00    +0.000 A 
ATOM     12  F   UNL     1       0.806   9.892  20.100  0.00  0.00    +0.000 F 
ATOM     13  C   UNL     1       1.818   7.763  20.202  0.00  0.00    +0.000 A 
ATOM     14  C   UNL     1       2.539   6.747  19.571  0.00  0.00    +0.000 A 
ENDBRANCH   5   8
BRANCH   6  15
ATOM     15  C   UNL     1       5.795   7.010  16.620  0.00  0.00    +0.000 C 
BRANCH  15  16
ATOM     16  C   UNL     1       6.993   7.230  17.516  0.00  0.00    +0.000 C 
ATOM     17  O   UNL     1       7.615   6.293  18.012  0.00  0.00    +0.000 OA
ATOM     18  N   UNL     1       7.394   8.549  17.666  0.00  0.00    +0.000 N 
ATOM     19  H   UNL     1       6.884   9.282  17.185  0.00  0.00    +0.000 HD
BRANCH  18  20
ATOM     20  C   UNL     1       8.612   8.840  18.388  0.00  0.00    +0.000 C 
BRANCH  20  21
ATOM     21  C   UNL     1       8.880  10.312  18.714  0.00  0.00    +0.000 C 
ATOM     22  C   UNL     1       9.885  10.974  17.766  0.00  0.00    +0.000 C 
ATOM     23  C   UNL     1      10.054  12.446  18.130  0.00  0.00    +0.000 C 
ATOM     24  O   UNL     1      10.466  12.578  19.491  0.00  0.00    +0.000 OA
ATOM     25  C   UNL     1       9.505  12.044  20.403  0.00  0.00    +0.000 C 
ATOM     26  C   UNL     1       9.307  10.551  20.165  0.00  0.00    +0.000 C 
ENDBRANCH  20  21
ENDBRANCH  18  20
ENDBRANCH  15  16
ENDBRANCH   6  15
TORSDOF 5
ENDMDL
MODEL 9
REMARK VINA RESULT:      -7.6      2.172      2.772
REMARK  Name = 
REMARK  6 active torsions:
REMARK  status: ('A' for Active; 'I' for Inactive)
REMARK    1  A    between atoms: C_1  and  C_2
REMARK    2  A    between atoms: C_5  and  C_6
REMARK    3  A    between atoms: C_13  and  C_14
REMARK    4  A    between atoms: C_14  and  C_15
REMARK    5  A    between atoms: N_17  and  C_18
REMARK    6  A    between atoms: C_18  and  C_19
REMARK                            x       y       z     vdW  Elec       q    Type
REMARK                         _______ _______ _______ _____ _____    ______ ____
ROOT
ATOM      1  C   UNL     1       1.664   3.066  21.552  0.00  0.00    +0.000 C 
ATOM      2  C   UNL     1       2.759   3.103  20.555  0.00  0.00    +0.000 A 
ATOM      3  N   UNL     1       3.860   2.317  20.724  0.00  0.00    +0.000 N 
ATOM      4  N   UNL     1       4.792   2.474  19.788  0.00  0.00    +0.000 NA
ATOM      5  C   UNL     1       4.298   3.406  18.960  0.00  0.00    +0.000 A 
ATOM      6  C   UNL     1       2.980   3.826  19.389  0.00  0.00    +0.000 A 
ATOM      7  H   UNL     1       4.044   1.655  21.471  0.00  0.00    +0.000 HD
ENDROOT
BRANCH   5   8
ATOM      8  C   UNL     1       5.124   3.869  17.830  0.00  0.00    +0.000 A 
ATOM      9  C   UNL     1       4.729   3.711  16.494  0.00  0.00    +0.000 A 
ATOM     10  C   UNL     1       5.525   4.190  15.447  0.00  0.00    +0.000 A 
ATOM     11  C   UNL     1       6.735   4.808  15.731  0.00  0.00    +0.000 A 
ATOM     12  F   UNL     1       7.500   5.256  14.725  0.00  0.00    +0.000 F 
ATOM     13  C   UNL     1       7.165   4.954  17.040  0.00  0.00    +0.000 A 
ATOM     14  C   UNL     1       6.363   4.489  18.085  0.00  0.00    +0.000 A 
ENDBRANCH   5   8
BRANCH   6  15
ATOM     15  C   UNL     1       2.135   4.857  18.702  0.00  0.00    +0.000 C 
BRANCH  15  16
ATOM     16  C   UNL     1       2.547   6.306  18.822  0.00  0.00    +0.000 C 
ATOM     17  O   UNL     1       3.504   6.655  19.511  0.00  0.00    +0.000 OA
ATOM     18  N   UNL     1       1.832   7.198  18.037  0.00  0.00    +0.000 N 
ATOM     19  H   UNL     1       1.091   6.852  17.438  0.00  0.00    +0.000 HD
BRANCH  18  20
ATOM     20  C   UNL     1       2.249   8.581  17.981  0.00  0.00    +0.000 C 
BRANCH  20  21
ATOM     21  C   UNL     1       1.353   9.597  18.695  0.00  0.00    +0.000 C 
ATOM     22  C   UNL     1       1.022   9.211  20.140  0.00  0.00    +0.000 C 
ATOM     23  C   UNL     1       0.173  10.298  20.789  0.00  0.00    +0.000 C 
ATOM     24  O   UNL     1      -1.017  10.519  20.030  0.00  0.00    +0.000 OA
ATOM     25  C   UNL     1      -0.738  10.965  18.702  0.00  0.00    +0.000 C 
ATOM     26  C   UNL     1       0.061   9.914  17.938  0.00  0.00    +0.000 C 
ENDBRANCH  20  21
ENDBRANCH  18  20
ENDBRANCH  15  16
ENDBRANCH   6  15
TORSDOF 5
ENDMDL
