MODEL 1
REMARK VINA RESULT:      -8.5      0.000      0.000
REMARK  Name = 
REMARK  5 active torsions:
REMARK  status: ('A' for Active; 'I' for Inactive)
REMARK    1  A    between atoms: C_2  and  C_3
REMARK    2  A    between atoms: C_3  and  O_4
REMARK    3  A    between atoms: O_4  and  C_5
REMARK    4  A    between atoms: C_5  and  C_7
REMARK    5  A    between atoms: N_17  and  C_18
REMARK                            x       y       z     vdW  Elec       q    Type
REMARK                         _______ _______ _______ _____ _____    ______ ____
ROOT
ATOM      1  O   UNL     1       2.984   2.473  20.290  0.00  0.00    +0.000 OA
ENDROOT
BRANCH   1   2
ATOM      2  C   UNL     1       4.310   2.373  20.027  0.00  0.00    +0.000 C 
ATOM      3  O   UNL     1       5.034   1.476  20.438  0.00  0.00    +0.000 OA
BRANCH   2   4
ATOM      4  C   UNL     1       4.784   3.458  19.124  0.00  0.00    +0.000 A 
ATOM      5  C   UNL     1       4.077   3.680  17.955  0.00  0.00    +0.000 A 
ATOM      6  C   UNL     1       4.492   4.706  17.121  0.00  0.00    +0.000 A 
ATOM      7  C   UNL     1       5.604   5.476  17.474  0.00  0.00    +0.000 A 
ATOM      8  C   UNL     1       6.055   6.520  16.652  0.00  0.00    +0.000 A 
ATOM      9  C   UNL     1       7.169   7.270  17.017  0.00  0.00    +0.000 A 
ATOM     10  C   UNL     1       7.831   6.983  18.206  0.00  0.00    +0.000 A 
ATOM     11  C   UNL     1       7.375   5.946  19.027  0.00  0.00    +0.000 A 
ATOM     12  C   UNL     1       6.271   5.178  18.684  0.00  0.00    +0.000 A 
ATOM     13  N   UNL     1       5.869   4.186  19.499  0.00  0.00    +0.000 NA
ENDBRANCH   2   4
ENDBRANCH   1   2
BRANCH   1  14
ATOM     14  C   UNL     1       2.631   3.506  21.207  0.00  0.00    +0.000 C 
BRANCH  14  16
ATOM     15  O   UNL     1       0.666   4.539  20.303  0.00  0.00    +0.000 OA
ATOM     16  C   UNL     1       1.855   4.677  20.590  0.00  0.00    +0.000 C 
ATOM     17  N   UNL     1       2.616   5.808  20.347  0.00  0.00    +0.000 N 
ATOM     18  H   UNL     1       3.628   5.706  20.426  0.00  0.00    +0.000 HD
BRANCH  17  19
ATOM     19  C   UNL     1       2.137   7.062  19.913  0.00  0.00    +0.000 A 
ATOM     20  C   UNL     1       1.443   7.939  20.751  0.00  0.00    +0.000 A 
ATOM     21  C   UNL     1       0.999   9.177  20.281  0.00  0.00    +0.000 A 
ATOM     22  C   UNL     1       1.244   9.554  18.964  0.00  0.00    +0.000 A 
ATOM     23  C   UNL     1       1.942   8.693  18.120  0.00  0.00    +0.000 A 
ATOM     24  C   UNL     1       2.396   7.456  18.594  0.00  0.00    +0.000 A 
ENDBRANCH  17  19
ENDBRANCH  14  16
ENDBRANCH   1  14
TORSDOF 5
ENDMDL
MODEL 2
REMARK VINA RESULT:      -8.0      3.387      6.618
REMARK  Name = 
REMARK  5 active torsions:
REMARK  status: ('A' for Active; 'I' for Inactive)
REMARK    1  A    between atoms: C_2  and  C_3
REMARK    2  A    between atoms: C_3  and  O_4
REMARK    3  A    between atoms: O_4  and  C_5
REMARK    4  A    between atoms: C_5  and  C_7
REMARK    5  A    between atoms: N_17  and  C_18
REMARK                            x       y       z     vdW  Elec       q    Type
REMARK                         _______ _______ _______ _____ _____    ______ ____
ROOT
ATOM      1  O   UNL     1       6.615   6.410  18.555  0.00  0.00    +0.000 OA
ENDROOT
BRANCH   1   2
ATOM      2  C   UNL     1       6.639   5.056  18.524  0.00  0.00    +0.000 C 
ATOM      3  O   UNL     1       7.658   4.379  18.519  0.00  0.00    +0.000 OA
BRANCH   2   4
ATOM      4  C   UNL     1       5.269   4.472  18.555  0.00  0.00    +0.000 A 
ATOM      5  C   UNL     1       4.893   3.654  17.503  0.00  0.00    +0.000 A 
ATOM      6  C   UNL     1       3.631   3.081  17.535  0.00  0.00    +0.000 A 
ATOM      7  C   UNL     1       2.780   3.347  18.611  0.00  0.00    +0.000 A 
ATOM      8  C   UNL     1       1.493   2.789  18.674  0.00  0.00    +0.000 A 
ATOM      9  C   UNL     1       0.657   3.072  19.751  0.00  0.00    +0.000 A 
ATOM     10  C   UNL     1       1.105   3.908  20.768  0.00  0.00    +0.000 A 
ATOM     11  C   UNL     1       2.390   4.458  20.705  0.00  0.00    +0.000 A 
ATOM     12  C   UNL     1       3.243   4.198  19.640  0.00  0.00    +0.000 A 
ATOM     13  N   UNL     1       4.468   4.752  19.616  0.00  0.00    +0.000 NA
ENDBRANCH   2   4
ENDBRANCH   1   2
BRANCH   1  14
ATOM     14  C   UNL     1       7.056   7.046  17.357  0.00  0.00    +0.000 C 
BRANCH  14  16
ATOM     15  O   UNL     1       5.364   6.826  15.673  0.00  0.00    +0.000 OA
ATOM     16  C   UNL     1       6.473   6.460  16.065  0.00  0.00    +0.000 C 
ATOM     17  N   UNL     1       7.257   5.487  15.469  0.00  0.00    +0.000 N 
ATOM     18  H   UNL     1       8.038   5.127  16.018  0.00  0.00    +0.000 HD
BRANCH  17  19
ATOM     19  C   UNL     1       7.030   4.882  14.215  0.00  0.00    +0.000 A 
ATOM     20  C   UNL     1       6.054   3.902  14.012  0.00  0.00    +0.000 A 
ATOM     21  C   UNL     1       5.855   3.340  12.749  0.00  0.00    +0.000 A 
ATOM     22  C   UNL     1       6.633   3.751  11.671  0.00  0.00    +0.000 A 
ATOM     23  C   UNL     1       7.604   4.733  11.857  0.00  0.00    +0.000 A 
ATOM     24  C   UNL     1       7.796   5.303  13.121  0.00  0.00    +0.000 A 
ENDBRANCH  17  19
ENDBRANCH  14  16
ENDBRANCH   1  14
TORSDOF 5
ENDMDL
MODEL 3
REMARK VINA RESULT:      -7.8      3.570      5.427
REMARK  Name = 
REMARK  5 active torsions:
REMARK  status: ('A' for Active; 'I' for Inactive)
REMARK    1  A    between atoms: C_2  and  C_3
REMARK    2  A    between atoms: C_3  and  O_4
REMARK    3  A    between atoms: O_4  and  C_5
REMARK    4  A    between atoms: C_5  and  C_7
REMARK    5  A    between atoms: N_17  and  C_18
REMARK                            x       y       z     vdW  Elec       q    Type
REMARK                         _______ _______ _______ _____ _____    ______ ____
ROOT
ATOM      1  O   UNL     1       7.646   5.258  18.310  0.00  0.00    +0.000 OA
ENDROOT
BRANCH   1   2
ATOM      2  C   UNL     1       7.369   6.082  17.270  0.00  0.00    +0.000 C 
ATOM      3  O   UNL     1       7.511   7.297  17.289  0.00  0.00    +0.000 OA
BRANCH   2   4
ATOM      4  C   UNL     1       6.920   5.330  16.065  0.00  0.00    +0.000 A 
ATOM      5  C   UNL     1       5.838   4.477  16.203  0.00  0.00    +0.000 A 
ATOM      6  C   UNL     1       5.393   3.795  15.081  0.00  0.00    +0.000 A 
ATOM      7  C   UNL     1       6.045   3.977  13.859  0.00  0.00    +0.000 A 
ATOM      8  C   UNL     1       5.625   3.298  12.704  0.00  0.00    +0.000 A 
ATOM      9  C   UNL     1       6.292   3.487  11.497  0.00  0.00    +0.000 A 
ATOM     10  C   UNL     1       7.376   4.358  11.439  0.00  0.00    +0.000 A 
ATOM     11  C   UNL     1       7.787   5.038  12.590  0.00  0.00    +0.000 A 
ATOM     12  C   UNL     1       7.145   4.863  13.809  0.00  0.00    +0.000 A 
ATOM     13  N   UNL     1       7.578   5.532  14.893  0.00  0.00    +0.000 NA
ENDBRANCH   2   4
ENDBRANCH   1   2
BRANCH   1  14
ATOM     14  C   UNL     1       6.897   5.515  19.496  0.00  0.00    +0.000 C 
BRANCH  14  16
ATOM     15  O   UNL     1       4.584   6.106  19.274  0.00  0.00    +0.000 OA
ATOM     16  C   UNL     1       5.400   5.193  19.395  0.00  0.00    +0.000 C 
ATOM     17  N   UNL     1       5.092   3.848  19.517  0.00  0.00    +0.000 N 
ATOM     18  H   UNL     1       5.841   3.232  19.835  0.00  0.00    +0.000 HD
BRANCH  17  19
ATOM     19  C   UNL     1       3.822   3.261  19.332  0.00  0.00    +0.000 A 
ATOM     20  C   UNL     1       3.398   2.744  18.105  0.00  0.00    +0.000 A 
ATOM     21  C   UNL     1       2.136   2.159  17.972  0.00  0.00    +0.000 A 
ATOM     22  C   UNL     1       1.282   2.084  19.068  0.00  0.00    +0.000 A 
ATOM     23  C   UNL     1       1.696   2.588  20.300  0.00  0.00    +0.000 A 
ATOM     24  C   UNL     1       2.964   3.165  20.434  0.00  0.00    +0.000 A 
ENDBRANCH  17  19
ENDBRANCH  14  16
ENDBRANCH   1  14
TORSDOF 5
ENDMDL
MODEL 4
REMARK VINA RESULT:      -7.8      3.538      5.430
REMARK  Name = 
REMARK  5 active torsions:
REMARK  status: ('A' for Active; 'I' for Inactive)
REMARK    1  A    between atoms: C_2  and  C_3
REMARK    2  A    between atoms: C_3  and  O_4
REMARK    3  A    between atoms: O_4  and  C_5
REMARK    4  A    between atoms: C_5  and  C_7
REMARK    5  A    between atoms: N_17  and  C_18
REMARK                            x       y       z     vdW  Elec       q    Type
REMARK                         _______ _______ _______ _____ _____    ______ ____
ROOT
ATOM      1  O   UNL     1       7.739   5.337  18.121  0.00  0.00    +0.000 OA
ENDROOT
BRANCH   1   2
ATOM      2  C   UNL     1       7.340   6.186  17.144  0.00  0.00    +0.000 C 
ATOM      3  O   UNL     1       7.501   7.399  17.168  0.00  0.00    +0.000 OA
BRANCH   2   4
ATOM      4  C   UNL     1       6.727   5.465  15.993  0.00  0.00    +0.000 A 
ATOM      5  C   UNL     1       5.411   5.052  16.118  0.00  0.00    +0.000 A 
ATOM      6  C   UNL     1       4.821   4.406  15.043  0.00  0.00    +0.000 A 
ATOM      7  C   UNL     1       5.562   4.185  13.879  0.00  0.00    +0.000 A 
ATOM      8  C   UNL     1       4.998   3.530  12.773  0.00  0.00    +0.000 A 
ATOM      9  C   UNL     1       5.756   3.313  11.625  0.00  0.00    +0.000 A 
ATOM     10  C   UNL     1       7.074   3.753  11.577  0.00  0.00    +0.000 A 
ATOM     11  C   UNL     1       7.630   4.412  12.679  0.00  0.00    +0.000 A 
ATOM     12  C   UNL     1       6.901   4.636  13.839  0.00  0.00    +0.000 A 
ATOM     13  N   UNL     1       7.477   5.268  14.878  0.00  0.00    +0.000 NA
ENDBRANCH   2   4
ENDBRANCH   1   2
BRANCH   1  14
ATOM     14  C   UNL     1       7.084   5.516  19.376  0.00  0.00    +0.000 C 
BRANCH  14  16
ATOM     15  O   UNL     1       4.743   6.022  19.440  0.00  0.00    +0.000 OA
ATOM     16  C   UNL     1       5.598   5.138  19.386  0.00  0.00    +0.000 C 
ATOM     17  N   UNL     1       5.349   3.776  19.396  0.00  0.00    +0.000 N 
ATOM     18  H   UNL     1       6.147   3.165  19.574  0.00  0.00    +0.000 HD
BRANCH  17  19
ATOM     19  C   UNL     1       4.089   3.154  19.273  0.00  0.00    +0.000 A 
ATOM     20  C   UNL     1       3.199   3.027  20.343  0.00  0.00    +0.000 A 
ATOM     21  C   UNL     1       1.956   2.415  20.172  0.00  0.00    +0.000 A 
ATOM     22  C   UNL     1       1.586   1.921  18.925  0.00  0.00    +0.000 A 
ATOM     23  C   UNL     1       2.459   2.049  17.846  0.00  0.00    +0.000 A 
ATOM     24  C   UNL     1       3.702   2.671  18.017  0.00  0.00    +0.000 A 
ENDBRANCH  17  19
ENDBRANCH  14  16
ENDBRANCH   1  14
TORSDOF 5
ENDMDL
MODEL 5
REMARK VINA RESULT:      -7.7      4.025      6.942
REMARK  Name = 
REMARK  5 active torsions:
REMARK  status: ('A' for Active; 'I' for Inactive)
REMARK    1  A    between atoms: C_2  and  C_3
REMARK    2  A    between atoms: C_3  and  O_4
REMARK    3  A    between atoms: O_4  and  C_5
REMARK    4  A    between atoms: C_5  and  C_7
REMARK    5  A    between atoms: N_17  and  C_18
REMARK                            x       y       z     vdW  Elec       q    Type
REMARK                         _______ _______ _______ _____ _____    ______ ____
ROOT
ATOM      1  O   UNL     1       6.431   6.722  17.394  0.00  0.00    +0.000 OA
ENDROOT
BRANCH   1   2
ATOM      2  C   UNL     1       5.451   6.291  16.565  0.00  0.00    +0.000 C 
ATOM      3  O   UNL     1       5.364   6.582  15.380  0.00  0.00    +0.000 OA
BRANCH   2   4
ATOM      4  C   UNL     1       4.507   5.363  17.250  0.00  0.00    +0.000 A 
ATOM      5  C   UNL     1       4.464   4.049  16.814  0.00  0.00    +0.000 A 
ATOM      6  C   UNL     1       3.611   3.170  17.464  0.00  0.00    +0.000 A 
ATOM      7  C   UNL     1       2.823   3.629  18.522  0.00  0.00    +0.000 A 
ATOM      8  C   UNL     1       1.945   2.767  19.199  0.00  0.00    +0.000 A 
ATOM      9  C   UNL     1       1.161   3.245  20.246  0.00  0.00    +0.000 A 
ATOM     10  C   UNL     1       1.257   4.580  20.623  0.00  0.00    +0.000 A 
ATOM     11  C   UNL     1       2.138   5.434  19.951  0.00  0.00    +0.000 A 
ATOM     12  C   UNL     1       2.926   4.987  18.899  0.00  0.00    +0.000 A 
ATOM     13  N   UNL     1       3.755   5.843  18.275  0.00  0.00    +0.000 NA
ENDBRANCH   2   4
ENDBRANCH   1   2
BRANCH   1  14
ATOM     14  C   UNL     1       6.985   7.993  17.059  0.00  0.00    +0.000 C 
BRANCH  14  16
ATOM     15  O   UNL     1       8.610   7.712  18.798  0.00  0.00    +0.000 OA
ATOM     16  C   UNL     1       8.067   8.498  18.022  0.00  0.00    +0.000 C 
ATOM     17  N   UNL     1       8.296   9.863  17.965  0.00  0.00    +0.000 N 
ATOM     18  H   UNL     1       7.622  10.420  17.440  0.00  0.00    +0.000 HD
BRANCH  17  19
ATOM     19  C   UNL     1       9.317  10.569  18.637  0.00  0.00    +0.000 A 
ATOM     20  C   UNL     1       9.296  10.803  20.015  0.00  0.00    +0.000 A 
ATOM     21  C   UNL     1      10.335  11.496  20.639  0.00  0.00    +0.000 A 
ATOM     22  C   UNL     1      11.411  11.964  19.891  0.00  0.00    +0.000 A 
ATOM     23  C   UNL     1      11.450  11.730  18.518  0.00  0.00    +0.000 A 
ATOM     24  C   UNL     1      10.412  11.027  17.894  0.00  0.00    +0.000 A 
ENDBRANCH  17  19
ENDBRANCH  14  16
ENDBRANCH   1  14
TORSDOF 5
ENDMDL
MODEL 6
REMARK VINA RESULT:      -7.7      4.509      7.019
REMARK  Name = 
REMARK  5 active torsions:
REMARK  status: ('A' for Active; 'I' for Inactive)
REMARK    1  A    between atoms: C_2  and  C_3
REMARK    2  A    between atoms: C_3  and  O_4
REMARK    3  A    between atoms: O_4  and  C_5
REMARK    4  A    between atoms: C_5  and  C_7
REMARK    5  A    between atoms: N_17  and  C_18
REMARK                            x       y       z     vdW  Elec       q    Type
REMARK                         _______ _______ _______ _____ _____    ______ ____
ROOT
ATOM      1  O   UNL     1       6.916   7.464  17.006  0.00  0.00    +0.000 OA
ENDROOT
BRANCH   1   2
ATOM      2  C   UNL     1       6.704   6.164  16.691  0.00  0.00    +0.000 C 
ATOM      3  O   UNL     1       7.524   5.437  16.146  0.00  0.00    +0.000 OA
BRANCH   2   4
ATOM      4  C   UNL     1       5.363   5.692  17.139  0.00  0.00    +0.000 A 
ATOM      5  C   UNL     1       4.411   6.650  17.444  0.00  0.00    +0.000 A 
ATOM      6  C   UNL     1       3.151   6.222  17.834  0.00  0.00    +0.000 A 
ATOM      7  C   UNL     1       2.882   4.853  17.915  0.00  0.00    +0.000 A 
ATOM      8  C   UNL     1       1.619   4.385  18.311  0.00  0.00    +0.000 A 
ATOM      9  C   UNL     1       1.372   3.017  18.394  0.00  0.00    +0.000 A 
ATOM     10  C   UNL     1       2.382   2.116  18.076  0.00  0.00    +0.000 A 
ATOM     11  C   UNL     1       3.637   2.586  17.675  0.00  0.00    +0.000 A 
ATOM     12  C   UNL     1       3.914   3.944  17.590  0.00  0.00    +0.000 A 
ATOM     13  N   UNL     1       5.136   4.353  17.207  0.00  0.00    +0.000 NA
ENDBRANCH   2   4
ENDBRANCH   1   2
BRANCH   1  14
ATOM     14  C   UNL     1       7.901   7.684  18.014  0.00  0.00    +0.000 C 
BRANCH  14  16
ATOM     15  O   UNL     1       7.819  10.021  17.487  0.00  0.00    +0.000 OA
ATOM     16  C   UNL     1       8.307   9.151  18.208  0.00  0.00    +0.000 C 
ATOM     17  N   UNL     1       9.273   9.357  19.178  0.00  0.00    +0.000 N 
ATOM     18  H   UNL     1       9.746   8.528  19.538  0.00  0.00    +0.000 HD
BRANCH  17  19
ATOM     19  C   UNL     1       9.730  10.605  19.652  0.00  0.00    +0.000 A 
ATOM     20  C   UNL     1      10.669  11.379  18.965  0.00  0.00    +0.000 A 
ATOM     21  C   UNL     1      11.083  12.615  19.466  0.00  0.00    +0.000 A 
ATOM     22  C   UNL     1      10.561  13.094  20.664  0.00  0.00    +0.000 A 
ATOM     23  C   UNL     1       9.617  12.337  21.355  0.00  0.00    +0.000 A 
ATOM     24  C   UNL     1       9.196  11.102  20.847  0.00  0.00    +0.000 A 
ENDBRANCH  17  19
ENDBRANCH  14  16
ENDBRANCH   1  14
TORSDOF 5
ENDMDL
MODEL 7
REMARK VINA RESULT:      -7.7      3.416      6.626
REMARK  Name = 
REMARK  5 active torsions:
REMARK  status: ('A' for Active; 'I' for Inactive)
REMARK    1  A    between atoms: C_2  and  C_3
REMARK    2  A    between atoms: C_3  and  O_4
REMARK    3  A    between atoms: O_4  and  C_5
REMARK    4  A    between atoms: C_5  and  C_7
REMARK    5  A    between atoms: N_17  and  C_18
REMARK                            x       y       z     vdW  Elec       q    Type
REMARK                         _______ _______ _______ _____ _____    ______ ____
ROOT
ATOM      1  O   UNL     1       7.056   6.457  18.647  0.00  0.00    +0.000 OA
ENDROOT
BRANCH   1   2
ATOM      2  C   UNL     1       6.807   5.126  18.603  0.00  0.00    +0.000 C 
ATOM      3  O   UNL     1       7.657   4.266  18.419  0.00  0.00    +0.000 OA
BRANCH   2   4
ATOM      4  C   UNL     1       5.373   4.817  18.863  0.00  0.00    +0.000 A 
ATOM      5  C   UNL     1       4.592   5.809  19.432  0.00  0.00    +0.000 A 
ATOM      6  C   UNL     1       3.250   5.542  19.652  0.00  0.00    +0.000 A 
ATOM      7  C   UNL     1       2.728   4.292  19.305  0.00  0.00    +0.000 A 
ATOM      8  C   UNL     1       1.375   3.986  19.518  0.00  0.00    +0.000 A 
ATOM      9  C   UNL     1       0.876   2.733  19.173  0.00  0.00    +0.000 A 
ATOM     10  C   UNL     1       1.725   1.786  18.610  0.00  0.00    +0.000 A 
ATOM     11  C   UNL     1       3.072   2.097  18.393  0.00  0.00    +0.000 A 
ATOM     12  C   UNL     1       3.598   3.336  18.734  0.00  0.00    +0.000 A 
ATOM     13  N   UNL     1       4.900   3.591  18.514  0.00  0.00    +0.000 NA
ENDBRANCH   2   4
ENDBRANCH   1   2
BRANCH   1  14
ATOM     14  C   UNL     1       7.389   7.047  17.392  0.00  0.00    +0.000 C 
BRANCH  14  16
ATOM     15  O   UNL     1       5.521   6.809  15.910  0.00  0.00    +0.000 OA
ATOM     16  C   UNL     1       6.664   6.443  16.183  0.00  0.00    +0.000 C 
ATOM     17  N   UNL     1       7.373   5.454  15.521  0.00  0.00    +0.000 N 
ATOM     18  H   UNL     1       8.208   5.099  15.987  0.00  0.00    +0.000 HD
BRANCH  17  19
ATOM     19  C   UNL     1       7.006   4.828  14.311  0.00  0.00    +0.000 A 
ATOM     20  C   UNL     1       5.926   3.947  14.211  0.00  0.00    +0.000 A 
ATOM     21  C   UNL     1       5.591   3.360  12.989  0.00  0.00    +0.000 A 
ATOM     22  C   UNL     1       6.334   3.649  11.848  0.00  0.00    +0.000 A 
ATOM     23  C   UNL     1       7.408   4.533  11.931  0.00  0.00    +0.000 A 
ATOM     24  C   UNL     1       7.737   5.128  13.155  0.00  0.00    +0.000 A 
ENDBRANCH  17  19
ENDBRANCH  14  16
ENDBRANCH   1  14
TORSDOF 5
ENDMDL
MODEL 8
REMARK VINA RESULT:      -7.7      3.758      6.588
REMARK  Name = 
REMARK  5 active torsions:
REMARK  status: ('A' for Active; 'I' for Inactive)
REMARK    1  A    between atoms: C_2  and  C_3
REMARK    2  A    between atoms: C_3  and  O_4
REMARK    3  A    between atoms: O_4  and  C_5
REMARK    4  A    between atoms: C_5  and  C_7
REMARK    5  A    between atoms: N_17  and  C_18
REMARK                            x       y       z     vdW  Elec       q    Type
REMARK                         _______ _______ _______ _____ _____    ______ ____
ROOT
ATOM      1  O   UNL     1       7.431   6.156  16.709  0.00  0.00    +0.000 OA
ENDROOT
BRANCH   1   2
ATOM      2  C   UNL     1       7.231   5.079  17.507  0.00  0.00    +0.000 C 
ATOM      3  O   UNL     1       8.119   4.468  18.085  0.00  0.00    +0.000 OA
BRANCH   2   4
ATOM      4  C   UNL     1       5.785   4.750  17.650  0.00  0.00    +0.000 A 
ATOM      5  C   UNL     1       5.124   4.253  16.539  0.00  0.00    +0.000 A 
ATOM      6  C   UNL     1       3.785   3.917  16.669  0.00  0.00    +0.000 A 
ATOM      7  C   UNL     1       3.145   4.092  17.899  0.00  0.00    +0.000 A 
ATOM      8  C   UNL     1       1.790   3.767  18.065  0.00  0.00    +0.000 A 
ATOM      9  C   UNL     1       1.168   3.956  19.296  0.00  0.00    +0.000 A 
ATOM     10  C   UNL     1       1.899   4.466  20.364  0.00  0.00    +0.000 A 
ATOM     11  C   UNL     1       3.251   4.783  20.197  0.00  0.00    +0.000 A 
ATOM     12  C   UNL     1       3.895   4.610  18.979  0.00  0.00    +0.000 A 
ATOM     13  N   UNL     1       5.195   4.934  18.860  0.00  0.00    +0.000 NA
ENDBRANCH   2   4
ENDBRANCH   1   2
BRANCH   1  14
ATOM     14  C   UNL     1       7.022   7.402  17.271  0.00  0.00    +0.000 C 
BRANCH  14  16
ATOM     15  O   UNL     1       8.681   7.422  19.001  0.00  0.00    +0.000 OA
ATOM     16  C   UNL     1       8.070   8.082  18.161  0.00  0.00    +0.000 C 
ATOM     17  N   UNL     1       8.192   9.448  17.966  0.00  0.00    +0.000 N 
ATOM     18  H   UNL     1       7.472   9.897  17.399  0.00  0.00    +0.000 HD
BRANCH  17  19
ATOM     19  C   UNL     1       9.161  10.293  18.547  0.00  0.00    +0.000 A 
ATOM     20  C   UNL     1      10.153  10.935  17.801  0.00  0.00    +0.000 A 
ATOM     21  C   UNL     1      11.083  11.774  18.418  0.00  0.00    +0.000 A 
ATOM     22  C   UNL     1      11.033  11.981  19.794  0.00  0.00    +0.000 A 
ATOM     23  C   UNL     1      10.044  11.355  20.549  0.00  0.00    +0.000 A 
ATOM     24  C   UNL     1       9.105  10.521  19.928  0.00  0.00    +0.000 A 
ENDBRANCH  17  19
ENDBRANCH  14  16
ENDBRANCH   1  14
TORSDOF 5
ENDMDL
MODEL 9
REMARK VINA RESULT:      -7.6      4.044      6.987
REMARK  Name = 
REMARK  5 active torsions:
REMARK  status: ('A' for Active; 'I' for Inactive)
REMARK    1  A    between atoms: C_2  and  C_3
REMARK    2  A    between atoms: C_3  and  O_4
REMARK    3  A    between atoms: O_4  and  C_5
REMARK    4  A    between atoms: C_5  and  C_7
REMARK    5  A    between atoms: N_17  and  C_18
REMARK                            x       y       z     vdW  Elec       q    Type
REMARK                         _______ _______ _______ _____ _____    ______ ____
ROOT
ATOM      1  O   UNL     1       6.156   7.041  17.630  0.00  0.00    +0.000 OA
ENDROOT
BRANCH   1   2
ATOM      2  C   UNL     1       5.715   6.118  16.742  0.00  0.00    +0.000 C 
ATOM      3  O   UNL     1       6.200   5.932  15.634  0.00  0.00    +0.000 OA
BRANCH   2   4
ATOM      4  C   UNL     1       4.596   5.303  17.293  0.00  0.00    +0.000 A 
ATOM      5  C   UNL     1       4.254   4.140  16.623  0.00  0.00    +0.000 A 
ATOM      6  C   UNL     1       3.234   3.359  17.142  0.00  0.00    +0.000 A 
ATOM      7  C   UNL     1       2.580   3.765  18.309  0.00  0.00    +0.000 A 
ATOM      8  C   UNL     1       1.539   3.001  18.861  0.00  0.00    +0.000 A 
ATOM      9  C   UNL     1       0.895   3.425  20.019  0.00  0.00    +0.000 A 
ATOM     10  C   UNL     1       1.292   4.609  20.633  0.00  0.00    +0.000 A 
ATOM     11  C   UNL     1       2.335   5.364  20.084  0.00  0.00    +0.000 A 
ATOM     12  C   UNL     1       2.990   4.968  18.926  0.00  0.00    +0.000 A 
ATOM     13  N   UNL     1       3.983   5.727  18.429  0.00  0.00    +0.000 NA
ENDBRANCH   2   4
ENDBRANCH   1   2
BRANCH   1  14
ATOM     14  C   UNL     1       7.027   8.030  17.085  0.00  0.00    +0.000 C 
BRANCH  14  16
ATOM     15  O   UNL     1       8.640   7.752  18.835  0.00  0.00    +0.000 OA
ATOM     16  C   UNL     1       8.112   8.534  18.046  0.00  0.00    +0.000 C 
ATOM     17  N   UNL     1       8.360   9.895  17.971  0.00  0.00    +0.000 N 
ATOM     18  H   UNL     1       7.696  10.454  17.435  0.00  0.00    +0.000 HD
BRANCH  17  19
ATOM     19  C   UNL     1       9.387  10.595  18.638  0.00  0.00    +0.000 A 
ATOM     20  C   UNL     1      10.519  11.085  17.983  0.00  0.00    +0.000 A 
ATOM     21  C   UNL     1      11.505  11.785  18.683  0.00  0.00    +0.000 A 
ATOM     22  C   UNL     1      11.369  12.004  20.050  0.00  0.00    +0.000 A 
ATOM     23  C   UNL     1      10.240  11.529  20.715  0.00  0.00    +0.000 A 
ATOM     24  C   UNL     1       9.248  10.836  20.011  0.00  0.00    +0.000 A 
ENDBRANCH  17  19
ENDBRANCH  14  16
ENDBRANCH   1  14
TORSDOF 5
ENDMDL
