MODEL 1
REMARK VINA RESULT:      -7.8      0.000      0.000
REMARK  Name = 
REMARK  1 active torsions:
REMARK  status: ('A' for Active; 'I' for Inactive)
REMARK    1  A    between atoms: N_17  and  C_18
REMARK                            x       y       z     vdW  Elec       q    Type
REMARK                         _______ _______ _______ _____ _____    ______ ____
ROOT
ATOM      1  O   UNL     1       0.778   8.227  21.030  0.00  0.00    +0.000 OA
ATOM      2  C   UNL     1       1.337   8.279  19.938  0.00  0.00    +0.000 A 
ATOM      3  C   UNL     1       2.208   7.248  19.451  0.00  0.00    +0.000 A 
ATOM      4  S   UNL     1       2.453   5.779  20.286  0.00  0.00    +0.000 S 
ATOM      5  C   UNL     1       3.501   5.217  19.072  0.00  0.00    +0.000 A 
ATOM      6  N   UNL     1       4.081   3.999  19.091  0.00  0.00    +0.000 NA
ATOM      7  C   UNL     1       4.903   3.698  18.041  0.00  0.00    +0.000 A 
ATOM      8  C   UNL     1       5.149   4.609  17.008  0.00  0.00    +0.000 A 
ATOM      9  C   UNL     1       5.895   4.695  15.815  0.00  0.00    +0.000 A 
ATOM     10  N   UNL     1       5.748   5.881  15.200  0.00  0.00    +0.000 NA
ATOM     11  N   UNL     1       4.891   6.559  16.006  0.00  0.00    +0.000 N 
ATOM     12  C   UNL     1       4.521   5.828  17.062  0.00  0.00    +0.000 A 
ATOM     13  C   UNL     1       3.677   6.162  18.082  0.00  0.00    +0.000 A 
ATOM     14  C   UNL     1       2.922   7.344  18.283  0.00  0.00    +0.000 A 
ATOM     15  N   UNL     1       2.841   8.470  17.450  0.00  0.00    +0.000 NA
ATOM     16  C   UNL     1       2.019   9.386  17.887  0.00  0.00    +0.000 A 
ATOM     17  N   UNL     1       1.256   9.365  19.055  0.00  0.00    +0.000 N 
ATOM     18  H   UNL     1       4.633   7.511  15.756  0.00  0.00    +0.000 HD
ENDROOT
BRANCH  17  19
ATOM     19  C   UNL     1       0.432  10.480  19.416  0.00  0.00    +0.000 A 
ATOM     20  C   UNL     1       0.912  11.480  20.274  0.00  0.00    +0.000 A 
ATOM     21  C   UNL     1       0.060  12.502  20.714  0.00  0.00    +0.000 A 
ATOM     22  C   UNL     1      -1.260  12.557  20.268  0.00  0.00    +0.000 A 
ATOM     23 CL   UNL     1      -2.303  13.809  20.818  0.00  0.00    +0.000 Cl
ATOM     24  C   UNL     1      -1.740  11.593  19.389  0.00  0.00    +0.000 A 
ATOM     25  C   UNL     1      -0.901  10.553  18.977  0.00  0.00    +0.000 A 
ENDBRANCH  17  19
TORSDOF 1
ENDMDL
MODEL 2
REMARK VINA RESULT:      -7.7      1.906      3.203
REMARK  Name = 
REMARK  1 active torsions:
REMARK  status: ('A' for Active; 'I' for Inactive)
REMARK    1  A    between atoms: N_17  and  C_18
REMARK                            x       y       z     vdW  Elec       q    Type
REMARK                         _______ _______ _______ _____ _____    ______ ____
ROOT
ATOM      1  O   UNL     1       2.121   9.655  17.590  0.00  0.00    +0.000 OA
ATOM      2  C   UNL     1       1.961   8.951  18.584  0.00  0.00    +0.000 A 
ATOM      3  C   UNL     1       2.457   7.609  18.684  0.00  0.00    +0.000 A 
ATOM      4  S   UNL     1       3.438   6.897  17.482  0.00  0.00    +0.000 S 
ATOM      5  C   UNL     1       3.562   5.459  18.377  0.00  0.00    +0.000 A 
ATOM      6  N   UNL     1       4.287   4.391  17.980  0.00  0.00    +0.000 NA
ATOM      7  C   UNL     1       4.282   3.307  18.811  0.00  0.00    +0.000 A 
ATOM      8  C   UNL     1       3.550   3.291  20.004  0.00  0.00    +0.000 A 
ATOM      9  C   UNL     1       3.282   2.421  21.080  0.00  0.00    +0.000 A 
ATOM     10  N   UNL     1       2.454   2.966  21.989  0.00  0.00    +0.000 NA
ATOM     11  N   UNL     1       2.198   4.204  21.491  0.00  0.00    +0.000 N 
ATOM     12  C   UNL     1       2.838   4.415  20.337  0.00  0.00    +0.000 A 
ATOM     13  C   UNL     1       2.831   5.528  19.545  0.00  0.00    +0.000 A 
ATOM     14  C   UNL     1       2.193   6.777  19.743  0.00  0.00    +0.000 A 
ATOM     15  N   UNL     1       1.417   7.188  20.838  0.00  0.00    +0.000 NA
ATOM     16  C   UNL     1       1.000   8.422  20.750  0.00  0.00    +0.000 A 
ATOM     17  N   UNL     1       1.227   9.331  19.717  0.00  0.00    +0.000 N 
ATOM     18  H   UNL     1       1.568   4.817  22.003  0.00  0.00    +0.000 HD
ENDROOT
BRANCH  17  19
ATOM     19  C   UNL     1       0.655  10.644  19.753  0.00  0.00    +0.000 A 
ATOM     20  C   UNL     1       1.334  11.706  20.370  0.00  0.00    +0.000 A 
ATOM     21  C   UNL     1       0.716  12.956  20.504  0.00  0.00    +0.000 A 
ATOM     22  C   UNL     1      -0.561  13.168  19.987  0.00  0.00    +0.000 A 
ATOM     23 CL   UNL     1      -1.318  14.702  20.163  0.00  0.00    +0.000 Cl
ATOM     24  C   UNL     1      -1.232  12.136  19.342  0.00  0.00    +0.000 A 
ATOM     25  C   UNL     1      -0.631  10.878  19.238  0.00  0.00    +0.000 A 
ENDBRANCH  17  19
TORSDOF 1
ENDMDL
MODEL 3
REMARK VINA RESULT:      -7.6      1.966      3.396
REMARK  Name = 
REMARK  1 active torsions:
REMARK  status: ('A' for Active; 'I' for Inactive)
REMARK    1  A    between atoms: N_17  and  C_18
REMARK                            x       y       z     vdW  Elec       q    Type
REMARK                         _______ _______ _______ _____ _____    ______ ____
ROOT
ATOM      1  O   UNL     1       2.195   9.627  17.541  0.00  0.00    +0.000 OA
ATOM      2  C   UNL     1       2.009   8.935  18.538  0.00  0.00    +0.000 A 
ATOM      3  C   UNL     1       2.493   7.590  18.662  0.00  0.00    +0.000 A 
ATOM      4  S   UNL     1       3.493   6.858  17.488  0.00  0.00    +0.000 S 
ATOM      5  C   UNL     1       3.587   5.429  18.400  0.00  0.00    +0.000 A 
ATOM      6  N   UNL     1       4.312   4.352  18.029  0.00  0.00    +0.000 NA
ATOM      7  C   UNL     1       4.282   3.276  18.871  0.00  0.00    +0.000 A 
ATOM      8  C   UNL     1       3.525   3.278  20.048  0.00  0.00    +0.000 A 
ATOM      9  C   UNL     1       3.227   2.421  21.127  0.00  0.00    +0.000 A 
ATOM     10  N   UNL     1       2.385   2.981  22.012  0.00  0.00    +0.000 NA
ATOM     11  N   UNL     1       2.148   4.216  21.497  0.00  0.00    +0.000 N 
ATOM     12  C   UNL     1       2.814   4.411  20.354  0.00  0.00    +0.000 A 
ATOM     13  C   UNL     1       2.833   5.515  19.552  0.00  0.00    +0.000 A 
ATOM     14  C   UNL     1       2.200   6.771  19.724  0.00  0.00    +0.000 A 
ATOM     15  N   UNL     1       1.404   7.198  20.798  0.00  0.00    +0.000 NA
ATOM     16  C   UNL     1       0.998   8.435  20.688  0.00  0.00    +0.000 A 
ATOM     17  N   UNL     1       1.254   9.331  19.651  0.00  0.00    +0.000 N 
ATOM     18  H   UNL     1       1.512   4.838  21.989  0.00  0.00    +0.000 HD
ENDROOT
BRANCH  17  19
ATOM     19  C   UNL     1       0.692  10.649  19.662  0.00  0.00    +0.000 A 
ATOM     20  C   UNL     1      -0.514  10.921  18.999  0.00  0.00    +0.000 A 
ATOM     21  C   UNL     1      -0.994  12.235  18.916  0.00  0.00    +0.000 A 
ATOM     22  C   UNL     1      -0.298  13.277  19.529  0.00  0.00    +0.000 A 
ATOM     23 CL   UNL     1      -0.888  14.889  19.416  0.00  0.00    +0.000 Cl
ATOM     24  C   UNL     1       0.880  13.018  20.219  0.00  0.00    +0.000 A 
ATOM     25  C   UNL     1       1.377  11.712  20.273  0.00  0.00    +0.000 A 
ENDBRANCH  17  19
TORSDOF 1
ENDMDL
MODEL 4
REMARK VINA RESULT:      -7.4      4.006      8.161
REMARK  Name = 
REMARK  1 active torsions:
REMARK  status: ('A' for Active; 'I' for Inactive)
REMARK    1  A    between atoms: N_17  and  C_18
REMARK                            x       y       z     vdW  Elec       q    Type
REMARK                         _______ _______ _______ _____ _____    ______ ____
ROOT
ATOM      1  O   UNL     1       3.010   7.557  17.501  0.00  0.00    +0.000 OA
ATOM      2  C   UNL     1       2.348   7.664  18.531  0.00  0.00    +0.000 A 
ATOM      3  C   UNL     1       1.806   8.910  18.989  0.00  0.00    +0.000 A 
ATOM      4  S   UNL     1       1.912  10.352  18.081  0.00  0.00    +0.000 S 
ATOM      5  C   UNL     1       1.054  11.212  19.268  0.00  0.00    +0.000 A 
ATOM      6  N   UNL     1       0.733  12.518  19.159  0.00  0.00    +0.000 NA
ATOM      7  C   UNL     1       0.043  13.066  20.203  0.00  0.00    +0.000 A 
ATOM      8  C   UNL     1      -0.297  12.322  21.339  0.00  0.00    +0.000 A 
ATOM      9  C   UNL     1      -0.956  12.497  22.572  0.00  0.00    +0.000 A 
ATOM     10  N   UNL     1      -0.976  11.374  23.310  0.00  0.00    +0.000 NA
ATOM     11  N   UNL     1      -0.328  10.466  22.534  0.00  0.00    +0.000 N 
ATOM     12  C   UNL     1       0.067  11.000  21.374  0.00  0.00    +0.000 A 
ATOM     13  C   UNL     1       0.739  10.407  20.344  0.00  0.00    +0.000 A 
ATOM     14  C   UNL     1       1.159   9.062  20.190  0.00  0.00    +0.000 A 
ATOM     15  N   UNL     1       0.959   7.988  21.071  0.00  0.00    +0.000 NA
ATOM     16  C   UNL     1       1.427   6.853  20.626  0.00  0.00    +0.000 A 
ATOM     17  N   UNL     1       2.089   6.613  19.422  0.00  0.00    +0.000 N 
ATOM     18  H   UNL     1      -0.196   9.523  22.891  0.00  0.00    +0.000 HD
ENDROOT
BRANCH  17  19
ATOM     19  C   UNL     1       2.584   5.307  19.102  0.00  0.00    +0.000 A 
ATOM     20  C   UNL     1       1.829   4.426  18.313  0.00  0.00    +0.000 A 
ATOM     21  C   UNL     1       2.267   3.111  18.105  0.00  0.00    +0.000 A 
ATOM     22  C   UNL     1       3.479   2.682  18.644  0.00  0.00    +0.000 A 
ATOM     23 CL   UNL     1       4.007   1.065  18.392  0.00  0.00    +0.000 Cl
ATOM     24  C   UNL     1       4.256   3.553  19.397  0.00  0.00    +0.000 A 
ATOM     25  C   UNL     1       3.803   4.855  19.635  0.00  0.00    +0.000 A 
ENDBRANCH  17  19
TORSDOF 1
ENDMDL
MODEL 5
REMARK VINA RESULT:      -7.4      3.711      7.660
REMARK  Name = 
REMARK  1 active torsions:
REMARK  status: ('A' for Active; 'I' for Inactive)
REMARK    1  A    between atoms: N_17  and  C_18
REMARK                            x       y       z     vdW  Elec       q    Type
REMARK                         _______ _______ _______ _____ _____    ______ ____
ROOT
ATOM      1  O   UNL     1       1.445   6.256  21.124  0.00  0.00    +0.000 OA
ATOM      2  C   UNL     1       1.652   7.157  20.314  0.00  0.00    +0.000 A 
ATOM      3  C   UNL     1       1.254   8.517  20.533  0.00  0.00    +0.000 A 
ATOM      4  S   UNL     1       0.566   9.051  22.001  0.00  0.00    +0.000 S 
ATOM      5  C   UNL     1       0.460  10.644  21.418  0.00  0.00    +0.000 A 
ATOM      6  N   UNL     1      -0.008  11.677  22.150  0.00  0.00    +0.000 NA
ATOM      7  C   UNL     1      -0.034  12.897  21.535  0.00  0.00    +0.000 A 
ATOM      8  C   UNL     1       0.383  13.069  20.210  0.00  0.00    +0.000 A 
ATOM      9  C   UNL     1       0.501  14.096  19.253  0.00  0.00    +0.000 A 
ATOM     10  N   UNL     1       0.980  13.653  18.078  0.00  0.00    +0.000 NA
ATOM     11  N   UNL     1       1.178  12.326  18.290  0.00  0.00    +0.000 N 
ATOM     12  C   UNL     1       0.845  11.968  19.534  0.00  0.00    +0.000 A 
ATOM     13  C   UNL     1       0.907  10.735  20.116  0.00  0.00    +0.000 A 
ATOM     14  C   UNL     1       1.383   9.508  19.592  0.00  0.00    +0.000 A 
ATOM     15  N   UNL     1       1.941   9.267  18.327  0.00  0.00    +0.000 NA
ATOM     16  C   UNL     1       2.331   8.032  18.153  0.00  0.00    +0.000 A 
ATOM     17  N   UNL     1       2.240   6.972  19.055  0.00  0.00    +0.000 N 
ATOM     18  H   UNL     1       1.528  11.754  17.525  0.00  0.00    +0.000 HD
ENDROOT
BRANCH  17  19
ATOM     19  C   UNL     1       2.677   5.657  18.690  0.00  0.00    +0.000 A 
ATOM     20  C   UNL     1       1.866   4.823  17.905  0.00  0.00    +0.000 A 
ATOM     21  C   UNL     1       2.249   3.499  17.653  0.00  0.00    +0.000 A 
ATOM     22  C   UNL     1       3.460   3.013  18.143  0.00  0.00    +0.000 A 
ATOM     23 CL   UNL     1       3.921   1.384  17.838  0.00  0.00    +0.000 Cl
ATOM     24  C   UNL     1       4.291   3.837  18.893  0.00  0.00    +0.000 A 
ATOM     25  C   UNL     1       3.893   5.148  19.174  0.00  0.00    +0.000 A 
ENDBRANCH  17  19
TORSDOF 1
ENDMDL
MODEL 6
REMARK VINA RESULT:      -7.4      3.494      7.730
REMARK  Name = 
REMARK  1 active torsions:
REMARK  status: ('A' for Active; 'I' for Inactive)
REMARK    1  A    between atoms: N_17  and  C_18
REMARK                            x       y       z     vdW  Elec       q    Type
REMARK                         _______ _______ _______ _____ _____    ______ ____
ROOT
ATOM      1  O   UNL     1       2.420   6.308  20.364  0.00  0.00    +0.000 OA
ATOM      2  C   UNL     1       2.216   7.335  19.722  0.00  0.00    +0.000 A 
ATOM      3  C   UNL     1       1.402   8.413  20.204  0.00  0.00    +0.000 A 
ATOM      4  S   UNL     1       0.741   8.437  21.777  0.00  0.00    +0.000 S 
ATOM      5  C   UNL     1       0.031   9.955  21.500  0.00  0.00    +0.000 A 
ATOM      6  N   UNL     1      -0.679  10.629  22.430  0.00  0.00    +0.000 NA
ATOM      7  C   UNL     1      -1.190  11.838  22.050  0.00  0.00    +0.000 A 
ATOM      8  C   UNL     1      -1.007  12.347  20.759  0.00  0.00    +0.000 A 
ATOM      9  C   UNL     1      -1.355  13.482  20.000  0.00  0.00    +0.000 A 
ATOM     10  N   UNL     1      -0.887  13.423  18.741  0.00  0.00    +0.000 NA
ATOM     11  N   UNL     1      -0.223  12.239  18.698  0.00  0.00    +0.000 N 
ATOM     12  C   UNL     1      -0.273  11.601  19.872  0.00  0.00    +0.000 A 
ATOM     13  C   UNL     1       0.272  10.397  20.216  0.00  0.00    +0.000 A 
ATOM     14  C   UNL     1       1.078   9.516  19.454  0.00  0.00    +0.000 A 
ATOM     15  N   UNL     1       1.541   9.686  18.139  0.00  0.00    +0.000 NA
ATOM     16  C   UNL     1       2.308   8.714  17.725  0.00  0.00    +0.000 A 
ATOM     17  N   UNL     1       2.688   7.567  18.422  0.00  0.00    +0.000 N 
ATOM     18  H   UNL     1       0.214  11.954  17.825  0.00  0.00    +0.000 HD
ENDROOT
BRANCH  17  19
ATOM     19  C   UNL     1       3.505   6.566  17.802  0.00  0.00    +0.000 A 
ATOM     20  C   UNL     1       4.721   6.909  17.192  0.00  0.00    +0.000 A 
ATOM     21  C   UNL     1       5.454   5.945  16.487  0.00  0.00    +0.000 A 
ATOM     22  C   UNL     1       5.002   4.627  16.423  0.00  0.00    +0.000 A 
ATOM     23 CL   UNL     1       5.902   3.451  15.549  0.00  0.00    +0.000 Cl
ATOM     24  C   UNL     1       3.818   4.265  17.052  0.00  0.00    +0.000 A 
ATOM     25  C   UNL     1       3.068   5.233  17.727  0.00  0.00    +0.000 A 
ENDBRANCH  17  19
TORSDOF 1
ENDMDL
MODEL 7
REMARK VINA RESULT:      -7.3      3.524      7.874
REMARK  Name = 
REMARK  1 active torsions:
REMARK  status: ('A' for Active; 'I' for Inactive)
REMARK    1  A    between atoms: N_17  and  C_18
REMARK                            x       y       z     vdW  Elec       q    Type
REMARK                         _______ _______ _______ _____ _____    ______ ____
ROOT
ATOM      1  O   UNL     1       2.027   6.704  20.698  0.00  0.00    +0.000 OA
ATOM      2  C   UNL     1       1.841   7.746  20.076  0.00  0.00    +0.000 A 
ATOM      3  C   UNL     1       1.143   8.873  20.624  0.00  0.00    +0.000 A 
ATOM      4  S   UNL     1       0.615   8.931  22.246  0.00  0.00    +0.000 S 
ATOM      5  C   UNL     1      -0.012  10.495  22.029  0.00  0.00    +0.000 A 
ATOM      6  N   UNL     1      -0.596  11.209  23.014  0.00  0.00    +0.000 NA
ATOM      7  C   UNL     1      -1.054  12.452  22.678  0.00  0.00    +0.000 A 
ATOM      8  C   UNL     1      -0.943  12.955  21.377  0.00  0.00    +0.000 A 
ATOM      9  C   UNL     1      -1.275  14.116  20.650  0.00  0.00    +0.000 A 
ATOM     10  N   UNL     1      -0.916  14.034  19.357  0.00  0.00    +0.000 NA
ATOM     11  N   UNL     1      -0.339  12.808  19.259  0.00  0.00    +0.000 N 
ATOM     12  C   UNL     1      -0.336  12.167  20.432  0.00  0.00    +0.000 A 
ATOM     13  C   UNL     1       0.153  10.928  20.730  0.00  0.00    +0.000 A 
ATOM     14  C   UNL     1       0.834  10.000  19.904  0.00  0.00    +0.000 A 
ATOM     15  N   UNL     1       1.198  10.147  18.556  0.00  0.00    +0.000 NA
ATOM     16  C   UNL     1       1.862   9.128  18.080  0.00  0.00    +0.000 A 
ATOM     17  N   UNL     1       2.219   7.954  18.742  0.00  0.00    +0.000 N 
ATOM     18  H   UNL     1       0.005  12.500  18.353  0.00  0.00    +0.000 HD
ENDROOT
BRANCH  17  19
ATOM     19  C   UNL     1       2.914   6.905  18.057  0.00  0.00    +0.000 A 
ATOM     20  C   UNL     1       2.418   5.593  18.060  0.00  0.00    +0.000 A 
ATOM     21  C   UNL     1       3.165   4.554  17.488  0.00  0.00    +0.000 A 
ATOM     22  C   UNL     1       4.387   4.822  16.874  0.00  0.00    +0.000 A 
ATOM     23 CL   UNL     1       5.302   3.542  16.181  0.00  0.00    +0.000 Cl
ATOM     24  C   UNL     1       4.875   6.123  16.831  0.00  0.00    +0.000 A 
ATOM     25  C   UNL     1       4.147   7.155  17.432  0.00  0.00    +0.000 A 
ENDBRANCH  17  19
TORSDOF 1
ENDMDL
MODEL 8
REMARK VINA RESULT:      -7.3      4.027      8.084
REMARK  Name = 
REMARK  1 active torsions:
REMARK  status: ('A' for Active; 'I' for Inactive)
REMARK    1  A    between atoms: N_17  and  C_18
REMARK                            x       y       z     vdW  Elec       q    Type
REMARK                         _______ _______ _______ _____ _____    ______ ____
ROOT
ATOM      1  O   UNL     1       2.936   7.283  17.619  0.00  0.00    +0.000 OA
ATOM      2  C   UNL     1       2.302   7.490  18.651  0.00  0.00    +0.000 A 
ATOM      3  C   UNL     1       1.802   8.783  19.019  0.00  0.00    +0.000 A 
ATOM      4  S   UNL     1       1.921  10.143  17.994  0.00  0.00    +0.000 S 
ATOM      5  C   UNL     1       1.113  11.118  19.127  0.00  0.00    +0.000 A 
ATOM      6  N   UNL     1       0.820  12.419  18.919  0.00  0.00    +0.000 NA
ATOM      7  C   UNL     1       0.170  13.068  19.931  0.00  0.00    +0.000 A 
ATOM      8  C   UNL     1      -0.160  12.426  21.131  0.00  0.00    +0.000 A 
ATOM      9  C   UNL     1      -0.784  12.718  22.360  0.00  0.00    +0.000 A 
ATOM     10  N   UNL     1      -0.813  11.658  23.187  0.00  0.00    +0.000 NA
ATOM     11  N   UNL     1      -0.206  10.675  22.473  0.00  0.00    +0.000 N 
ATOM     12  C   UNL     1       0.173  11.102  21.264  0.00  0.00    +0.000 A 
ATOM     13  C   UNL     1       0.805  10.411  20.271  0.00  0.00    +0.000 A 
ATOM     14  C   UNL     1       1.189   9.048  20.218  0.00  0.00    +0.000 A 
ATOM     15  N   UNL     1       0.985   8.054  21.187  0.00  0.00    +0.000 NA
ATOM     16  C   UNL     1       1.414   6.875  20.825  0.00  0.00    +0.000 A 
ATOM     17  N   UNL     1       2.040   6.522  19.630  0.00  0.00    +0.000 N 
ATOM     18  H   UNL     1      -0.088   9.760  22.902  0.00  0.00    +0.000 HD
ENDROOT
BRANCH  17  19
ATOM     19  C   UNL     1       2.496   5.181  19.406  0.00  0.00    +0.000 A 
ATOM     20  C   UNL     1       3.824   4.820  19.675  0.00  0.00    +0.000 A 
ATOM     21  C   UNL     1       4.289   3.540  19.342  0.00  0.00    +0.000 A 
ATOM     22  C   UNL     1       3.424   2.603  18.780  0.00  0.00    +0.000 A 
ATOM     23 CL   UNL     1       4.002   1.037  18.366  0.00  0.00    +0.000 Cl
ATOM     24  C   UNL     1       2.096   2.935  18.540  0.00  0.00    +0.000 A 
ATOM     25  C   UNL     1       1.639   4.222  18.840  0.00  0.00    +0.000 A 
ENDBRANCH  17  19
TORSDOF 1
ENDMDL
MODEL 9
REMARK VINA RESULT:      -7.2      0.797      1.265
REMARK  Name = 
REMARK  1 active torsions:
REMARK  status: ('A' for Active; 'I' for Inactive)
REMARK    1  A    between atoms: N_17  and  C_18
REMARK                            x       y       z     vdW  Elec       q    Type
REMARK                         _______ _______ _______ _____ _____    ______ ____
ROOT
ATOM      1  O   UNL     1       0.586   8.877  21.003  0.00  0.00    +0.000 OA
ATOM      2  C   UNL     1       1.197   8.804  19.939  0.00  0.00    +0.000 A 
ATOM      3  C   UNL     1       1.935   7.643  19.536  0.00  0.00    +0.000 A 
ATOM      4  S   UNL     1       1.931   6.190  20.433  0.00  0.00    +0.000 S 
ATOM      5  C   UNL     1       2.944   5.438  19.296  0.00  0.00    +0.000 A 
ATOM      6  N   UNL     1       3.345   4.152  19.388  0.00  0.00    +0.000 NA
ATOM      7  C   UNL     1       4.163   3.696  18.394  0.00  0.00    +0.000 A 
ATOM      8  C   UNL     1       4.583   4.519  17.343  0.00  0.00    +0.000 A 
ATOM      9  C   UNL     1       5.388   4.449  16.188  0.00  0.00    +0.000 A 
ATOM     10  N   UNL     1       5.439   5.617  15.524  0.00  0.00    +0.000 NA
ATOM     11  N   UNL     1       4.650   6.442  16.260  0.00  0.00    +0.000 N 
ATOM     12  C   UNL     1       4.132   5.814  17.321  0.00  0.00    +0.000 A 
ATOM     13  C   UNL     1       3.297   6.305  18.283  0.00  0.00    +0.000 A 
ATOM     14  C   UNL     1       2.708   7.588  18.403  0.00  0.00    +0.000 A 
ATOM     15  N   UNL     1       2.825   8.679  17.528  0.00  0.00    +0.000 NA
ATOM     16  C   UNL     1       2.121   9.718  17.889  0.00  0.00    +0.000 A 
ATOM     17  N   UNL     1       1.310   9.853  19.016  0.00  0.00    +0.000 N 
ATOM     18  H   UNL     1       4.541   7.409  15.964  0.00  0.00    +0.000 HD
ENDROOT
BRANCH  17  19
ATOM     19  C   UNL     1       0.636  11.086  19.294  0.00  0.00    +0.000 A 
ATOM     20  C   UNL     1      -0.667  11.314  18.825  0.00  0.00    +0.000 A 
ATOM     21  C   UNL     1      -1.272  12.565  19.000  0.00  0.00    +0.000 A 
ATOM     22  C   UNL     1      -0.601  13.581  19.679  0.00  0.00    +0.000 A 
ATOM     23 CL   UNL     1      -1.346  15.118  19.884  0.00  0.00    +0.000 Cl
ATOM     24  C   UNL     1       0.676  13.359  20.181  0.00  0.00    +0.000 A 
ATOM     25  C   UNL     1       1.295  12.122  19.976  0.00  0.00    +0.000 A 
ENDBRANCH  17  19
TORSDOF 1
ENDMDL
