MODEL 1
REMARK VINA RESULT:      -7.6      0.000      0.000
REMARK  Name = 
REMARK  4 active torsions:
REMARK  status: ('A' for Active; 'I' for Inactive)
REMARK    1  A    between atoms: C_2  and  C_14
REMARK    2  A    between atoms: N_3  and  N_4
REMARK    3  A    between atoms: C_5  and  C_6
REMARK    4  A    between atoms: C_12  and  O_13
REMARK                            x       y       z     vdW  Elec       q    Type
REMARK                         _______ _______ _______ _____ _____    ______ ____
ROOT
ATOM      1  O   UNL     1       8.180   6.413  18.868  0.00  0.00    +0.000 OA
ATOM      2  C   UNL     1       7.560   6.861  17.907  0.00  0.00    +0.000 C 
ATOM      3  N   UNL     1       7.606   8.178  17.466  0.00  0.00    +0.000 N 
ATOM      4  H   UNL     1       6.998   8.520  16.733  0.00  0.00    +0.000 HD
ENDROOT
BRANCH   2   5
ATOM      5  C   UNL     1       6.652   5.952  17.160  0.00  0.00    +0.000 A 
ATOM      6  C   UNL     1       5.324   5.838  17.605  0.00  0.00    +0.000 A 
ATOM      7  C   UNL     1       4.430   4.989  16.951  0.00  0.00    +0.000 A 
ATOM      8  C   UNL     1       4.862   4.242  15.858  0.00  0.00    +0.000 A 
ATOM      9  C   UNL     1       6.184   4.346  15.434  0.00  0.00    +0.000 A 
ATOM     10  F   UNL     1       6.599   3.613  14.394  0.00  0.00    +0.000 F 
ATOM     11  C   UNL     1       7.087   5.191  16.073  0.00  0.00    +0.000 A 
ENDBRANCH   2   5
BRANCH   3  12
ATOM     12  N   UNL     1       8.407   9.054  18.128  0.00  0.00    +0.000 NA
ATOM     13  C   UNL     1       8.321  10.303  17.797  0.00  0.00    +0.000 C 
BRANCH  13  14
ATOM     14  C   UNL     1       9.175  11.310  18.467  0.00  0.00    +0.000 A 
ATOM     15  C   UNL     1      10.015  10.908  19.516  0.00  0.00    +0.000 A 
ATOM     16  C   UNL     1      10.860  11.828  20.136  0.00  0.00    +0.000 A 
ATOM     17  C   UNL     1      10.869  13.156  19.714  0.00  0.00    +0.000 A 
ATOM     18  C   UNL     1      10.024  13.562  18.678  0.00  0.00    +0.000 A 
ATOM     19 BR   UNL     1      10.067  15.377  18.127  0.00  0.00    +0.000 Br
ATOM     20  C   UNL     1       9.170  12.643  18.053  0.00  0.00    +0.000 A 
BRANCH  20  21
ATOM     21  O   UNL     1       8.339  13.035  17.035  0.00  0.00    +0.000 OA
ATOM     22  H   UNL     1       8.730  13.834  16.630  0.00  0.00    +0.000 HD
ENDBRANCH  20  21
ENDBRANCH  13  14
ENDBRANCH   3  12
TORSDOF 4
ENDMDL
MODEL 2
REMARK VINA RESULT:      -7.5      0.975      1.443
REMARK  Name = 
REMARK  4 active torsions:
REMARK  status: ('A' for Active; 'I' for Inactive)
REMARK    1  A    between atoms: C_2  and  C_14
REMARK    2  A    between atoms: N_3  and  N_4
REMARK    3  A    between atoms: C_5  and  C_6
REMARK    4  A    between atoms: C_12  and  O_13
REMARK                            x       y       z     vdW  Elec       q    Type
REMARK                         _______ _______ _______ _____ _____    ______ ____
ROOT
ATOM      1  O   UNL     1       7.837   6.304  18.989  0.00  0.00    +0.000 OA
ATOM      2  C   UNL     1       7.459   6.687  17.885  0.00  0.00    +0.000 C 
ATOM      3  N   UNL     1       7.673   7.956  17.360  0.00  0.00    +0.000 N 
ATOM      4  H   UNL     1       7.253   8.254  16.488  0.00  0.00    +0.000 HD
ENDROOT
BRANCH   2   5
ATOM      5  C   UNL     1       6.677   5.752  17.036  0.00  0.00    +0.000 A 
ATOM      6  C   UNL     1       7.263   5.301  15.841  0.00  0.00    +0.000 A 
ATOM      7  C   UNL     1       6.570   4.432  14.997  0.00  0.00    +0.000 A 
ATOM      8  C   UNL     1       5.284   4.020  15.338  0.00  0.00    +0.000 A 
ATOM      9  C   UNL     1       4.702   4.485  16.514  0.00  0.00    +0.000 A 
ATOM     10  F   UNL     1       3.459   4.099  16.827  0.00  0.00    +0.000 F 
ATOM     11  C   UNL     1       5.381   5.349  17.368  0.00  0.00    +0.000 A 
ENDBRANCH   2   5
BRANCH   3  12
ATOM     12  N   UNL     1       8.367   8.856  18.106  0.00  0.00    +0.000 NA
ATOM     13  C   UNL     1       8.307  10.098  17.743  0.00  0.00    +0.000 C 
BRANCH  13  14
ATOM     14  C   UNL     1       9.050  11.130  18.501  0.00  0.00    +0.000 A 
ATOM     15  C   UNL     1       9.849  10.741  19.587  0.00  0.00    +0.000 A 
ATOM     16  C   UNL     1      10.592  11.688  20.292  0.00  0.00    +0.000 A 
ATOM     17  C   UNL     1      10.540  13.030  19.918  0.00  0.00    +0.000 A 
ATOM     18  C   UNL     1       9.735  13.421  18.846  0.00  0.00    +0.000 A 
ATOM     19 BR   UNL     1       9.693  15.255  18.363  0.00  0.00    +0.000 Br
ATOM     20  C   UNL     1       8.984  12.476  18.135  0.00  0.00    +0.000 A 
BRANCH  20  21
ATOM     21  O   UNL     1       8.192  12.854  17.082  0.00  0.00    +0.000 OA
ATOM     22  H   UNL     1       7.661  12.077  16.822  0.00  0.00    +0.000 HD
ENDBRANCH  20  21
ENDBRANCH  13  14
ENDBRANCH   3  12
TORSDOF 4
ENDMDL
MODEL 3
REMARK VINA RESULT:      -7.1      4.332      8.568
REMARK  Name = 
REMARK  4 active torsions:
REMARK  status: ('A' for Active; 'I' for Inactive)
REMARK    1  A    between atoms: C_2  and  C_14
REMARK    2  A    between atoms: N_3  and  N_4
REMARK    3  A    between atoms: C_5  and  C_6
REMARK    4  A    between atoms: C_12  and  O_13
REMARK                            x       y       z     vdW  Elec       q    Type
REMARK                         _______ _______ _______ _____ _____    ______ ____
ROOT
ATOM      1  O   UNL     1       7.835  10.545  17.425  0.00  0.00    +0.000 OA
ATOM      2  C   UNL     1       8.608   9.995  18.205  0.00  0.00    +0.000 C 
ATOM      3  N   UNL     1       8.627   8.634  18.488  0.00  0.00    +0.000 N 
ATOM      4  H   UNL     1       9.216   8.246  19.214  0.00  0.00    +0.000 HD
ENDROOT
BRANCH   2   5
ATOM      5  C   UNL     1       9.587  10.831  18.946  0.00  0.00    +0.000 A 
ATOM      6  C   UNL     1      10.806  11.132  18.315  0.00  0.00    +0.000 A 
ATOM      7  C   UNL     1      11.770  11.902  18.968  0.00  0.00    +0.000 A 
ATOM      8  C   UNL     1      11.524  12.364  20.259  0.00  0.00    +0.000 A 
ATOM      9  C   UNL     1      10.322  12.047  20.885  0.00  0.00    +0.000 A 
ATOM     10  F   UNL     1      10.099  12.479  22.132  0.00  0.00    +0.000 F 
ATOM     11  C   UNL     1       9.349  11.283  20.246  0.00  0.00    +0.000 A 
ENDBRANCH   2   5
BRANCH   3  12
ATOM     12  N   UNL     1       7.738   7.828  17.850  0.00  0.00    +0.000 NA
ATOM     13  C   UNL     1       7.684   6.591  18.228  0.00  0.00    +0.000 C 
BRANCH  13  14
ATOM     14  C   UNL     1       6.748   5.653  17.567  0.00  0.00    +0.000 A 
ATOM     15  C   UNL     1       6.899   5.385  16.198  0.00  0.00    +0.000 A 
ATOM     16  C   UNL     1       6.056   4.474  15.560  0.00  0.00    +0.000 A 
ATOM     17  C   UNL     1       5.058   3.826  16.286  0.00  0.00    +0.000 A 
ATOM     18  C   UNL     1       4.898   4.101  17.646  0.00  0.00    +0.000 A 
ATOM     19 BR   UNL     1       3.530   3.197  18.601  0.00  0.00    +0.000 Br
ATOM     20  C   UNL     1       5.738   5.017  18.292  0.00  0.00    +0.000 A 
BRANCH  20  21
ATOM     21  O   UNL     1       5.586   5.291  19.627  0.00  0.00    +0.000 OA
ATOM     22  H   UNL     1       4.740   4.895  19.911  0.00  0.00    +0.000 HD
ENDBRANCH  20  21
ENDBRANCH  13  14
ENDBRANCH   3  12
TORSDOF 4
ENDMDL
MODEL 4
REMARK VINA RESULT:      -7.1      4.234      8.475
REMARK  Name = 
REMARK  4 active torsions:
REMARK  status: ('A' for Active; 'I' for Inactive)
REMARK    1  A    between atoms: C_2  and  C_14
REMARK    2  A    between atoms: N_3  and  N_4
REMARK    3  A    between atoms: C_5  and  C_6
REMARK    4  A    between atoms: C_12  and  O_13
REMARK                            x       y       z     vdW  Elec       q    Type
REMARK                         _______ _______ _______ _____ _____    ______ ____
ROOT
ATOM      1  O   UNL     1       7.755  10.620  17.369  0.00  0.00    +0.000 OA
ATOM      2  C   UNL     1       8.586  10.084  18.098  0.00  0.00    +0.000 C 
ATOM      3  N   UNL     1       8.653   8.723  18.371  0.00  0.00    +0.000 N 
ATOM      4  H   UNL     1       9.293   8.345  19.059  0.00  0.00    +0.000 HD
ENDROOT
BRANCH   2   5
ATOM      5  C   UNL     1       9.587  10.940  18.785  0.00  0.00    +0.000 A 
ATOM      6  C   UNL     1       9.537  11.014  20.187  0.00  0.00    +0.000 A 
ATOM      7  C   UNL     1      10.444  11.813  20.886  0.00  0.00    +0.000 A 
ATOM      8  C   UNL     1      11.396  12.551  20.186  0.00  0.00    +0.000 A 
ATOM      9  C   UNL     1      11.427  12.487  18.795  0.00  0.00    +0.000 A 
ATOM     10  F   UNL     1      12.332  13.211  18.126  0.00  0.00    +0.000 F 
ATOM     11  C   UNL     1      10.532  11.692  18.084  0.00  0.00    +0.000 A 
ENDBRANCH   2   5
BRANCH   3  12
ATOM     12  N   UNL     1       7.746   7.900  17.782  0.00  0.00    +0.000 NA
ATOM     13  C   UNL     1       7.689   6.679  18.210  0.00  0.00    +0.000 C 
BRANCH  13  14
ATOM     14  C   UNL     1       6.735   5.723  17.604  0.00  0.00    +0.000 A 
ATOM     15  C   UNL     1       6.767   5.508  16.218  0.00  0.00    +0.000 A 
ATOM     16  C   UNL     1       5.906   4.582  15.627  0.00  0.00    +0.000 A 
ATOM     17  C   UNL     1       5.008   3.867  16.417  0.00  0.00    +0.000 A 
ATOM     18  C   UNL     1       4.966   4.088  17.795  0.00  0.00    +0.000 A 
ATOM     19 BR   UNL     1       3.733   3.093  18.839  0.00  0.00    +0.000 Br
ATOM     20  C   UNL     1       5.824   5.019  18.395  0.00  0.00    +0.000 A 
BRANCH  20  21
ATOM     21  O   UNL     1       5.788   5.241  19.747  0.00  0.00    +0.000 OA
ATOM     22  H   UNL     1       6.707   5.386  20.045  0.00  0.00    +0.000 HD
ENDBRANCH  20  21
ENDBRANCH  13  14
ENDBRANCH   3  12
TORSDOF 4
ENDMDL
MODEL 5
REMARK VINA RESULT:      -7.1      7.394      7.931
REMARK  Name = 
REMARK  4 active torsions:
REMARK  status: ('A' for Active; 'I' for Inactive)
REMARK    1  A    between atoms: C_2  and  C_14
REMARK    2  A    between atoms: N_3  and  N_4
REMARK    3  A    between atoms: C_5  and  C_6
REMARK    4  A    between atoms: C_12  and  O_13
REMARK                            x       y       z     vdW  Elec       q    Type
REMARK                         _______ _______ _______ _____ _____    ______ ____
ROOT
ATOM      1  O   UNL     1       2.460   6.791  18.191  0.00  0.00    +0.000 OA
ATOM      2  C   UNL     1       2.431   5.994  19.126  0.00  0.00    +0.000 C 
ATOM      3  N   UNL     1       2.105   6.311  20.439  0.00  0.00    +0.000 N 
ATOM      4  H   UNL     1       2.196   5.639  21.191  0.00  0.00    +0.000 HD
ENDROOT
BRANCH   2   5
ATOM      5  C   UNL     1       2.806   4.580  18.867  0.00  0.00    +0.000 A 
ATOM      6  C   UNL     1       2.209   3.931  17.774  0.00  0.00    +0.000 A 
ATOM      7  C   UNL     1       2.512   2.598  17.490  0.00  0.00    +0.000 A 
ATOM      8  C   UNL     1       3.403   1.905  18.306  0.00  0.00    +0.000 A 
ATOM      9  C   UNL     1       3.977   2.550  19.399  0.00  0.00    +0.000 A 
ATOM     10  F   UNL     1       4.820   1.874  20.190  0.00  0.00    +0.000 F 
ATOM     11  C   UNL     1       3.688   3.879  19.693  0.00  0.00    +0.000 A 
ENDBRANCH   2   5
BRANCH   3  12
ATOM     12  N   UNL     1       1.774   7.596  20.731  0.00  0.00    +0.000 NA
ATOM     13  C   UNL     1       0.581   7.811  21.187  0.00  0.00    +0.000 C 
BRANCH  13  14
ATOM     14  C   UNL     1       0.147   9.189  21.513  0.00  0.00    +0.000 A 
ATOM     15  C   UNL     1      -0.499   9.434  22.734  0.00  0.00    +0.000 A 
ATOM     16  C   UNL     1      -0.881  10.730  23.083  0.00  0.00    +0.000 A 
ATOM     17  C   UNL     1      -0.620  11.788  22.214  0.00  0.00    +0.000 A 
ATOM     18  C   UNL     1       0.012  11.544  20.993  0.00  0.00    +0.000 A 
ATOM     19 BR   UNL     1       0.354  13.010  19.837  0.00  0.00    +0.000 Br
ATOM     20  C   UNL     1       0.395  10.245  20.633  0.00  0.00    +0.000 A 
BRANCH  20  21
ATOM     21  O   UNL     1       1.015  10.000  19.436  0.00  0.00    +0.000 OA
ATOM     22  H   UNL     1       0.326  10.003  18.744  0.00  0.00    +0.000 HD
ENDBRANCH  20  21
ENDBRANCH  13  14
ENDBRANCH   3  12
TORSDOF 4
ENDMDL
MODEL 6
REMARK VINA RESULT:      -7.0      4.051      8.294
REMARK  Name = 
REMARK  4 active torsions:
REMARK  status: ('A' for Active; 'I' for Inactive)
REMARK    1  A    between atoms: C_2  and  C_14
REMARK    2  A    between atoms: N_3  and  N_4
REMARK    3  A    between atoms: C_5  and  C_6
REMARK    4  A    between atoms: C_12  and  O_13
REMARK                            x       y       z     vdW  Elec       q    Type
REMARK                         _______ _______ _______ _____ _____    ______ ____
ROOT
ATOM      1  O   UNL     1       7.537  10.933  17.304  0.00  0.00    +0.000 OA
ATOM      2  C   UNL     1       8.513  10.503  17.914  0.00  0.00    +0.000 C 
ATOM      3  N   UNL     1       8.726   9.170  18.246  0.00  0.00    +0.000 N 
ATOM      4  H   UNL     1       9.495   8.882  18.839  0.00  0.00    +0.000 HD
ENDROOT
BRANCH   2   5
ATOM      5  C   UNL     1       9.543  11.466  18.379  0.00  0.00    +0.000 A 
ATOM      6  C   UNL     1       9.585  12.730  17.768  0.00  0.00    +0.000 A 
ATOM      7  C   UNL     1      10.541  13.672  18.155  0.00  0.00    +0.000 A 
ATOM      8  C   UNL     1      11.466  13.349  19.144  0.00  0.00    +0.000 A 
ATOM      9  C   UNL     1      11.429  12.088  19.734  0.00  0.00    +0.000 A 
ATOM     10  F   UNL     1      12.332  11.777  20.672  0.00  0.00    +0.000 F 
ATOM     11  C   UNL     1      10.481  11.140  19.362  0.00  0.00    +0.000 A 
ENDBRANCH   2   5
BRANCH   3  12
ATOM     12  N   UNL     1       7.802   8.251  17.860  0.00  0.00    +0.000 NA
ATOM     13  C   UNL     1       7.936   7.048  18.319  0.00  0.00    +0.000 C 
BRANCH  13  14
ATOM     14  C   UNL     1       6.974   5.993  17.929  0.00  0.00    +0.000 A 
ATOM     15  C   UNL     1       6.116   5.453  18.899  0.00  0.00    +0.000 A 
ATOM     16  C   UNL     1       5.172   4.487  18.548  0.00  0.00    +0.000 A 
ATOM     17  C   UNL     1       5.080   4.054  17.227  0.00  0.00    +0.000 A 
ATOM     18  C   UNL     1       5.941   4.581  16.261  0.00  0.00    +0.000 A 
ATOM     19 BR   UNL     1       5.784   3.970  14.472  0.00  0.00    +0.000 Br
ATOM     20  C   UNL     1       6.894   5.548  16.607  0.00  0.00    +0.000 A 
BRANCH  20  21
ATOM     21  O   UNL     1       7.742   6.069  15.664  0.00  0.00    +0.000 OA
ATOM     22  H   UNL     1       7.733   7.040  15.768  0.00  0.00    +0.000 HD
ENDBRANCH  20  21
ENDBRANCH  13  14
ENDBRANCH   3  12
TORSDOF 4
ENDMDL
MODEL 7
REMARK VINA RESULT:      -7.0      6.967      8.120
REMARK  Name = 
REMARK  4 active torsions:
REMARK  status: ('A' for Active; 'I' for Inactive)
REMARK    1  A    between atoms: C_2  and  C_14
REMARK    2  A    between atoms: N_3  and  N_4
REMARK    3  A    between atoms: C_5  and  C_6
REMARK    4  A    between atoms: C_12  and  O_13
REMARK                            x       y       z     vdW  Elec       q    Type
REMARK                         _______ _______ _______ _____ _____    ______ ____
ROOT
ATOM      1  O   UNL     1       2.407   7.607  18.165  0.00  0.00    +0.000 OA
ATOM      2  C   UNL     1       2.471   6.813  19.100  0.00  0.00    +0.000 C 
ATOM      3  N   UNL     1       2.084   7.082  20.408  0.00  0.00    +0.000 N 
ATOM      4  H   UNL     1       2.252   6.428  21.162  0.00  0.00    +0.000 HD
ENDROOT
BRANCH   2   5
ATOM      5  C   UNL     1       3.036   5.462  18.850  0.00  0.00    +0.000 A 
ATOM      6  C   UNL     1       4.330   5.191  19.328  0.00  0.00    +0.000 A 
ATOM      7  C   UNL     1       4.918   3.944  19.111  0.00  0.00    +0.000 A 
ATOM      8  C   UNL     1       4.221   2.967  18.404  0.00  0.00    +0.000 A 
ATOM      9  C   UNL     1       2.947   3.248  17.918  0.00  0.00    +0.000 A 
ATOM     10  F   UNL     1       2.289   2.311  17.224  0.00  0.00    +0.000 F 
ATOM     11  C   UNL     1       2.345   4.485  18.129  0.00  0.00    +0.000 A 
ENDBRANCH   2   5
BRANCH   3  12
ATOM     12  N   UNL     1       1.579   8.311  20.692  0.00  0.00    +0.000 NA
ATOM     13  C   UNL     1       0.404   8.357  21.237  0.00  0.00    +0.000 C 
BRANCH  13  14
ATOM     14  C   UNL     1      -0.214   9.662  21.560  0.00  0.00    +0.000 A 
ATOM     15  C   UNL     1      -0.670   9.901  22.866  0.00  0.00    +0.000 A 
ATOM     16  C   UNL     1      -1.218  11.137  23.207  0.00  0.00    +0.000 A 
ATOM     17  C   UNL     1      -1.316  12.142  22.247  0.00  0.00    +0.000 A 
ATOM     18  C   UNL     1      -0.875  11.903  20.943  0.00  0.00    +0.000 A 
ATOM     19 BR   UNL     1      -1.021  13.296  19.664  0.00  0.00    +0.000 Br
ATOM     20  C   UNL     1      -0.326  10.663  20.592  0.00  0.00    +0.000 A 
BRANCH  20  21
ATOM     21  O   UNL     1       0.109  10.422  19.315  0.00  0.00    +0.000 OA
ATOM     22  H   UNL     1       0.284  11.288  18.898  0.00  0.00    +0.000 HD
ENDBRANCH  20  21
ENDBRANCH  13  14
ENDBRANCH   3  12
TORSDOF 4
ENDMDL
MODEL 8
REMARK VINA RESULT:      -6.9      7.671      8.766
REMARK  Name = 
REMARK  4 active torsions:
REMARK  status: ('A' for Active; 'I' for Inactive)
REMARK    1  A    between atoms: C_2  and  C_14
REMARK    2  A    between atoms: N_3  and  N_4
REMARK    3  A    between atoms: C_5  and  C_6
REMARK    4  A    between atoms: C_12  and  O_13
REMARK                            x       y       z     vdW  Elec       q    Type
REMARK                         _______ _______ _______ _____ _____    ______ ____
ROOT
ATOM      1  O   UNL     1       2.330   7.206  18.848  0.00  0.00    +0.000 OA
ATOM      2  C   UNL     1       2.210   6.701  19.961  0.00  0.00    +0.000 C 
ATOM      3  N   UNL     1       1.734   7.354  21.091  0.00  0.00    +0.000 N 
ATOM      4  H   UNL     1       1.751   6.923  22.007  0.00  0.00    +0.000 HD
ENDROOT
BRANCH   2   5
ATOM      5  C   UNL     1       2.635   5.290  20.151  0.00  0.00    +0.000 A 
ATOM      6  C   UNL     1       3.740   4.831  19.414  0.00  0.00    +0.000 A 
ATOM      7  C   UNL     1       4.176   3.511  19.541  0.00  0.00    +0.000 A 
ATOM      8  C   UNL     1       3.504   2.642  20.397  0.00  0.00    +0.000 A 
ATOM      9  C   UNL     1       2.399   3.099  21.111  0.00  0.00    +0.000 A 
ATOM     10  F   UNL     1       1.746   2.254  21.918  0.00  0.00    +0.000 F 
ATOM     11  C   UNL     1       1.954   4.413  20.997  0.00  0.00    +0.000 A 
ENDBRANCH   2   5
BRANCH   3  12
ATOM     12  N   UNL     1       1.349   8.653  20.973  0.00  0.00    +0.000 NA
ATOM     13  C   UNL     1       0.077   8.896  20.971  0.00  0.00    +0.000 C 
BRANCH  13  14
ATOM     14  C   UNL     1      -0.413  10.286  20.832  0.00  0.00    +0.000 A 
ATOM     15  C   UNL     1      -0.765  10.765  19.561  0.00  0.00    +0.000 A 
ATOM     16  C   UNL     1      -1.268  12.057  19.408  0.00  0.00    +0.000 A 
ATOM     17  C   UNL     1      -1.421  12.879  20.524  0.00  0.00    +0.000 A 
ATOM     18  C   UNL     1      -1.060  12.409  21.788  0.00  0.00    +0.000 A 
ATOM     19 BR   UNL     1      -1.286  13.554  23.283  0.00  0.00    +0.000 Br
ATOM     20  C   UNL     1      -0.550  11.114  21.949  0.00  0.00    +0.000 A 
BRANCH  20  21
ATOM     21  O   UNL     1      -0.194  10.647  23.187  0.00  0.00    +0.000 OA
ATOM     22  H   UNL     1       0.780  10.575  23.203  0.00  0.00    +0.000 HD
ENDBRANCH  20  21
ENDBRANCH  13  14
ENDBRANCH   3  12
TORSDOF 4
ENDMDL
MODEL 9
REMARK VINA RESULT:      -6.9      6.179      7.324
REMARK  Name = 
REMARK  4 active torsions:
REMARK  status: ('A' for Active; 'I' for Inactive)
REMARK    1  A    between atoms: C_2  and  C_14
REMARK    2  A    between atoms: N_3  and  N_4
REMARK    3  A    between atoms: C_5  and  C_6
REMARK    4  A    between atoms: C_12  and  O_13
REMARK                            x       y       z     vdW  Elec       q    Type
REMARK                         _______ _______ _______ _____ _____    ______ ____
ROOT
ATOM      1  O   UNL     1       4.103   6.079  19.501  0.00  0.00    +0.000 OA
ATOM      2  C   UNL     1       4.113   6.308  18.294  0.00  0.00    +0.000 C 
ATOM      3  N   UNL     1       3.174   7.077  17.616  0.00  0.00    +0.000 N 
ATOM      4  H   UNL     1       3.169   7.151  16.607  0.00  0.00    +0.000 HD
ENDROOT
BRANCH   2   5
ATOM      5  C   UNL     1       5.182   5.698  17.462  0.00  0.00    +0.000 A 
ATOM      6  C   UNL     1       4.985   5.648  16.072  0.00  0.00    +0.000 A 
ATOM      7  C   UNL     1       5.950   5.073  15.242  0.00  0.00    +0.000 A 
ATOM      8  C   UNL     1       7.107   4.536  15.799  0.00  0.00    +0.000 A 
ATOM      9  C   UNL     1       7.287   4.573  17.179  0.00  0.00    +0.000 A 
ATOM     10  F   UNL     1       8.394   4.039  17.710  0.00  0.00    +0.000 F 
ATOM     11  C   UNL     1       6.337   5.145  18.020  0.00  0.00    +0.000 A 
ENDBRANCH   2   5
BRANCH   3  12
ATOM     12  N   UNL     1       2.164   7.641  18.330  0.00  0.00    +0.000 NA
ATOM     13  C   UNL     1       2.187   8.928  18.472  0.00  0.00    +0.000 C 
BRANCH  13  14
ATOM     14  C   UNL     1       1.127   9.609  19.249  0.00  0.00    +0.000 A 
ATOM     15  C   UNL     1       0.282  10.524  18.603  0.00  0.00    +0.000 A 
ATOM     16  C   UNL     1      -0.750  11.148  19.303  0.00  0.00    +0.000 A 
ATOM     17  C   UNL     1      -0.946  10.861  20.653  0.00  0.00    +0.000 A 
ATOM     18  C   UNL     1      -0.099   9.960  21.302  0.00  0.00    +0.000 A 
ATOM     19 BR   UNL     1      -0.398   9.592  23.139  0.00  0.00    +0.000 Br
ATOM     20  C   UNL     1       0.943   9.333  20.606  0.00  0.00    +0.000 A 
BRANCH  20  21
ATOM     21  O   UNL     1       1.777   8.447  21.237  0.00  0.00    +0.000 OA
ATOM     22  H   UNL     1       1.218   7.753  21.637  0.00  0.00    +0.000 HD
ENDBRANCH  20  21
ENDBRANCH  13  14
ENDBRANCH   3  12
TORSDOF 4
ENDMDL
