MODEL 1
REMARK VINA RESULT:      -7.5      0.000      0.000
REMARK  Name = 
REMARK  10 active torsions:
REMARK  status: ('A' for Active; 'I' for Inactive)
REMARK    1  A    between atoms: C_1  and  C_2
REMARK    2  A    between atoms: C_2  and  C_3
REMARK    3  A    between atoms: C_3  and  C_4
REMARK    4  A    between atoms: C_3  and  C_22
REMARK    5  A    between atoms: N_14  and  N_15
REMARK    6  A    between atoms: C_16  and  C_18
REMARK    7  A    between atoms: C_18  and  C_19
REMARK    8  A    between atoms: C_18  and  C_20
REMARK    9  A    between atoms: C_18  and  C_21
REMARK   10  A    between atoms: C_22  and  O_23
REMARK                            x       y       z     vdW  Elec       q    Type
REMARK                         _______ _______ _______ _____ _____    ______ ____
ROOT
ATOM      1  C   UNL     1       2.344   6.856  19.560  0.00  0.00    +0.000 A 
ATOM      2  N   UNL     1       1.829   6.063  20.457  0.00  0.00    +0.000 NA
ATOM      3  C   UNL     1       2.207   4.700  20.462  0.00  0.00    +0.000 A 
ATOM      4  C   UNL     1       2.095   3.912  21.599  0.00  0.00    +0.000 A 
ATOM      5  C   UNL     1       2.587   2.590  21.614  0.00  0.00    +0.000 A 
ATOM      6  C   UNL     1       3.183   2.038  20.479  0.00  0.00    +0.000 A 
ATOM      7  C   UNL     1       3.248   2.793  19.317  0.00  0.00    +0.000 A 
ATOM      8  C   UNL     1       2.743   4.099  19.332  0.00  0.00    +0.000 A 
ATOM      9  C   UNL     1       2.860   4.991  18.181  0.00  0.00    +0.000 A 
ATOM     10  O   UNL     1       2.680   4.562  17.038  0.00  0.00    +0.000 OA
ATOM     11  N   UNL     1       3.146   6.285  18.548  0.00  0.00    +0.000 N 
ENDROOT
BRANCH  11  12
ATOM     12  N   UNL     1       4.021   6.960  17.636  0.00  0.00    +0.000 N 
ATOM     13  C   UNL     1       5.368   6.749  17.320  0.00  0.00    +0.000 C 
ATOM     14  O   UNL     1       5.690   7.403  16.307  0.00  0.00    +0.000 OA
ATOM     15  H   UNL     1       3.550   7.509  16.930  0.00  0.00    +0.000 HD
BRANCH  13  16
ATOM     16  C   UNL     1       6.558   5.845  17.990  0.00  0.00    +0.000 C 
ATOM     17  C   UNL     1       7.167   4.722  17.115  0.00  0.00    +0.000 C 
ATOM     18  C   UNL     1       7.797   6.801  18.204  0.00  0.00    +0.000 C 
ATOM     19  C   UNL     1       6.288   5.266  19.387  0.00  0.00    +0.000 C 
ENDBRANCH  13  16
ENDBRANCH  11  12
BRANCH   1  20
ATOM     20  C   UNL     1       1.921   8.443  19.725  0.00  0.00    +0.000 C 
BRANCH  20  21
ATOM     21  C   UNL     1       1.342   9.257  18.451  0.00  0.00    +0.000 C 
ATOM     22  C   UNL     1      -0.151   9.695  18.445  0.00  0.00    +0.000 C 
ATOM     23  C   UNL     1      -0.565  11.097  18.931  0.00  0.00    +0.000 C 
ATOM     24  C   UNL     1       0.415  12.254  18.823  0.00  0.00    +0.000 C 
ATOM     25  C   UNL     1       1.877  11.902  18.624  0.00  0.00    +0.000 C 
ATOM     26  C   UNL     1       2.196  10.515  18.041  0.00  0.00    +0.000 C 
BRANCH  21  27
ATOM     27  O   UNL     1       1.526   8.331  17.356  0.00  0.00    +0.000 OA
ATOM     28  H   UNL     1       0.678   8.243  16.888  0.00  0.00    +0.000 HD
ENDBRANCH  21  27
ENDBRANCH  20  21
BRANCH  20  30
ATOM     29  C   UNL     1       1.180   9.561  21.948  0.00  0.00    +0.000 C 
ATOM     30  C   UNL     1       0.843   8.598  20.832  0.00  0.00    +0.000 C 
ENDBRANCH  20  30
ENDBRANCH   1  20
TORSDOF 6
ENDMDL
MODEL 2
REMARK VINA RESULT:      -7.0      1.698      4.193
REMARK  Name = 
REMARK  10 active torsions:
REMARK  status: ('A' for Active; 'I' for Inactive)
REMARK    1  A    between atoms: C_1  and  C_2
REMARK    2  A    between atoms: C_2  and  C_3
REMARK    3  A    between atoms: C_3  and  C_4
REMARK    4  A    between atoms: C_3  and  C_22
REMARK    5  A    between atoms: N_14  and  N_15
REMARK    6  A    between atoms: C_16  and  C_18
REMARK    7  A    between atoms: C_18  and  C_19
REMARK    8  A    between atoms: C_18  and  C_20
REMARK    9  A    between atoms: C_18  and  C_21
REMARK   10  A    between atoms: C_22  and  O_23
REMARK                            x       y       z     vdW  Elec       q    Type
REMARK                         _______ _______ _______ _____ _____    ______ ____
ROOT
ATOM      1  C   UNL     1       3.262   7.268  18.736  0.00  0.00    +0.000 A 
ATOM      2  N   UNL     1       3.889   7.589  17.640  0.00  0.00    +0.000 NA
ATOM      3  C   UNL     1       4.651   6.600  16.974  0.00  0.00    +0.000 A 
ATOM      4  C   UNL     1       4.955   6.695  15.623  0.00  0.00    +0.000 A 
ATOM      5  C   UNL     1       5.614   5.642  14.954  0.00  0.00    +0.000 A 
ATOM      6  C   UNL     1       5.991   4.486  15.641  0.00  0.00    +0.000 A 
ATOM      7  C   UNL     1       5.746   4.402  17.004  0.00  0.00    +0.000 A 
ATOM      8  C   UNL     1       5.098   5.468  17.641  0.00  0.00    +0.000 A 
ATOM      9  C   UNL     1       4.719   5.417  19.050  0.00  0.00    +0.000 A 
ATOM     10  O   UNL     1       5.485   4.928  19.885  0.00  0.00    +0.000 OA
ATOM     11  N   UNL     1       3.489   5.985  19.283  0.00  0.00    +0.000 N 
ENDROOT
BRANCH  11  12
ATOM     12  N   UNL     1       2.731   5.317  20.299  0.00  0.00    +0.000 N 
ATOM     13  C   UNL     1       2.122   4.058  20.320  0.00  0.00    +0.000 C 
ATOM     14  O   UNL     1       1.761   3.764  21.478  0.00  0.00    +0.000 OA
ATOM     15  H   UNL     1       2.855   5.692  21.230  0.00  0.00    +0.000 HD
BRANCH  13  16
ATOM     16  C   UNL     1       1.803   2.937  19.169  0.00  0.00    +0.000 C 
ATOM     17  C   UNL     1       0.491   2.129  19.318  0.00  0.00    +0.000 C 
ATOM     18  C   UNL     1       1.553   3.719  17.820  0.00  0.00    +0.000 C 
ATOM     19  C   UNL     1       2.932   1.953  18.827  0.00  0.00    +0.000 C 
ENDBRANCH  13  16
ENDBRANCH  11  12
BRANCH   1  20
ATOM     20  C   UNL     1       2.313   8.467  19.358  0.00  0.00    +0.000 C 
BRANCH  20  21
ATOM     21  C   UNL     1       1.424   9.386  18.365  0.00  0.00    +0.000 C 
ATOM     22  C   UNL     1      -0.012   9.799  18.794  0.00  0.00    +0.000 C 
ATOM     23  C   UNL     1      -0.270  11.143  19.501  0.00  0.00    +0.000 C 
ATOM     24  C   UNL     1       0.657  12.321  19.246  0.00  0.00    +0.000 C 
ATOM     25  C   UNL     1       2.011  12.011  18.636  0.00  0.00    +0.000 C 
ATOM     26  C   UNL     1       2.151  10.690  17.862  0.00  0.00    +0.000 C 
BRANCH  21  27
ATOM     27  O   UNL     1       1.304   8.568  17.178  0.00  0.00    +0.000 OA
ATOM     28  H   UNL     1       0.794   9.068  16.517  0.00  0.00    +0.000 HD
ENDBRANCH  21  27
ENDBRANCH  20  21
BRANCH  20  30
ATOM     29  C   UNL     1       1.265   8.551  21.731  0.00  0.00    +0.000 C 
ATOM     30  C   UNL     1       1.304   7.876  20.378  0.00  0.00    +0.000 C 
ENDBRANCH  20  30
ENDBRANCH   1  20
TORSDOF 6
ENDMDL
MODEL 3
REMARK VINA RESULT:      -7.0      1.841      6.383
REMARK  Name = 
REMARK  10 active torsions:
REMARK  status: ('A' for Active; 'I' for Inactive)
REMARK    1  A    between atoms: C_1  and  C_2
REMARK    2  A    between atoms: C_2  and  C_3
REMARK    3  A    between atoms: C_3  and  C_4
REMARK    4  A    between atoms: C_3  and  C_22
REMARK    5  A    between atoms: N_14  and  N_15
REMARK    6  A    between atoms: C_16  and  C_18
REMARK    7  A    between atoms: C_18  and  C_19
REMARK    8  A    between atoms: C_18  and  C_20
REMARK    9  A    between atoms: C_18  and  C_21
REMARK   10  A    between atoms: C_22  and  O_23
REMARK                            x       y       z     vdW  Elec       q    Type
REMARK                         _______ _______ _______ _____ _____    ______ ____
ROOT
ATOM      1  C   UNL     1       4.206   6.362  17.299  0.00  0.00    +0.000 A 
ATOM      2  N   UNL     1       3.641   7.472  16.916  0.00  0.00    +0.000 NA
ATOM      3  C   UNL     1       2.810   8.165  17.827  0.00  0.00    +0.000 A 
ATOM      4  C   UNL     1       2.552   9.523  17.699  0.00  0.00    +0.000 A 
ATOM      5  C   UNL     1       1.818  10.217  18.683  0.00  0.00    +0.000 A 
ATOM      6  C   UNL     1       1.317   9.548  19.802  0.00  0.00    +0.000 A 
ATOM      7  C   UNL     1       1.515   8.180  19.914  0.00  0.00    +0.000 A 
ATOM      8  C   UNL     1       2.242   7.519  18.916  0.00  0.00    +0.000 A 
ATOM      9  C   UNL     1       2.576   6.100  19.009  0.00  0.00    +0.000 A 
ATOM     10  O   UNL     1       1.745   5.289  19.428  0.00  0.00    +0.000 OA
ATOM     11  N   UNL     1       3.846   5.831  18.557  0.00  0.00    +0.000 N 
ENDROOT
BRANCH  11  12
ATOM     12  N   UNL     1       4.511   4.799  19.297  0.00  0.00    +0.000 N 
ATOM     13  C   UNL     1       4.302   3.417  19.349  0.00  0.00    +0.000 C 
ATOM     14  O   UNL     1       5.247   2.851  19.937  0.00  0.00    +0.000 OA
ATOM     15  H   UNL     1       5.425   5.055  19.647  0.00  0.00    +0.000 HD
BRANCH  13  16
ATOM     16  C   UNL     1       3.109   2.433  18.807  0.00  0.00    +0.000 C 
ATOM     17  C   UNL     1       2.454   2.801  17.454  0.00  0.00    +0.000 C 
ATOM     18  C   UNL     1       3.776   1.039  18.479  0.00  0.00    +0.000 C 
ATOM     19  C   UNL     1       1.990   2.088  19.800  0.00  0.00    +0.000 C 
ENDBRANCH  13  16
ENDBRANCH  11  12
BRANCH   1  20
ATOM     20  C   UNL     1       5.244   5.706  16.196  0.00  0.00    +0.000 C 
BRANCH  20  21
ATOM     21  C   UNL     1       6.842   5.863  16.403  0.00  0.00    +0.000 C 
ATOM     22  C   UNL     1       7.403   7.180  17.012  0.00  0.00    +0.000 C 
ATOM     23  C   UNL     1       7.672   7.299  18.524  0.00  0.00    +0.000 C 
ATOM     24  C   UNL     1       8.011   6.055  19.331  0.00  0.00    +0.000 C 
ATOM     25  C   UNL     1       7.672   4.716  18.705  0.00  0.00    +0.000 C 
ATOM     26  C   UNL     1       7.518   4.669  17.176  0.00  0.00    +0.000 C 
BRANCH  21  27
ATOM     27  O   UNL     1       7.361   5.753  15.057  0.00  0.00    +0.000 OA
ATOM     28  H   UNL     1       8.126   6.349  14.978  0.00  0.00    +0.000 HD
ENDBRANCH  21  27
ENDBRANCH  20  21
BRANCH  20  30
ATOM     29  C   UNL     1       5.204   3.590  14.693  0.00  0.00    +0.000 C 
ATOM     30  C   UNL     1       4.997   4.179  16.071  0.00  0.00    +0.000 C 
ENDBRANCH  20  30
ENDBRANCH   1  20
TORSDOF 6
ENDMDL
MODEL 4
REMARK VINA RESULT:      -6.2      5.380      8.397
REMARK  Name = 
REMARK  10 active torsions:
REMARK  status: ('A' for Active; 'I' for Inactive)
REMARK    1  A    between atoms: C_1  and  C_2
REMARK    2  A    between atoms: C_2  and  C_3
REMARK    3  A    between atoms: C_3  and  C_4
REMARK    4  A    between atoms: C_3  and  C_22
REMARK    5  A    between atoms: N_14  and  N_15
REMARK    6  A    between atoms: C_16  and  C_18
REMARK    7  A    between atoms: C_18  and  C_19
REMARK    8  A    between atoms: C_18  and  C_20
REMARK    9  A    between atoms: C_18  and  C_21
REMARK   10  A    between atoms: C_22  and  O_23
REMARK                            x       y       z     vdW  Elec       q    Type
REMARK                         _______ _______ _______ _____ _____    ______ ____
ROOT
ATOM      1  C   UNL     1      -1.542  12.759  21.205  0.00  0.00    +0.000 A 
ATOM      2  N   UNL     1      -1.276  11.547  21.600  0.00  0.00    +0.000 NA
ATOM      3  C   UNL     1      -0.486  10.715  20.772  0.00  0.00    +0.000 A 
ATOM      4  C   UNL     1       0.217   9.631  21.278  0.00  0.00    +0.000 A 
ATOM      5  C   UNL     1       1.092   8.888  20.457  0.00  0.00    +0.000 A 
ATOM      6  C   UNL     1       1.255   9.217  19.110  0.00  0.00    +0.000 A 
ATOM      7  C   UNL     1       0.514  10.260  18.575  0.00  0.00    +0.000 A 
ATOM      8  C   UNL     1      -0.351  10.973  19.415  0.00  0.00    +0.000 A 
ATOM      9  C   UNL     1      -1.093  12.143  18.953  0.00  0.00    +0.000 A 
ATOM     10  O   UNL     1      -1.611  12.152  17.833  0.00  0.00    +0.000 OA
ATOM     11  N   UNL     1      -1.147  13.137  19.902  0.00  0.00    +0.000 N 
ENDROOT
BRANCH  11  12
ATOM     12  N   UNL     1      -1.083  14.459  19.353  0.00  0.00    +0.000 N 
ATOM     13  C   UNL     1      -0.007  15.204  18.859  0.00  0.00    +0.000 C 
ATOM     14  O   UNL     1      -0.414  16.221  18.259  0.00  0.00    +0.000 OA
ATOM     15  H   UNL     1      -1.972  14.828  19.040  0.00  0.00    +0.000 HD
BRANCH  13  16
ATOM     16  C   UNL     1       1.619  15.011  18.908  0.00  0.00    +0.000 C 
ATOM     17  C   UNL     1       2.484  16.203  18.430  0.00  0.00    +0.000 C 
ATOM     18  C   UNL     1       2.024  14.903  20.431  0.00  0.00    +0.000 C 
ATOM     19  C   UNL     1       2.186  13.730  18.279  0.00  0.00    +0.000 C 
ENDBRANCH  13  16
ENDBRANCH  11  12
BRANCH   1  20
ATOM     20  C   UNL     1      -2.370  13.672  22.303  0.00  0.00    +0.000 C 
BRANCH  20  21
ATOM     21  C   UNL     1      -3.750  13.110  22.938  0.00  0.00    +0.000 C 
ATOM     22  C   UNL     1      -4.477  13.943  24.031  0.00  0.00    +0.000 C 
ATOM     23  C   UNL     1      -5.602  14.926  23.658  0.00  0.00    +0.000 C 
ATOM     24  C   UNL     1      -6.443  14.675  22.416  0.00  0.00    +0.000 C 
ATOM     25  C   UNL     1      -5.883  13.709  21.389  0.00  0.00    +0.000 C 
ATOM     26  C   UNL     1      -4.834  12.695  21.873  0.00  0.00    +0.000 C 
BRANCH  21  27
ATOM     27  O   UNL     1      -3.349  11.858  23.541  0.00  0.00    +0.000 OA
ATOM     28  H   UNL     1      -2.933  12.055  24.399  0.00  0.00    +0.000 HD
ENDBRANCH  21  27
ENDBRANCH  20  21
BRANCH  20  30
ATOM     29  C   UNL     1      -0.637  15.258  23.406  0.00  0.00    +0.000 C 
ATOM     30  C   UNL     1      -1.464  13.997  23.520  0.00  0.00    +0.000 C 
ENDBRANCH  20  30
ENDBRANCH   1  20
TORSDOF 6
ENDMDL
MODEL 5
REMARK VINA RESULT:      -6.2      5.950      8.776
REMARK  Name = 
REMARK  10 active torsions:
REMARK  status: ('A' for Active; 'I' for Inactive)
REMARK    1  A    between atoms: C_1  and  C_2
REMARK    2  A    between atoms: C_2  and  C_3
REMARK    3  A    between atoms: C_3  and  C_4
REMARK    4  A    between atoms: C_3  and  C_22
REMARK    5  A    between atoms: N_14  and  N_15
REMARK    6  A    between atoms: C_16  and  C_18
REMARK    7  A    between atoms: C_18  and  C_19
REMARK    8  A    between atoms: C_18  and  C_20
REMARK    9  A    between atoms: C_18  and  C_21
REMARK   10  A    between atoms: C_22  and  O_23
REMARK                            x       y       z     vdW  Elec       q    Type
REMARK                         _______ _______ _______ _____ _____    ______ ____
ROOT
ATOM      1  C   UNL     1      -2.739  12.807  20.428  0.00  0.00    +0.000 A 
ATOM      2  N   UNL     1      -3.786  12.434  19.748  0.00  0.00    +0.000 NA
ATOM      3  C   UNL     1      -3.599  11.689  18.560  0.00  0.00    +0.000 A 
ATOM      4  C   UNL     1      -4.597  10.877  18.039  0.00  0.00    +0.000 A 
ATOM      5  C   UNL     1      -4.349  10.052  16.921  0.00  0.00    +0.000 A 
ATOM      6  C   UNL     1      -3.098  10.048  16.303  0.00  0.00    +0.000 A 
ATOM      7  C   UNL     1      -2.109  10.898  16.776  0.00  0.00    +0.000 A 
ATOM      8  C   UNL     1      -2.388  11.710  17.882  0.00  0.00    +0.000 A 
ATOM      9  C   UNL     1      -1.374  12.560  18.499  0.00  0.00    +0.000 A 
ATOM     10  O   UNL     1      -0.578  13.191  17.798  0.00  0.00    +0.000 OA
ATOM     11  N   UNL     1      -1.463  12.571  19.871  0.00  0.00    +0.000 N 
ENDROOT
BRANCH  11  12
ATOM     12  N   UNL     1      -0.192  12.639  20.528  0.00  0.00    +0.000 N 
ATOM     13  C   UNL     1       0.559  11.663  21.192  0.00  0.00    +0.000 C 
ATOM     14  O   UNL     1       1.715  12.076  21.419  0.00  0.00    +0.000 OA
ATOM     15  H   UNL     1       0.373  13.438  20.270  0.00  0.00    +0.000 HD
BRANCH  13  16
ATOM     16  C   UNL     1       0.233  10.142  21.706  0.00  0.00    +0.000 C 
ATOM     17  C   UNL     1       1.403   9.347  22.335  0.00  0.00    +0.000 C 
ATOM     18  C   UNL     1      -0.765  10.271  22.923  0.00  0.00    +0.000 C 
ATOM     19  C   UNL     1      -0.496   9.216  20.721  0.00  0.00    +0.000 C 
ENDBRANCH  13  16
ENDBRANCH  11  12
BRANCH   1  20
ATOM     20  C   UNL     1      -3.084  13.567  21.853  0.00  0.00    +0.000 C 
BRANCH  20  21
ATOM     21  C   UNL     1      -3.688  15.069  21.837  0.00  0.00    +0.000 C 
ATOM     22  C   UNL     1      -5.182  15.290  22.208  0.00  0.00    +0.000 C 
ATOM     23  C   UNL     1      -5.594  15.647  23.649  0.00  0.00    +0.000 C 
ATOM     24  C   UNL     1      -4.620  16.389  24.551  0.00  0.00    +0.000 C 
ATOM     25  C   UNL     1      -3.161  16.386  24.139  0.00  0.00    +0.000 C 
ATOM     26  C   UNL     1      -2.846  16.117  22.657  0.00  0.00    +0.000 C 
BRANCH  21  27
ATOM     27  O   UNL     1      -3.518  15.478  20.461  0.00  0.00    +0.000 OA
ATOM     28  H   UNL     1      -4.192  15.026  19.925  0.00  0.00    +0.000 HD
ENDBRANCH  21  27
ENDBRANCH  20  21
BRANCH  20  30
ATOM     29  C   UNL     1      -3.707  12.445  24.109  0.00  0.00    +0.000 C 
ATOM     30  C   UNL     1      -4.098  12.728  22.676  0.00  0.00    +0.000 C 
ENDBRANCH  20  30
ENDBRANCH   1  20
TORSDOF 6
ENDMDL
MODEL 6
REMARK VINA RESULT:      -6.2      6.389     10.979
REMARK  Name = 
REMARK  10 active torsions:
REMARK  status: ('A' for Active; 'I' for Inactive)
REMARK    1  A    between atoms: C_1  and  C_2
REMARK    2  A    between atoms: C_2  and  C_3
REMARK    3  A    between atoms: C_3  and  C_4
REMARK    4  A    between atoms: C_3  and  C_22
REMARK    5  A    between atoms: N_14  and  N_15
REMARK    6  A    between atoms: C_16  and  C_18
REMARK    7  A    between atoms: C_18  and  C_19
REMARK    8  A    between atoms: C_18  and  C_20
REMARK    9  A    between atoms: C_18  and  C_21
REMARK   10  A    between atoms: C_22  and  O_23
REMARK                            x       y       z     vdW  Elec       q    Type
REMARK                         _______ _______ _______ _____ _____    ______ ____
ROOT
ATOM      1  C   UNL     1      -2.841  12.682  21.395  0.00  0.00    +0.000 A 
ATOM      2  N   UNL     1      -3.919  12.447  20.702  0.00  0.00    +0.000 NA
ATOM      3  C   UNL     1      -5.174  12.801  21.250  0.00  0.00    +0.000 A 
ATOM      4  C   UNL     1      -6.287  13.023  20.451  0.00  0.00    +0.000 A 
ATOM      5  C   UNL     1      -7.496  13.489  21.008  0.00  0.00    +0.000 A 
ATOM      6  C   UNL     1      -7.606  13.722  22.380  0.00  0.00    +0.000 A 
ATOM      7  C   UNL     1      -6.521  13.449  23.199  0.00  0.00    +0.000 A 
ATOM      8  C   UNL     1      -5.337  12.979  22.617  0.00  0.00    +0.000 A 
ATOM      9  C   UNL     1      -4.121  12.759  23.396  0.00  0.00    +0.000 A 
ATOM     10  O   UNL     1      -4.183  12.248  24.518  0.00  0.00    +0.000 OA
ATOM     11  N   UNL     1      -2.989  13.148  22.721  0.00  0.00    +0.000 N 
ENDROOT
BRANCH  11  12
ATOM     12  N   UNL     1      -1.985  13.722  23.566  0.00  0.00    +0.000 N 
ATOM     13  C   UNL     1      -1.897  14.978  24.175  0.00  0.00    +0.000 C 
ATOM     14  O   UNL     1      -0.976  14.995  25.019  0.00  0.00    +0.000 OA
ATOM     15  H   UNL     1      -1.364  13.049  23.998  0.00  0.00    +0.000 HD
BRANCH  13  16
ATOM     16  C   UNL     1      -2.734  16.376  24.009  0.00  0.00    +0.000 C 
ATOM     17  C   UNL     1      -3.300  16.693  22.603  0.00  0.00    +0.000 C 
ATOM     18  C   UNL     1      -4.051  16.230  24.867  0.00  0.00    +0.000 C 
ATOM     19  C   UNL     1      -2.073  17.651  24.553  0.00  0.00    +0.000 C 
ENDBRANCH  13  16
ENDBRANCH  11  12
BRANCH   1  20
ATOM     20  C   UNL     1      -1.432  12.336  20.608  0.00  0.00    +0.000 C 
BRANCH  20  21
ATOM     21  C   UNL     1      -0.188  11.701  21.428  0.00  0.00    +0.000 C 
ATOM     22  C   UNL     1      -0.473  10.731  22.609  0.00  0.00    +0.000 C 
ATOM     23  C   UNL     1      -0.495   9.206  22.392  0.00  0.00    +0.000 C 
ATOM     24  C   UNL     1       0.337   8.590  21.277  0.00  0.00    +0.000 C 
ATOM     25  C   UNL     1       0.824   9.523  20.186  0.00  0.00    +0.000 C 
ATOM     26  C   UNL     1       0.908  11.022  20.523  0.00  0.00    +0.000 C 
BRANCH  21  27
ATOM     27  O   UNL     1       0.476  12.865  21.973  0.00  0.00    +0.000 OA
ATOM     28  H   UNL     1      -0.202  13.532  22.175  0.00  0.00    +0.000 HD
ENDBRANCH  21  27
ENDBRANCH  20  21
BRANCH  20  30
ATOM     29  C   UNL     1      -1.600  11.929  18.050  0.00  0.00    +0.000 C 
ATOM     30  C   UNL     1      -1.699  11.347  19.442  0.00  0.00    +0.000 C 
ENDBRANCH  20  30
ENDBRANCH   1  20
TORSDOF 6
ENDMDL
MODEL 7
REMARK VINA RESULT:      -6.2      5.212      8.069
REMARK  Name = 
REMARK  10 active torsions:
REMARK  status: ('A' for Active; 'I' for Inactive)
REMARK    1  A    between atoms: C_1  and  C_2
REMARK    2  A    between atoms: C_2  and  C_3
REMARK    3  A    between atoms: C_3  and  C_4
REMARK    4  A    between atoms: C_3  and  C_22
REMARK    5  A    between atoms: N_14  and  N_15
REMARK    6  A    between atoms: C_16  and  C_18
REMARK    7  A    between atoms: C_18  and  C_19
REMARK    8  A    between atoms: C_18  and  C_20
REMARK    9  A    between atoms: C_18  and  C_21
REMARK   10  A    between atoms: C_22  and  O_23
REMARK                            x       y       z     vdW  Elec       q    Type
REMARK                         _______ _______ _______ _____ _____    ______ ____
ROOT
ATOM      1  C   UNL     1      -1.111  12.166  22.245  0.00  0.00    +0.000 A 
ATOM      2  N   UNL     1      -0.782  10.973  22.656  0.00  0.00    +0.000 NA
ATOM      3  C   UNL     1      -0.087  10.114  21.773  0.00  0.00    +0.000 A 
ATOM      4  C   UNL     1       0.688   9.059  22.235  0.00  0.00    +0.000 A 
ATOM      5  C   UNL     1       1.466   8.289  21.344  0.00  0.00    +0.000 A 
ATOM      6  C   UNL     1       1.459   8.560  19.975  0.00  0.00    +0.000 A 
ATOM      7  C   UNL     1       0.644   9.573  19.492  0.00  0.00    +0.000 A 
ATOM      8  C   UNL     1      -0.122  10.314  20.400  0.00  0.00    +0.000 A 
ATOM      9  C   UNL     1      -0.931  11.456  19.984  0.00  0.00    +0.000 A 
ATOM     10  O   UNL     1      -1.582  11.412  18.936  0.00  0.00    +0.000 OA
ATOM     11  N   UNL     1      -0.883  12.490  20.889  0.00  0.00    +0.000 N 
ENDROOT
BRANCH  11  12
ATOM     12  N   UNL     1      -0.906  13.787  20.281  0.00  0.00    +0.000 N 
ATOM     13  C   UNL     1       0.042  14.459  19.503  0.00  0.00    +0.000 C 
ATOM     14  O   UNL     1      -0.460  15.474  18.976  0.00  0.00    +0.000 OA
ATOM     15  H   UNL     1      -1.829  14.188  20.181  0.00  0.00    +0.000 HD
BRANCH  13  16
ATOM     16  C   UNL     1       1.620  14.187  19.157  0.00  0.00    +0.000 C 
ATOM     17  C   UNL     1       2.439  15.385  18.618  0.00  0.00    +0.000 C 
ATOM     18  C   UNL     1       2.346  13.885  20.527  0.00  0.00    +0.000 C 
ATOM     19  C   UNL     1       1.939  12.962  18.286  0.00  0.00    +0.000 C 
ENDBRANCH  13  16
ENDBRANCH  11  12
BRANCH   1  20
ATOM     20  C   UNL     1      -1.812  13.118  23.397  0.00  0.00    +0.000 C 
BRANCH  20  21
ATOM     21  C   UNL     1      -1.393  14.677  23.516  0.00  0.00    +0.000 C 
ATOM     22  C   UNL     1      -2.183  15.739  22.700  0.00  0.00    +0.000 C 
ATOM     23  C   UNL     1      -3.367  16.499  23.328  0.00  0.00    +0.000 C 
ATOM     24  C   UNL     1      -3.407  16.724  24.831  0.00  0.00    +0.000 C 
ATOM     25  C   UNL     1      -2.504  15.852  25.682  0.00  0.00    +0.000 C 
ATOM     26  C   UNL     1      -1.287  15.211  24.993  0.00  0.00    +0.000 C 
BRANCH  21  27
ATOM     27  O   UNL     1      -0.029  14.689  23.036  0.00  0.00    +0.000 OA
ATOM     28  H   UNL     1       0.485  14.059  23.571  0.00  0.00    +0.000 HD
ENDBRANCH  21  27
ENDBRANCH  20  21
BRANCH  20  30
ATOM     29  C   UNL     1      -4.152  12.618  24.404  0.00  0.00    +0.000 C 
ATOM     30  C   UNL     1      -3.354  13.122  23.222  0.00  0.00    +0.000 C 
ENDBRANCH  20  30
ENDBRANCH   1  20
TORSDOF 6
ENDMDL
MODEL 8
REMARK VINA RESULT:      -6.2      5.806      8.633
REMARK  Name = 
REMARK  10 active torsions:
REMARK  status: ('A' for Active; 'I' for Inactive)
REMARK    1  A    between atoms: C_1  and  C_2
REMARK    2  A    between atoms: C_2  and  C_3
REMARK    3  A    between atoms: C_3  and  C_4
REMARK    4  A    between atoms: C_3  and  C_22
REMARK    5  A    between atoms: N_14  and  N_15
REMARK    6  A    between atoms: C_16  and  C_18
REMARK    7  A    between atoms: C_18  and  C_19
REMARK    8  A    between atoms: C_18  and  C_20
REMARK    9  A    between atoms: C_18  and  C_21
REMARK   10  A    between atoms: C_22  and  O_23
REMARK                            x       y       z     vdW  Elec       q    Type
REMARK                         _______ _______ _______ _____ _____    ______ ____
ROOT
ATOM      1  C   UNL     1      -2.113  12.953  21.874  0.00  0.00    +0.000 A 
ATOM      2  N   UNL     1      -1.943  11.881  22.595  0.00  0.00    +0.000 NA
ATOM      3  C   UNL     1      -0.987  10.924  22.183  0.00  0.00    +0.000 A 
ATOM      4  C   UNL     1      -0.416  10.026  23.075  0.00  0.00    +0.000 A 
ATOM      5  C   UNL     1       0.621   9.161  22.666  0.00  0.00    +0.000 A 
ATOM      6  C   UNL     1       1.083   9.175  21.349  0.00  0.00    +0.000 A 
ATOM      7  C   UNL     1       0.482  10.024  20.432  0.00  0.00    +0.000 A 
ATOM      8  C   UNL     1      -0.550  10.866  20.867  0.00  0.00    +0.000 A 
ATOM      9  C   UNL     1      -1.168  11.855  19.989  0.00  0.00    +0.000 A 
ATOM     10  O   UNL     1      -1.421  11.575  18.813  0.00  0.00    +0.000 OA
ATOM     11  N   UNL     1      -1.434  13.038  20.638  0.00  0.00    +0.000 N 
ENDROOT
BRANCH  11  12
ATOM     12  N   UNL     1      -1.249  14.197  19.816  0.00  0.00    +0.000 N 
ATOM     13  C   UNL     1      -0.107  14.720  19.200  0.00  0.00    +0.000 C 
ATOM     14  O   UNL     1      -0.417  15.612  18.384  0.00  0.00    +0.000 OA
ATOM     15  H   UNL     1      -2.098  14.564  19.408  0.00  0.00    +0.000 HD
BRANCH  13  16
ATOM     16  C   UNL     1       1.495  14.402  19.332  0.00  0.00    +0.000 C 
ATOM     17  C   UNL     1       1.980  13.771  20.660  0.00  0.00    +0.000 C 
ATOM     18  C   UNL     1       1.825  13.263  18.289  0.00  0.00    +0.000 C 
ATOM     19  C   UNL     1       2.461  15.538  18.964  0.00  0.00    +0.000 C 
ENDBRANCH  13  16
ENDBRANCH  11  12
BRANCH   1  20
ATOM     20  C   UNL     1      -3.167  14.050  22.514  0.00  0.00    +0.000 C 
BRANCH  20  21
ATOM     21  C   UNL     1      -4.653  14.197  21.888  0.00  0.00    +0.000 C 
ATOM     22  C   UNL     1      -5.658  13.019  22.032  0.00  0.00    +0.000 C 
ATOM     23  C   UNL     1      -6.665  12.977  23.196  0.00  0.00    +0.000 C 
ATOM     24  C   UNL     1      -7.146  14.275  23.825  0.00  0.00    +0.000 C 
ATOM     25  C   UNL     1      -6.318  15.518  23.559  0.00  0.00    +0.000 C 
ATOM     26  C   UNL     1      -5.412  15.509  22.316  0.00  0.00    +0.000 C 
BRANCH  21  27
ATOM     27  O   UNL     1      -4.399  14.381  20.476  0.00  0.00    +0.000 OA
ATOM     28  H   UNL     1      -3.635  14.976  20.381  0.00  0.00    +0.000 HD
ENDBRANCH  21  27
ENDBRANCH  20  21
BRANCH  20  30
ATOM     29  C   UNL     1      -2.896  14.832  24.974  0.00  0.00    +0.000 C 
ATOM     30  C   UNL     1      -3.387  13.763  24.023  0.00  0.00    +0.000 C 
ENDBRANCH  20  30
ENDBRANCH   1  20
TORSDOF 6
ENDMDL
MODEL 9
REMARK VINA RESULT:      -6.1      5.456      8.300
REMARK  Name = 
REMARK  10 active torsions:
REMARK  status: ('A' for Active; 'I' for Inactive)
REMARK    1  A    between atoms: C_1  and  C_2
REMARK    2  A    between atoms: C_2  and  C_3
REMARK    3  A    between atoms: C_3  and  C_4
REMARK    4  A    between atoms: C_3  and  C_22
REMARK    5  A    between atoms: N_14  and  N_15
REMARK    6  A    between atoms: C_16  and  C_18
REMARK    7  A    between atoms: C_18  and  C_19
REMARK    8  A    between atoms: C_18  and  C_20
REMARK    9  A    between atoms: C_18  and  C_21
REMARK   10  A    between atoms: C_22  and  O_23
REMARK                            x       y       z     vdW  Elec       q    Type
REMARK                         _______ _______ _______ _____ _____    ______ ____
ROOT
ATOM      1  C   UNL     1      -1.800  12.645  21.797  0.00  0.00    +0.000 A 
ATOM      2  N   UNL     1      -1.578  11.528  22.431  0.00  0.00    +0.000 NA
ATOM      3  C   UNL     1      -0.688  10.585  21.865  0.00  0.00    +0.000 A 
ATOM      4  C   UNL     1      -0.047   9.626  22.636  0.00  0.00    +0.000 A 
ATOM      5  C   UNL     1       0.925   8.774  22.070  0.00  0.00    +0.000 A 
ATOM      6  C   UNL     1       1.250   8.864  20.716  0.00  0.00    +0.000 A 
ATOM      7  C   UNL     1       0.575   9.778  19.919  0.00  0.00    +0.000 A 
ATOM      8  C   UNL     1      -0.390  10.604  20.509  0.00  0.00    +0.000 A 
ATOM      9  C   UNL     1      -1.075  11.654  19.761  0.00  0.00    +0.000 A 
ATOM     10  O   UNL     1      -1.453  11.452  18.604  0.00  0.00    +0.000 OA
ATOM     11  N   UNL     1      -1.250  12.798  20.505  0.00  0.00    +0.000 N 
ENDROOT
BRANCH  11  12
ATOM     12  N   UNL     1      -1.126  14.003  19.741  0.00  0.00    +0.000 N 
ATOM     13  C   UNL     1      -0.015  14.612  19.148  0.00  0.00    +0.000 C 
ATOM     14  O   UNL     1      -0.373  15.527  18.377  0.00  0.00    +0.000 OA
ATOM     15  H   UNL     1      -1.995  14.347  19.353  0.00  0.00    +0.000 HD
BRANCH  13  16
ATOM     16  C   UNL     1       1.601  14.369  19.260  0.00  0.00    +0.000 C 
ATOM     17  C   UNL     1       2.138  13.818  20.604  0.00  0.00    +0.000 C 
ATOM     18  C   UNL     1       1.961  13.201  18.261  0.00  0.00    +0.000 C 
ATOM     19  C   UNL     1       2.510  15.528  18.824  0.00  0.00    +0.000 C 
ENDBRANCH  13  16
ENDBRANCH  11  12
BRANCH   1  20
ATOM     20  C   UNL     1      -2.761  13.714  22.609  0.00  0.00    +0.000 C 
BRANCH  20  21
ATOM     21  C   UNL     1      -4.278  13.299  22.993  0.00  0.00    +0.000 C 
ATOM     22  C   UNL     1      -5.161  14.303  23.786  0.00  0.00    +0.000 C 
ATOM     23  C   UNL     1      -6.112  15.270  23.055  0.00  0.00    +0.000 C 
ATOM     24  C   UNL     1      -6.687  14.883  21.701  0.00  0.00    +0.000 C 
ATOM     25  C   UNL     1      -5.990  13.763  20.952  0.00  0.00    +0.000 C 
ATOM     26  C   UNL     1      -5.138  12.785  21.778  0.00  0.00    +0.000 C 
BRANCH  21  27
ATOM     27  O   UNL     1      -4.100  12.128  23.822  0.00  0.00    +0.000 OA
ATOM     28  H   UNL     1      -4.575  11.388  23.406  0.00  0.00    +0.000 HD
ENDBRANCH  21  27
ENDBRANCH  20  21
BRANCH  20  30
ATOM     29  C   UNL     1      -1.006  15.162  23.859  0.00  0.00    +0.000 C 
ATOM     30  C   UNL     1      -2.096  14.118  23.952  0.00  0.00    +0.000 C 
ENDBRANCH  20  30
ENDBRANCH   1  20
TORSDOF 6
ENDMDL
