MODEL 1
REMARK VINA RESULT:      -7.5      0.000      0.000
REMARK  Name = 
REMARK  6 active torsions:
REMARK  status: ('A' for Active; 'I' for Inactive)
REMARK    1  A    between atoms: C_1  and  O_2
REMARK    2  A    between atoms: O_2  and  C_3
REMARK    3  A    between atoms: C_4  and  C_5
REMARK    4  A    between atoms: C_8  and  C_9
REMARK    5  A    between atoms: C_9  and  N_10
REMARK    6  A    between atoms: C_23  and  C_24
REMARK                            x       y       z     vdW  Elec       q    Type
REMARK                         _______ _______ _______ _____ _____    ______ ____
ROOT
ATOM      1  N   UNL     1       5.578   4.140  16.330  0.00  0.00    +0.000 N 
ATOM      2  C   UNL     1       6.377   4.690  17.324  0.00  0.00    +0.000 A 
ATOM      3  O   UNL     1       6.308   4.503  18.530  0.00  0.00    +0.000 OA
ATOM      4  C   UNL     1       7.459   5.625  16.856  0.00  0.00    +0.000 A 
ATOM      5  N   UNL     1       7.781   5.796  15.614  0.00  0.00    +0.000 NA
ATOM      6  C   UNL     1       7.075   5.030  14.662  0.00  0.00    +0.000 A 
ATOM      7  C   UNL     1       7.402   5.019  13.317  0.00  0.00    +0.000 A 
ATOM      8 CL   UNL     1       8.683   5.984  12.685  0.00  0.00    +0.000 Cl
ATOM      9  N   UNL     1       6.798   4.276  12.372  0.00  0.00    +0.000 NA
ATOM     10  C   UNL     1       5.807   3.500  12.798  0.00  0.00    +0.000 A 
ATOM     11  N   UNL     1       5.207   2.683  11.873  0.00  0.00    +0.000 N 
ATOM     12  N   UNL     1       5.352   3.463  14.053  0.00  0.00    +0.000 NA
ATOM     13  C   UNL     1       5.994   4.215  14.974  0.00  0.00    +0.000 A 
ATOM     14  H   UNL     1       5.355   3.014  10.930  0.00  0.00    +0.000 HD
ATOM     15  H   UNL     1       4.273   2.411  12.141  0.00  0.00    +0.000 HD
ENDROOT
BRANCH   1  16
ATOM     16  C   UNL     1       4.426   3.326  16.708  0.00  0.00    +0.000 C 
BRANCH  16  22
ATOM     17  C   UNL     1       2.659   3.939  20.102  0.00  0.00    +0.000 A 
ATOM     18  C   UNL     1       2.157   5.222  19.855  0.00  0.00    +0.000 A 
ATOM     19  C   UNL     1       1.381   6.126  20.762  0.00  0.00    +0.000 C 
ATOM     20  C   UNL     1       2.396   5.737  18.584  0.00  0.00    +0.000 A 
ATOM     21  N   UNL     1       3.115   5.134  17.621  0.00  0.00    +0.000 NA
ATOM     22  C   UNL     1       3.623   3.906  17.864  0.00  0.00    +0.000 A 
ATOM     23  C   UNL     1       3.404   3.261  19.090  0.00  0.00    +0.000 A 
ATOM     24  C   UNL     1       3.903   1.867  19.373  0.00  0.00    +0.000 C 
BRANCH  17  26
ATOM     25  C   UNL     1       1.357   2.664  21.711  0.00  0.00    +0.000 C 
ATOM     26  O   UNL     1       2.581   3.214  21.263  0.00  0.00    +0.000 OA
ENDBRANCH  17  26
ENDBRANCH  16  22
ENDBRANCH   1  16
TORSDOF 3
ENDMDL
MODEL 2
REMARK VINA RESULT:      -7.1      3.321      6.826
REMARK  Name = 
REMARK  6 active torsions:
REMARK  status: ('A' for Active; 'I' for Inactive)
REMARK    1  A    between atoms: C_1  and  O_2
REMARK    2  A    between atoms: O_2  and  C_3
REMARK    3  A    between atoms: C_4  and  C_5
REMARK    4  A    between atoms: C_8  and  C_9
REMARK    5  A    between atoms: C_9  and  N_10
REMARK    6  A    between atoms: C_23  and  C_24
REMARK                            x       y       z     vdW  Elec       q    Type
REMARK                         _______ _______ _______ _____ _____    ______ ____
ROOT
ATOM      1  N   UNL     1       5.559   5.530  17.477  0.00  0.00    +0.000 N 
ATOM      2  C   UNL     1       4.970   6.610  16.833  0.00  0.00    +0.000 A 
ATOM      3  O   UNL     1       5.347   7.173  15.816  0.00  0.00    +0.000 OA
ATOM      4  C   UNL     1       3.714   7.147  17.464  0.00  0.00    +0.000 A 
ATOM      5  N   UNL     1       3.086   6.566  18.435  0.00  0.00    +0.000 NA
ATOM      6  C   UNL     1       3.618   5.343  18.896  0.00  0.00    +0.000 A 
ATOM      7  C   UNL     1       2.980   4.554  19.838  0.00  0.00    +0.000 A 
ATOM      8 CL   UNL     1       1.490   5.030  20.561  0.00  0.00    +0.000 Cl
ATOM      9  N   UNL     1       3.413   3.361  20.281  0.00  0.00    +0.000 NA
ATOM     10  C   UNL     1       4.554   2.932  19.752  0.00  0.00    +0.000 A 
ATOM     11  N   UNL     1       4.996   1.690  20.135  0.00  0.00    +0.000 N 
ATOM     12  N   UNL     1       5.300   3.621  18.884  0.00  0.00    +0.000 NA
ATOM     13  C   UNL     1       4.823   4.809  18.455  0.00  0.00    +0.000 A 
ATOM     14  H   UNL     1       4.590   1.405  21.016  0.00  0.00    +0.000 HD
ATOM     15  H   UNL     1       5.990   1.575  20.009  0.00  0.00    +0.000 HD
ENDROOT
BRANCH   1  16
ATOM     16  C   UNL     1       6.848   5.032  17.004  0.00  0.00    +0.000 C 
BRANCH  16  22
ATOM     17  C   UNL     1       6.240   3.833  13.370  0.00  0.00    +0.000 A 
ATOM     18  C   UNL     1       7.158   4.661  12.713  0.00  0.00    +0.000 A 
ATOM     19  C   UNL     1       7.448   4.778  11.249  0.00  0.00    +0.000 C 
ATOM     20  C   UNL     1       7.926   5.488  13.528  0.00  0.00    +0.000 A 
ATOM     21  N   UNL     1       7.806   5.596  14.863  0.00  0.00    +0.000 NA
ATOM     22  C   UNL     1       6.903   4.817  15.497  0.00  0.00    +0.000 A 
ATOM     23  C   UNL     1       6.108   3.905  14.790  0.00  0.00    +0.000 A 
ATOM     24  C   UNL     1       5.135   2.978  15.472  0.00  0.00    +0.000 C 
BRANCH  17  26
ATOM     25  C   UNL     1       4.465   3.338  11.784  0.00  0.00    +0.000 C 
ATOM     26  O   UNL     1       5.357   2.946  12.810  0.00  0.00    +0.000 OA
ENDBRANCH  17  26
ENDBRANCH  16  22
ENDBRANCH   1  16
TORSDOF 3
ENDMDL
MODEL 3
REMARK VINA RESULT:      -7.1      3.427      7.150
REMARK  Name = 
REMARK  6 active torsions:
REMARK  status: ('A' for Active; 'I' for Inactive)
REMARK    1  A    between atoms: C_1  and  O_2
REMARK    2  A    between atoms: O_2  and  C_3
REMARK    3  A    between atoms: C_4  and  C_5
REMARK    4  A    between atoms: C_8  and  C_9
REMARK    5  A    between atoms: C_9  and  N_10
REMARK    6  A    between atoms: C_23  and  C_24
REMARK                            x       y       z     vdW  Elec       q    Type
REMARK                         _______ _______ _______ _____ _____    ______ ____
ROOT
ATOM      1  N   UNL     1       4.505   5.441  18.960  0.00  0.00    +0.000 N 
ATOM      2  C   UNL     1       3.554   6.379  18.580  0.00  0.00    +0.000 A 
ATOM      3  O   UNL     1       3.673   7.276  17.758  0.00  0.00    +0.000 OA
ATOM      4  C   UNL     1       2.216   6.273  19.260  0.00  0.00    +0.000 A 
ATOM      5  N   UNL     1       1.866   5.285  20.020  0.00  0.00    +0.000 NA
ATOM      6  C   UNL     1       2.806   4.245  20.185  0.00  0.00    +0.000 A 
ATOM      7  C   UNL     1       2.516   3.073  20.863  0.00  0.00    +0.000 A 
ATOM      8 CL   UNL     1       0.983   2.808  21.605  0.00  0.00    +0.000 Cl
ATOM      9  N   UNL     1       3.352   2.030  21.013  0.00  0.00    +0.000 NA
ATOM     10  C   UNL     1       4.548   2.168  20.452  0.00  0.00    +0.000 A 
ATOM     11  N   UNL     1       5.407   1.100  20.532  0.00  0.00    +0.000 N 
ATOM     12  N   UNL     1       4.976   3.268  19.826  0.00  0.00    +0.000 NA
ATOM     13  C   UNL     1       4.102   4.288  19.686  0.00  0.00    +0.000 A 
ATOM     14  H   UNL     1       5.160   0.478  21.290  0.00  0.00    +0.000 HD
ATOM     15  H   UNL     1       6.374   1.369  20.433  0.00  0.00    +0.000 HD
ENDROOT
BRANCH   1  16
ATOM     16  C   UNL     1       5.866   5.553  18.444  0.00  0.00    +0.000 C 
BRANCH  16  22
ATOM     17  C   UNL     1       6.989   5.100  14.763  0.00  0.00    +0.000 A 
ATOM     18  C   UNL     1       6.096   4.090  14.388  0.00  0.00    +0.000 A 
ATOM     19  C   UNL     1       5.973   3.373  13.079  0.00  0.00    +0.000 C 
ATOM     20  C   UNL     1       5.177   3.698  15.356  0.00  0.00    +0.000 A 
ATOM     21  N   UNL     1       5.129   4.158  16.619  0.00  0.00    +0.000 NA
ATOM     22  C   UNL     1       6.006   5.115  16.993  0.00  0.00    +0.000 A 
ATOM     23  C   UNL     1       6.946   5.630  16.089  0.00  0.00    +0.000 A 
ATOM     24  C   UNL     1       7.899   6.739  16.454  0.00  0.00    +0.000 C 
BRANCH  17  26
ATOM     25  C   UNL     1       8.000   5.571  12.603  0.00  0.00    +0.000 C 
ATOM     26  O   UNL     1       7.997   5.653  14.015  0.00  0.00    +0.000 OA
ENDBRANCH  17  26
ENDBRANCH  16  22
ENDBRANCH   1  16
TORSDOF 3
ENDMDL
MODEL 4
REMARK VINA RESULT:      -6.9      2.993      4.939
REMARK  Name = 
REMARK  6 active torsions:
REMARK  status: ('A' for Active; 'I' for Inactive)
REMARK    1  A    between atoms: C_1  and  O_2
REMARK    2  A    between atoms: O_2  and  C_3
REMARK    3  A    between atoms: C_4  and  C_5
REMARK    4  A    between atoms: C_8  and  C_9
REMARK    5  A    between atoms: C_9  and  N_10
REMARK    6  A    between atoms: C_23  and  C_24
REMARK                            x       y       z     vdW  Elec       q    Type
REMARK                         _______ _______ _______ _____ _____    ______ ____
ROOT
ATOM      1  N   UNL     1       3.518   5.362  18.535  0.00  0.00    +0.000 N 
ATOM      2  C   UNL     1       2.471   4.513  18.205  0.00  0.00    +0.000 A 
ATOM      3  O   UNL     1       1.352   4.477  18.695  0.00  0.00    +0.000 OA
ATOM      4  C   UNL     1       2.750   3.520  17.109  0.00  0.00    +0.000 A 
ATOM      5  N   UNL     1       3.812   3.535  16.370  0.00  0.00    +0.000 NA
ATOM      6  C   UNL     1       4.740   4.571  16.612  0.00  0.00    +0.000 A 
ATOM      7  C   UNL     1       5.852   4.783  15.816  0.00  0.00    +0.000 A 
ATOM      8 CL   UNL     1       6.220   3.759  14.478  0.00  0.00    +0.000 Cl
ATOM      9  N   UNL     1       6.745   5.778  15.967  0.00  0.00    +0.000 NA
ATOM     10  C   UNL     1       6.510   6.610  16.976  0.00  0.00    +0.000 A 
ATOM     11  N   UNL     1       7.365   7.673  17.124  0.00  0.00    +0.000 N 
ATOM     12  N   UNL     1       5.512   6.483  17.854  0.00  0.00    +0.000 NA
ATOM     13  C   UNL     1       4.632   5.478  17.660  0.00  0.00    +0.000 A 
ATOM     14  H   UNL     1       8.252   7.506  16.669  0.00  0.00    +0.000 HD
ATOM     15  H   UNL     1       7.374   8.037  18.065  0.00  0.00    +0.000 HD
ENDROOT
BRANCH   1  16
ATOM     16  C   UNL     1       3.374   6.267  19.673  0.00  0.00    +0.000 C 
BRANCH  16  22
ATOM     17  C   UNL     1       0.695   9.059  19.880  0.00  0.00    +0.000 A 
ATOM     18  C   UNL     1       0.973   9.714  18.674  0.00  0.00    +0.000 A 
ATOM     19  C   UNL     1       0.339  10.941  18.096  0.00  0.00    +0.000 C 
ATOM     20  C   UNL     1       1.968   9.144  17.885  0.00  0.00    +0.000 A 
ATOM     21  N   UNL     1       2.713   8.076  18.220  0.00  0.00    +0.000 NA
ATOM     22  C   UNL     1       2.465   7.456  19.395  0.00  0.00    +0.000 A 
ATOM     23  C   UNL     1       1.450   7.905  20.251  0.00  0.00    +0.000 A 
ATOM     24  C   UNL     1       1.107   7.202  21.540  0.00  0.00    +0.000 C 
BRANCH  17  26
ATOM     25  C   UNL     1      -0.040  10.576  21.631  0.00  0.00    +0.000 C 
ATOM     26  O   UNL     1      -0.215   9.416  20.841  0.00  0.00    +0.000 OA
ENDBRANCH  17  26
ENDBRANCH  16  22
ENDBRANCH   1  16
TORSDOF 3
ENDMDL
MODEL 5
REMARK VINA RESULT:      -6.8      9.169     12.765
REMARK  Name = 
REMARK  6 active torsions:
REMARK  status: ('A' for Active; 'I' for Inactive)
REMARK    1  A    between atoms: C_1  and  O_2
REMARK    2  A    between atoms: O_2  and  C_3
REMARK    3  A    between atoms: C_4  and  C_5
REMARK    4  A    between atoms: C_8  and  C_9
REMARK    5  A    between atoms: C_9  and  N_10
REMARK    6  A    between atoms: C_23  and  C_24
REMARK                            x       y       z     vdW  Elec       q    Type
REMARK                         _______ _______ _______ _____ _____    ______ ____
ROOT
ATOM      1  N   UNL     1      -2.509  13.055  22.059  0.00  0.00    +0.000 N 
ATOM      2  C   UNL     1      -2.536  13.429  23.396  0.00  0.00    +0.000 A 
ATOM      3  O   UNL     1      -1.639  13.941  24.049  0.00  0.00    +0.000 OA
ATOM      4  C   UNL     1      -3.828  13.175  24.123  0.00  0.00    +0.000 A 
ATOM      5  N   UNL     1      -4.925  12.804  23.545  0.00  0.00    +0.000 NA
ATOM      6  C   UNL     1      -4.886  12.659  22.142  0.00  0.00    +0.000 A 
ATOM      7  C   UNL     1      -6.014  12.393  21.384  0.00  0.00    +0.000 A 
ATOM      8 CL   UNL     1      -7.563  12.173  22.107  0.00  0.00    +0.000 Cl
ATOM      9  N   UNL     1      -6.048  12.290  20.043  0.00  0.00    +0.000 NA
ATOM     10  C   UNL     1      -4.885  12.462  19.425  0.00  0.00    +0.000 A 
ATOM     11  N   UNL     1      -4.892  12.424  18.052  0.00  0.00    +0.000 N 
ATOM     12  N   UNL     1      -3.715  12.661  20.038  0.00  0.00    +0.000 NA
ATOM     13  C   UNL     1      -3.726  12.770  21.384  0.00  0.00    +0.000 A 
ATOM     14  H   UNL     1      -5.703  11.937  17.696  0.00  0.00    +0.000 HD
ATOM     15  H   UNL     1      -3.989  12.194  17.665  0.00  0.00    +0.000 HD
ENDROOT
BRANCH   1  16
ATOM     16  C   UNL     1      -1.255  13.147  21.316  0.00  0.00    +0.000 C 
BRANCH  16  22
ATOM     17  C   UNL     1       0.331   9.997  19.711  0.00  0.00    +0.000 A 
ATOM     18  C   UNL     1       0.693   9.318  20.881  0.00  0.00    +0.000 A 
ATOM     19  C   UNL     1       1.406   8.010  21.034  0.00  0.00    +0.000 C 
ATOM     20  C   UNL     1       0.331   9.929  22.078  0.00  0.00    +0.000 A 
ATOM     21  N   UNL     1      -0.266  11.128  22.192  0.00  0.00    +0.000 NA
ATOM     22  C   UNL     1      -0.594  11.799  21.066  0.00  0.00    +0.000 A 
ATOM     23  C   UNL     1      -0.329  11.260  19.799  0.00  0.00    +0.000 A 
ATOM     24  C   UNL     1      -0.735  11.952  18.523  0.00  0.00    +0.000 C 
BRANCH  17  26
ATOM     25  C   UNL     1       1.899   9.560  17.905  0.00  0.00    +0.000 C 
ATOM     26  O   UNL     1       0.580   9.629  18.414  0.00  0.00    +0.000 OA
ENDBRANCH  17  26
ENDBRANCH  16  22
ENDBRANCH   1  16
TORSDOF 3
ENDMDL
MODEL 6
REMARK VINA RESULT:      -6.7      6.512      9.367
REMARK  Name = 
REMARK  6 active torsions:
REMARK  status: ('A' for Active; 'I' for Inactive)
REMARK    1  A    between atoms: C_1  and  O_2
REMARK    2  A    between atoms: O_2  and  C_3
REMARK    3  A    between atoms: C_4  and  C_5
REMARK    4  A    between atoms: C_8  and  C_9
REMARK    5  A    between atoms: C_9  and  N_10
REMARK    6  A    between atoms: C_23  and  C_24
REMARK                            x       y       z     vdW  Elec       q    Type
REMARK                         _______ _______ _______ _____ _____    ______ ____
ROOT
ATOM      1  N   UNL     1       0.267  11.004  19.643  0.00  0.00    +0.000 N 
ATOM      2  C   UNL     1       0.496  11.641  20.855  0.00  0.00    +0.000 A 
ATOM      3  O   UNL     1       1.568  11.831  21.411  0.00  0.00    +0.000 OA
ATOM      4  C   UNL     1      -0.724  12.162  21.565  0.00  0.00    +0.000 A 
ATOM      5  N   UNL     1      -1.906  12.201  21.041  0.00  0.00    +0.000 NA
ATOM      6  C   UNL     1      -2.028  11.742  19.712  0.00  0.00    +0.000 A 
ATOM      7  C   UNL     1      -3.203  11.845  18.987  0.00  0.00    +0.000 A 
ATOM      8 CL   UNL     1      -4.638  12.509  19.674  0.00  0.00    +0.000 Cl
ATOM      9  N   UNL     1      -3.367  11.470  17.706  0.00  0.00    +0.000 NA
ATOM     10  C   UNL     1      -2.292  10.960  17.116  0.00  0.00    +0.000 A 
ATOM     11  N   UNL     1      -2.405  10.622  15.790  0.00  0.00    +0.000 N 
ATOM     12  N   UNL     1      -1.119  10.748  17.717  0.00  0.00    +0.000 NA
ATOM     13  C   UNL     1      -0.992  11.150  19.000  0.00  0.00    +0.000 A 
ATOM     14  H   UNL     1      -3.369  10.481  15.521  0.00  0.00    +0.000 HD
ATOM     15  H   UNL     1      -1.726   9.932  15.505  0.00  0.00    +0.000 HD
ENDROOT
BRANCH   1  16
ATOM     16  C   UNL     1       1.380  10.357  18.953  0.00  0.00    +0.000 C 
BRANCH  16  22
ATOM     17  C   UNL     1       2.460   6.640  19.146  0.00  0.00    +0.000 A 
ATOM     18  C   UNL     1       1.884   6.312  20.379  0.00  0.00    +0.000 A 
ATOM     19  C   UNL     1       1.929   5.017  21.130  0.00  0.00    +0.000 C 
ATOM     20  C   UNL     1       1.150   7.320  20.997  0.00  0.00    +0.000 A 
ATOM     21  N   UNL     1       1.015   8.578  20.542  0.00  0.00    +0.000 NA
ATOM     22  C   UNL     1       1.591   8.906  19.365  0.00  0.00    +0.000 A 
ATOM     23  C   UNL     1       2.311   7.960  18.621  0.00  0.00    +0.000 A 
ATOM     24  C   UNL     1       2.916   8.275  17.277  0.00  0.00    +0.000 C 
BRANCH  17  26
ATOM     25  C   UNL     1       2.723   4.683  17.727  0.00  0.00    +0.000 C 
ATOM     26  O   UNL     1       3.240   5.847  18.344  0.00  0.00    +0.000 OA
ENDBRANCH  17  26
ENDBRANCH  16  22
ENDBRANCH   1  16
TORSDOF 3
ENDMDL
MODEL 7
REMARK VINA RESULT:      -6.6      4.141      6.197
REMARK  Name = 
REMARK  6 active torsions:
REMARK  status: ('A' for Active; 'I' for Inactive)
REMARK    1  A    between atoms: C_1  and  O_2
REMARK    2  A    between atoms: O_2  and  C_3
REMARK    3  A    between atoms: C_4  and  C_5
REMARK    4  A    between atoms: C_8  and  C_9
REMARK    5  A    between atoms: C_9  and  N_10
REMARK    6  A    between atoms: C_23  and  C_24
REMARK                            x       y       z     vdW  Elec       q    Type
REMARK                         _______ _______ _______ _____ _____    ______ ____
ROOT
ATOM      1  N   UNL     1       3.622   5.763  18.290  0.00  0.00    +0.000 N 
ATOM      2  C   UNL     1       4.944   6.162  18.154  0.00  0.00    +0.000 A 
ATOM      3  O   UNL     1       5.366   7.258  17.814  0.00  0.00    +0.000 OA
ATOM      4  C   UNL     1       5.982   5.119  18.470  0.00  0.00    +0.000 A 
ATOM      5  N   UNL     1       5.717   3.972  19.007  0.00  0.00    +0.000 NA
ATOM      6  C   UNL     1       4.366   3.718  19.330  0.00  0.00    +0.000 A 
ATOM      7  C   UNL     1       3.960   2.590  20.022  0.00  0.00    +0.000 A 
ATOM      8 CL   UNL     1       5.078   1.373  20.512  0.00  0.00    +0.000 Cl
ATOM      9  N   UNL     1       2.698   2.316  20.398  0.00  0.00    +0.000 NA
ATOM     10  C   UNL     1       1.789   3.224  20.060  0.00  0.00    +0.000 A 
ATOM     11  N   UNL     1       0.500   3.008  20.480  0.00  0.00    +0.000 N 
ATOM     12  N   UNL     1       2.036   4.321  19.340  0.00  0.00    +0.000 NA
ATOM     13  C   UNL     1       3.318   4.566  18.993  0.00  0.00    +0.000 A 
ATOM     14  H   UNL     1       0.335   2.034  20.693  0.00  0.00    +0.000 HD
ATOM     15  H   UNL     1      -0.180   3.493  19.914  0.00  0.00    +0.000 HD
ENDROOT
BRANCH   1  16
ATOM     16  C   UNL     1       2.555   6.672  17.880  0.00  0.00    +0.000 C 
BRANCH  16  22
ATOM     17  C   UNL     1       1.168   9.589  20.022  0.00  0.00    +0.000 A 
ATOM     18  C   UNL     1       1.032   8.915  21.241  0.00  0.00    +0.000 A 
ATOM     19  C   UNL     1       0.501   9.420  22.547  0.00  0.00    +0.000 C 
ATOM     20  C   UNL     1       1.461   7.591  21.259  0.00  0.00    +0.000 A 
ATOM     21  N   UNL     1       1.922   6.907  20.197  0.00  0.00    +0.000 NA
ATOM     22  C   UNL     1       2.031   7.546  19.012  0.00  0.00    +0.000 A 
ATOM     23  C   UNL     1       1.681   8.897  18.882  0.00  0.00    +0.000 A 
ATOM     24  C   UNL     1       1.846   9.657  17.591  0.00  0.00    +0.000 C 
BRANCH  17  26
ATOM     25  C   UNL     1      -0.548  11.272  19.659  0.00  0.00    +0.000 C 
ATOM     26  O   UNL     1       0.810  10.879  19.729  0.00  0.00    +0.000 OA
ENDBRANCH  17  26
ENDBRANCH  16  22
ENDBRANCH   1  16
TORSDOF 3
ENDMDL
MODEL 8
REMARK VINA RESULT:      -6.6      9.122     12.041
REMARK  Name = 
REMARK  6 active torsions:
REMARK  status: ('A' for Active; 'I' for Inactive)
REMARK    1  A    between atoms: C_1  and  O_2
REMARK    2  A    between atoms: O_2  and  C_3
REMARK    3  A    between atoms: C_4  and  C_5
REMARK    4  A    between atoms: C_8  and  C_9
REMARK    5  A    between atoms: C_9  and  N_10
REMARK    6  A    between atoms: C_23  and  C_24
REMARK                            x       y       z     vdW  Elec       q    Type
REMARK                         _______ _______ _______ _____ _____    ______ ____
ROOT
ATOM      1  N   UNL     1      -1.144  12.978  20.749  0.00  0.00    +0.000 N 
ATOM      2  C   UNL     1      -0.698  13.749  19.684  0.00  0.00    +0.000 A 
ATOM      3  O   UNL     1      -0.838  14.952  19.518  0.00  0.00    +0.000 OA
ATOM      4  C   UNL     1       0.050  13.011  18.606  0.00  0.00    +0.000 A 
ATOM      5  N   UNL     1       0.435  11.779  18.705  0.00  0.00    +0.000 NA
ATOM      6  C   UNL     1       0.143  11.117  19.917  0.00  0.00    +0.000 A 
ATOM      7  C   UNL     1       0.607   9.845  20.207  0.00  0.00    +0.000 A 
ATOM      8 CL   UNL     1       1.549   8.943  19.080  0.00  0.00    +0.000 Cl
ATOM      9  N   UNL     1       0.402   9.182  21.359  0.00  0.00    +0.000 NA
ATOM     10  C   UNL     1      -0.309   9.830  22.275  0.00  0.00    +0.000 A 
ATOM     11  N   UNL     1      -0.487   9.210  23.487  0.00  0.00    +0.000 N 
ATOM     12  N   UNL     1      -0.866  11.032  22.100  0.00  0.00    +0.000 NA
ATOM     13  C   UNL     1      -0.626  11.668  20.934  0.00  0.00    +0.000 A 
ATOM     14  H   UNL     1      -0.353   8.210  23.418  0.00  0.00    +0.000 HD
ATOM     15  H   UNL     1      -1.298   9.548  23.982  0.00  0.00    +0.000 HD
ENDROOT
BRANCH   1  16
ATOM     16  C   UNL     1      -1.988  13.592  21.771  0.00  0.00    +0.000 C 
BRANCH  16  22
ATOM     17  C   UNL     1      -5.653  12.567  22.501  0.00  0.00    +0.000 A 
ATOM     18  C   UNL     1      -6.148  12.588  21.192  0.00  0.00    +0.000 A 
ATOM     19  C   UNL     1      -7.538  12.327  20.701  0.00  0.00    +0.000 C 
ATOM     20  C   UNL     1      -5.222  12.878  20.194  0.00  0.00    +0.000 A 
ATOM     21  N   UNL     1      -3.932  13.199  20.397  0.00  0.00    +0.000 NA
ATOM     22  C   UNL     1      -3.457  13.205  21.661  0.00  0.00    +0.000 A 
ATOM     23  C   UNL     1      -4.281  12.876  22.747  0.00  0.00    +0.000 A 
ATOM     24  C   UNL     1      -3.769  12.814  24.163  0.00  0.00    +0.000 C 
BRANCH  17  26
ATOM     25  C   UNL     1      -7.360  13.210  24.108  0.00  0.00    +0.000 C 
ATOM     26  O   UNL     1      -6.348  12.329  23.659  0.00  0.00    +0.000 OA
ENDBRANCH  17  26
ENDBRANCH  16  22
ENDBRANCH   1  16
TORSDOF 3
ENDMDL
MODEL 9
REMARK VINA RESULT:      -6.4      3.036      4.975
REMARK  Name = 
REMARK  6 active torsions:
REMARK  status: ('A' for Active; 'I' for Inactive)
REMARK    1  A    between atoms: C_1  and  O_2
REMARK    2  A    between atoms: O_2  and  C_3
REMARK    3  A    between atoms: C_4  and  C_5
REMARK    4  A    between atoms: C_8  and  C_9
REMARK    5  A    between atoms: C_9  and  N_10
REMARK    6  A    between atoms: C_23  and  C_24
REMARK                            x       y       z     vdW  Elec       q    Type
REMARK                         _______ _______ _______ _____ _____    ______ ____
ROOT
ATOM      1  N   UNL     1       3.140   4.911  18.788  0.00  0.00    +0.000 N 
ATOM      2  C   UNL     1       3.154   3.854  19.688  0.00  0.00    +0.000 A 
ATOM      3  O   UNL     1       2.199   3.318  20.230  0.00  0.00    +0.000 OA
ATOM      4  C   UNL     1       4.511   3.301  20.032  0.00  0.00    +0.000 A 
ATOM      5  N   UNL     1       5.604   3.632  19.422  0.00  0.00    +0.000 NA
ATOM      6  C   UNL     1       5.486   4.552  18.358  0.00  0.00    +0.000 A 
ATOM      7  C   UNL     1       6.549   4.894  17.541  0.00  0.00    +0.000 A 
ATOM      8 CL   UNL     1       8.129   4.251  17.789  0.00  0.00    +0.000 Cl
ATOM      9  N   UNL     1       6.489   5.726  16.486  0.00  0.00    +0.000 NA
ATOM     10  C   UNL     1       5.292   6.247  16.235  0.00  0.00    +0.000 A 
ATOM     11  N   UNL     1       5.178   7.053  15.129  0.00  0.00    +0.000 N 
ATOM     12  N   UNL     1       4.201   6.049  16.979  0.00  0.00    +0.000 NA
ATOM     13  C   UNL     1       4.302   5.198  18.023  0.00  0.00    +0.000 A 
ATOM     14  H   UNL     1       6.074   7.424  14.843  0.00  0.00    +0.000 HD
ATOM     15  H   UNL     1       4.397   7.689  15.190  0.00  0.00    +0.000 HD
ENDROOT
BRANCH   1  16
ATOM     16  C   UNL     1       1.878   5.589  18.501  0.00  0.00    +0.000 C 
BRANCH  16  22
ATOM     17  C   UNL     1       1.364   9.160  19.916  0.00  0.00    +0.000 A 
ATOM     18  C   UNL     1       1.027   8.823  21.232  0.00  0.00    +0.000 A 
ATOM     19  C   UNL     1       0.648   9.719  22.370  0.00  0.00    +0.000 C 
ATOM     20  C   UNL     1       1.056   7.467  21.543  0.00  0.00    +0.000 A 
ATOM     21  N   UNL     1       1.314   6.474  20.673  0.00  0.00    +0.000 NA
ATOM     22  C   UNL     1       1.615   6.793  19.396  0.00  0.00    +0.000 A 
ATOM     23  C   UNL     1       1.670   8.129  18.976  0.00  0.00    +0.000 A 
ATOM     24  C   UNL     1       2.062   8.523  17.575  0.00  0.00    +0.000 C 
BRANCH  17  26
ATOM     25  C   UNL     1       0.211  11.148  19.124  0.00  0.00    +0.000 C 
ATOM     26  O   UNL     1       1.396  10.407  19.348  0.00  0.00    +0.000 OA
ENDBRANCH  17  26
ENDBRANCH  16  22
ENDBRANCH   1  16
TORSDOF 3
ENDMDL
