MODEL 1
REMARK VINA RESULT:      -6.8      0.000      0.000
REMARK  Name = 
REMARK  7 active torsions:
REMARK  status: ('A' for Active; 'I' for Inactive)
REMARK    1  A    between atoms: C_1  and  N_2
REMARK    2  A    between atoms: N_2  and  C_3
REMARK    3  A    between atoms: C_3  and  C_4
REMARK    4  A    between atoms: C_4  and  N_6
REMARK    5  A    between atoms: C_9  and  S_10
REMARK    6  A    between atoms: S_10  and  N_11
REMARK    7  A    between atoms: N_15  and  C_16
REMARK                            x       y       z     vdW  Elec       q    Type
REMARK                         _______ _______ _______ _____ _____    ______ ____
ROOT
ATOM      1  N   UNL     1       3.068   3.347  16.988  0.00  0.00    +0.000 NA
ATOM      2  C   UNL     1       3.800   4.344  17.329  0.00  0.00    +0.000 A 
ATOM      3  S   UNL     1       5.311   4.501  16.406  0.00  0.00    +0.000 S 
ATOM      4  C   UNL     1       5.745   5.839  17.453  0.00  0.00    +0.000 A 
ATOM      5  N   UNL     1       4.864   6.213  18.338  0.00  0.00    +0.000 NA
ATOM      6  N   UNL     1       3.765   5.381  18.249  0.00  0.00    +0.000 N 
ATOM      7  C   UNL     1       2.605   5.802  19.011  0.00  0.00    +0.000 C 
ENDROOT
BRANCH   4   8
ATOM      8  S   UNL     1       7.299   6.705  17.337  0.00  0.00    +0.000 S 
ATOM      9  O   UNL     1       8.008   6.446  18.569  0.00  0.00    +0.000 OA
ATOM     10  O   UNL     1       7.842   6.393  16.036  0.00  0.00    +0.000 OA
BRANCH   8  11
ATOM     11  N   UNL     1       6.957   8.368  17.320  0.00  0.00    +0.000 NA
ATOM     12  H   UNL     1       7.215   8.820  18.198  0.00  0.00    +0.000 HD
ATOM     13  H   UNL     1       6.005   8.563  17.010  0.00  0.00    +0.000 HD
ENDBRANCH   8  11
ENDBRANCH   4   8
BRANCH   1  14
ATOM     14  C   UNL     1       1.996   2.984  17.761  0.00  0.00    +0.000 C 
ATOM     15  O   UNL     1       0.903   3.544  17.710  0.00  0.00    +0.000 OA
BRANCH  14  16
ATOM     16  C   UNL     1       2.277   1.903  18.819  0.00  0.00    +0.000 C 
BRANCH  16  18
ATOM     17  C   UNL     1       4.221   2.173  20.327  0.00  0.00    +0.000 C 
ATOM     18  N   UNL     1       2.810   2.457  20.082  0.00  0.00    +0.000 N 
ATOM     19  C   UNL     1       2.001   2.855  21.114  0.00  0.00    +0.000 C 
ATOM     20  N   UNL     1       2.367   3.149  22.314  0.00  0.00    +0.000 NA
ATOM     21  N   UNL     1       0.676   2.927  20.883  0.00  0.00    +0.000 N 
ATOM     22  H   UNL     1       3.376   3.055  22.413  0.00  0.00    +0.000 HD
ATOM     23  H   UNL     1       0.401   3.401  20.028  0.00  0.00    +0.000 HD
ATOM     24  H   UNL     1       0.230   3.372  21.679  0.00  0.00    +0.000 HD
ENDBRANCH  16  18
ENDBRANCH  14  16
ENDBRANCH   1  14
TORSDOF 5
ENDMDL
MODEL 2
REMARK VINA RESULT:      -6.6      0.951      1.612
REMARK  Name = 
REMARK  7 active torsions:
REMARK  status: ('A' for Active; 'I' for Inactive)
REMARK    1  A    between atoms: C_1  and  N_2
REMARK    2  A    between atoms: N_2  and  C_3
REMARK    3  A    between atoms: C_3  and  C_4
REMARK    4  A    between atoms: C_4  and  N_6
REMARK    5  A    between atoms: C_9  and  S_10
REMARK    6  A    between atoms: S_10  and  N_11
REMARK    7  A    between atoms: N_15  and  C_16
REMARK                            x       y       z     vdW  Elec       q    Type
REMARK                         _______ _______ _______ _____ _____    ______ ____
ROOT
ATOM      1  N   UNL     1       2.863   3.402  17.041  0.00  0.00    +0.000 NA
ATOM      2  C   UNL     1       3.627   4.406  17.275  0.00  0.00    +0.000 A 
ATOM      3  S   UNL     1       5.233   4.304  16.520  0.00  0.00    +0.000 S 
ATOM      4  C   UNL     1       5.654   5.792  17.346  0.00  0.00    +0.000 A 
ATOM      5  N   UNL     1       4.716   6.374  18.039  0.00  0.00    +0.000 NA
ATOM      6  N   UNL     1       3.574   5.600  17.978  0.00  0.00    +0.000 N 
ATOM      7  C   UNL     1       2.375   6.220  18.511  0.00  0.00    +0.000 C 
ENDROOT
BRANCH   4   8
ATOM      8  S   UNL     1       7.271   6.536  17.252  0.00  0.00    +0.000 S 
ATOM      9  O   UNL     1       7.964   6.171  18.467  0.00  0.00    +0.000 OA
ATOM     10  O   UNL     1       7.781   6.236  15.935  0.00  0.00    +0.000 OA
BRANCH   8  11
ATOM     11  N   UNL     1       7.062   8.221  17.306  0.00  0.00    +0.000 NA
ATOM     12  H   UNL     1       6.723   8.534  18.215  0.00  0.00    +0.000 HD
ATOM     13  H   UNL     1       6.524   8.568  16.513  0.00  0.00    +0.000 HD
ENDBRANCH   8  11
ENDBRANCH   4   8
BRANCH   1  14
ATOM     14  C   UNL     1       1.693   3.251  17.739  0.00  0.00    +0.000 C 
ATOM     15  O   UNL     1       0.730   4.006  17.620  0.00  0.00    +0.000 OA
BRANCH  14  16
ATOM     16  C   UNL     1       1.696   2.142  18.805  0.00  0.00    +0.000 C 
BRANCH  16  18
ATOM     17  C   UNL     1       2.622   3.340  20.763  0.00  0.00    +0.000 C 
ATOM     18  N   UNL     1       2.802   2.279  19.776  0.00  0.00    +0.000 N 
ATOM     19  C   UNL     1       4.048   1.752  19.557  0.00  0.00    +0.000 C 
ATOM     20  N   UNL     1       5.120   1.992  20.231  0.00  0.00    +0.000 NA
ATOM     21  N   UNL     1       4.201   0.912  18.514  0.00  0.00    +0.000 N 
ATOM     22  H   UNL     1       4.926   2.645  20.988  0.00  0.00    +0.000 HD
ATOM     23  H   UNL     1       3.499   0.184  18.426  0.00  0.00    +0.000 HD
ATOM     24  H   UNL     1       5.124   0.492  18.567  0.00  0.00    +0.000 HD
ENDBRANCH  16  18
ENDBRANCH  14  16
ENDBRANCH   1  14
TORSDOF 5
ENDMDL
MODEL 3
REMARK VINA RESULT:      -6.6      0.842      1.041
REMARK  Name = 
REMARK  7 active torsions:
REMARK  status: ('A' for Active; 'I' for Inactive)
REMARK    1  A    between atoms: C_1  and  N_2
REMARK    2  A    between atoms: N_2  and  C_3
REMARK    3  A    between atoms: C_3  and  C_4
REMARK    4  A    between atoms: C_4  and  N_6
REMARK    5  A    between atoms: C_9  and  S_10
REMARK    6  A    between atoms: S_10  and  N_11
REMARK    7  A    between atoms: N_15  and  C_16
REMARK                            x       y       z     vdW  Elec       q    Type
REMARK                         _______ _______ _______ _____ _____    ______ ____
ROOT
ATOM      1  N   UNL     1       3.252   3.356  16.946  0.00  0.00    +0.000 NA
ATOM      2  C   UNL     1       3.889   4.422  17.269  0.00  0.00    +0.000 A 
ATOM      3  S   UNL     1       5.467   4.611  16.475  0.00  0.00    +0.000 S 
ATOM      4  C   UNL     1       5.721   6.049  17.445  0.00  0.00    +0.000 A 
ATOM      5  N   UNL     1       4.740   6.428  18.215  0.00  0.00    +0.000 NA
ATOM      6  N   UNL     1       3.706   5.521  18.097  0.00  0.00    +0.000 N 
ATOM      7  C   UNL     1       2.456   5.920  18.716  0.00  0.00    +0.000 C 
ENDROOT
BRANCH   4   8
ATOM      8  S   UNL     1       7.224   7.006  17.397  0.00  0.00    +0.000 S 
ATOM      9  O   UNL     1       7.939   6.589  16.212  0.00  0.00    +0.000 OA
ATOM     10  O   UNL     1       6.843   8.375  17.645  0.00  0.00    +0.000 OA
BRANCH   8  11
ATOM     11  N   UNL     1       8.175   6.531  18.722  0.00  0.00    +0.000 NA
ATOM     12  H   UNL     1       7.611   6.368  19.557  0.00  0.00    +0.000 HD
ATOM     13  H   UNL     1       8.972   7.150  18.866  0.00  0.00    +0.000 HD
ENDBRANCH   8  11
ENDBRANCH   4   8
BRANCH   1  14
ATOM     14  C   UNL     1       2.137   2.981  17.649  0.00  0.00    +0.000 C 
ATOM     15  O   UNL     1       1.042   3.528  17.524  0.00  0.00    +0.000 OA
BRANCH  14  16
ATOM     16  C   UNL     1       2.361   1.906  18.726  0.00  0.00    +0.000 C 
BRANCH  16  18
ATOM     17  C   UNL     1       4.251   2.169  20.301  0.00  0.00    +0.000 C 
ATOM     18  N   UNL     1       2.853   2.464  20.003  0.00  0.00    +0.000 N 
ATOM     19  C   UNL     1       2.012   2.876  21.003  0.00  0.00    +0.000 C 
ATOM     20  N   UNL     1       2.337   3.175  22.214  0.00  0.00    +0.000 NA
ATOM     21  N   UNL     1       0.696   2.958  20.725  0.00  0.00    +0.000 N 
ATOM     22  H   UNL     1       3.341   3.073  22.349  0.00  0.00    +0.000 HD
ATOM     23  H   UNL     1       0.456   3.429  19.858  0.00  0.00    +0.000 HD
ATOM     24  H   UNL     1       0.226   3.412  21.502  0.00  0.00    +0.000 HD
ENDBRANCH  16  18
ENDBRANCH  14  16
ENDBRANCH   1  14
TORSDOF 5
ENDMDL
MODEL 4
REMARK VINA RESULT:      -6.6      2.595      5.970
REMARK  Name = 
REMARK  7 active torsions:
REMARK  status: ('A' for Active; 'I' for Inactive)
REMARK    1  A    between atoms: C_1  and  N_2
REMARK    2  A    between atoms: N_2  and  C_3
REMARK    3  A    between atoms: C_3  and  C_4
REMARK    4  A    between atoms: C_4  and  N_6
REMARK    5  A    between atoms: C_9  and  S_10
REMARK    6  A    between atoms: S_10  and  N_11
REMARK    7  A    between atoms: N_15  and  C_16
REMARK                            x       y       z     vdW  Elec       q    Type
REMARK                         _______ _______ _______ _____ _____    ______ ____
ROOT
ATOM      1  N   UNL     1       5.418   4.165  16.408  0.00  0.00    +0.000 NA
ATOM      2  C   UNL     1       4.408   4.261  17.194  0.00  0.00    +0.000 A 
ATOM      3  S   UNL     1       3.805   2.709  17.815  0.00  0.00    +0.000 S 
ATOM      4  C   UNL     1       2.497   3.588  18.585  0.00  0.00    +0.000 A 
ATOM      5  N   UNL     1       2.518   4.888  18.490  0.00  0.00    +0.000 NA
ATOM      6  N   UNL     1       3.605   5.260  17.724  0.00  0.00    +0.000 N 
ATOM      7  C   UNL     1       3.898   6.681  17.711  0.00  0.00    +0.000 C 
ENDROOT
BRANCH   4   8
ATOM      8  S   UNL     1       1.188   2.791  19.494  0.00  0.00    +0.000 S 
ATOM      9  O   UNL     1       0.236   2.318  18.515  0.00  0.00    +0.000 OA
ATOM     10  O   UNL     1       1.829   1.923  20.453  0.00  0.00    +0.000 OA
BRANCH   8  11
ATOM     11  N   UNL     1       0.392   3.989  20.398  0.00  0.00    +0.000 NA
ATOM     12  H   UNL     1       0.651   3.958  21.384  0.00  0.00    +0.000 HD
ATOM     13  H   UNL     1      -0.613   3.996  20.226  0.00  0.00    +0.000 HD
ENDBRANCH   8  11
ENDBRANCH   4   8
BRANCH   1  14
ATOM     14  C   UNL     1       5.836   5.255  15.689  0.00  0.00    +0.000 C 
ATOM     15  O   UNL     1       5.190   5.745  14.765  0.00  0.00    +0.000 OA
BRANCH  14  16
ATOM     16  C   UNL     1       7.250   5.763  16.016  0.00  0.00    +0.000 C 
BRANCH  16  18
ATOM     17  C   UNL     1       7.432   7.782  17.436  0.00  0.00    +0.000 C 
ATOM     18  N   UNL     1       7.359   6.325  17.380  0.00  0.00    +0.000 N 
ATOM     19  C   UNL     1       7.752   5.577  18.459  0.00  0.00    +0.000 C 
ATOM     20  N   UNL     1       8.076   6.015  19.627  0.00  0.00    +0.000 NA
ATOM     21  N   UNL     1       7.844   4.242  18.299  0.00  0.00    +0.000 N 
ATOM     22  H   UNL     1       7.996   7.030  19.662  0.00  0.00    +0.000 HD
ATOM     23  H   UNL     1       7.056   3.796  17.840  0.00  0.00    +0.000 HD
ATOM     24  H   UNL     1       7.997   3.816  19.208  0.00  0.00    +0.000 HD
ENDBRANCH  16  18
ENDBRANCH  14  16
ENDBRANCH   1  14
TORSDOF 5
ENDMDL
MODEL 5
REMARK VINA RESULT:      -6.5      1.469      1.998
REMARK  Name = 
REMARK  7 active torsions:
REMARK  status: ('A' for Active; 'I' for Inactive)
REMARK    1  A    between atoms: C_1  and  N_2
REMARK    2  A    between atoms: N_2  and  C_3
REMARK    3  A    between atoms: C_3  and  C_4
REMARK    4  A    between atoms: C_4  and  N_6
REMARK    5  A    between atoms: C_9  and  S_10
REMARK    6  A    between atoms: S_10  and  N_11
REMARK    7  A    between atoms: N_15  and  C_16
REMARK                            x       y       z     vdW  Elec       q    Type
REMARK                         _______ _______ _______ _____ _____    ______ ____
ROOT
ATOM      1  N   UNL     1       2.530   3.104  17.045  0.00  0.00    +0.000 NA
ATOM      2  C   UNL     1       3.452   3.993  17.124  0.00  0.00    +0.000 A 
ATOM      3  S   UNL     1       4.891   3.654  16.139  0.00  0.00    +0.000 S 
ATOM      4  C   UNL     1       5.636   5.080  16.838  0.00  0.00    +0.000 A 
ATOM      5  N   UNL     1       4.906   5.798  17.644  0.00  0.00    +0.000 NA
ATOM      6  N   UNL     1       3.673   5.193  17.785  0.00  0.00    +0.000 N 
ATOM      7  C   UNL     1       2.668   5.983  18.470  0.00  0.00    +0.000 C 
ENDROOT
BRANCH   4   8
ATOM      8  S   UNL     1       7.306   5.587  16.473  0.00  0.00    +0.000 S 
ATOM      9  O   UNL     1       7.401   6.983  16.838  0.00  0.00    +0.000 OA
ATOM     10  O   UNL     1       8.169   4.570  17.023  0.00  0.00    +0.000 OA
BRANCH   8  11
ATOM     11  N   UNL     1       7.504   5.517  14.788  0.00  0.00    +0.000 NA
ATOM     12  H   UNL     1       8.484   5.419  14.523  0.00  0.00    +0.000 HD
ATOM     13  H   UNL     1       7.012   6.272  14.311  0.00  0.00    +0.000 HD
ENDBRANCH   8  11
ENDBRANCH   4   8
BRANCH   1  14
ATOM     14  C   UNL     1       1.473   3.129  17.918  0.00  0.00    +0.000 C 
ATOM     15  O   UNL     1       0.578   3.971  17.873  0.00  0.00    +0.000 OA
BRANCH  14  16
ATOM     16  C   UNL     1       1.537   2.109  19.067  0.00  0.00    +0.000 C 
BRANCH  16  18
ATOM     17  C   UNL     1       2.678   3.374  20.862  0.00  0.00    +0.000 C 
ATOM     18  N   UNL     1       2.741   2.268  19.912  0.00  0.00    +0.000 N 
ATOM     19  C   UNL     1       3.949   1.708  19.590  0.00  0.00    +0.000 C 
ATOM     20  N   UNL     1       5.088   1.958  20.138  0.00  0.00    +0.000 NA
ATOM     21  N   UNL     1       3.982   0.820  18.577  0.00  0.00    +0.000 N 
ATOM     22  H   UNL     1       4.983   2.647  20.880  0.00  0.00    +0.000 HD
ATOM     23  H   UNL     1       3.264   0.102  18.594  0.00  0.00    +0.000 HD
ATOM     24  H   UNL     1       4.899   0.386  18.553  0.00  0.00    +0.000 HD
ENDBRANCH  16  18
ENDBRANCH  14  16
ENDBRANCH   1  14
TORSDOF 5
ENDMDL
MODEL 6
REMARK VINA RESULT:      -6.4      1.359      1.545
REMARK  Name = 
REMARK  7 active torsions:
REMARK  status: ('A' for Active; 'I' for Inactive)
REMARK    1  A    between atoms: C_1  and  N_2
REMARK    2  A    between atoms: N_2  and  C_3
REMARK    3  A    between atoms: C_3  and  C_4
REMARK    4  A    between atoms: C_4  and  N_6
REMARK    5  A    between atoms: C_9  and  S_10
REMARK    6  A    between atoms: S_10  and  N_11
REMARK    7  A    between atoms: N_15  and  C_16
REMARK                            x       y       z     vdW  Elec       q    Type
REMARK                         _______ _______ _______ _____ _____    ______ ____
ROOT
ATOM      1  N   UNL     1       2.994   3.778  17.030  0.00  0.00    +0.000 NA
ATOM      2  C   UNL     1       3.873   4.452  17.677  0.00  0.00    +0.000 A 
ATOM      3  S   UNL     1       5.545   4.207  17.128  0.00  0.00    +0.000 S 
ATOM      4  C   UNL     1       6.071   5.231  18.451  0.00  0.00    +0.000 A 
ATOM      5  N   UNL     1       5.143   5.780  19.183  0.00  0.00    +0.000 NA
ATOM      6  N   UNL     1       3.909   5.354  18.731  0.00  0.00    +0.000 N 
ATOM      7  C   UNL     1       2.768   6.049  19.295  0.00  0.00    +0.000 C 
ENDROOT
BRANCH   4   8
ATOM      8  S   UNL     1       7.786   5.563  18.806  0.00  0.00    +0.000 S 
ATOM      9  O   UNL     1       8.545   4.487  18.210  0.00  0.00    +0.000 OA
ATOM     10  O   UNL     1       8.005   6.953  18.484  0.00  0.00    +0.000 OA
BRANCH   8  11
ATOM     11  N   UNL     1       7.996   5.427  20.485  0.00  0.00    +0.000 NA
ATOM     12  H   UNL     1       7.105   5.433  20.983  0.00  0.00    +0.000 HD
ATOM     13  H   UNL     1       8.682   6.091  20.842  0.00  0.00    +0.000 HD
ENDBRANCH   8  11
ENDBRANCH   4   8
BRANCH   1  14
ATOM     14  C   UNL     1       1.706   3.704  17.493  0.00  0.00    +0.000 C 
ATOM     15  O   UNL     1       0.868   4.586  17.311  0.00  0.00    +0.000 OA
BRANCH  14  16
ATOM     16  C   UNL     1       1.391   2.493  18.389  0.00  0.00    +0.000 C 
BRANCH  16  18
ATOM     17  C   UNL     1       3.482   1.453  19.210  0.00  0.00    +0.000 C 
ATOM     18  N   UNL     1       2.355   2.334  19.500  0.00  0.00    +0.000 N 
ATOM     19  C   UNL     1       2.045   2.646  20.798  0.00  0.00    +0.000 C 
ATOM     20  N   UNL     1       2.730   2.351  21.849  0.00  0.00    +0.000 NA
ATOM     21  N   UNL     1       0.894   3.307  21.029  0.00  0.00    +0.000 N 
ATOM     22  H   UNL     1       3.573   1.840  21.593  0.00  0.00    +0.000 HD
ATOM     23  H   UNL     1       0.716   4.108  20.430  0.00  0.00    +0.000 HD
ATOM     24  H   UNL     1       0.874   3.596  22.002  0.00  0.00    +0.000 HD
ENDBRANCH  16  18
ENDBRANCH  14  16
ENDBRANCH   1  14
TORSDOF 5
ENDMDL
MODEL 7
REMARK VINA RESULT:      -6.4      2.616      5.903
REMARK  Name = 
REMARK  7 active torsions:
REMARK  status: ('A' for Active; 'I' for Inactive)
REMARK    1  A    between atoms: C_1  and  N_2
REMARK    2  A    between atoms: N_2  and  C_3
REMARK    3  A    between atoms: C_3  and  C_4
REMARK    4  A    between atoms: C_4  and  N_6
REMARK    5  A    between atoms: C_9  and  S_10
REMARK    6  A    between atoms: S_10  and  N_11
REMARK    7  A    between atoms: N_15  and  C_16
REMARK                            x       y       z     vdW  Elec       q    Type
REMARK                         _______ _______ _______ _____ _____    ______ ____
ROOT
ATOM      1  N   UNL     1       4.588   6.644  17.283  0.00  0.00    +0.000 NA
ATOM      2  C   UNL     1       4.062   5.516  17.597  0.00  0.00    +0.000 A 
ATOM      3  S   UNL     1       3.116   5.535  19.101  0.00  0.00    +0.000 S 
ATOM      4  C   UNL     1       2.897   3.804  18.919  0.00  0.00    +0.000 A 
ATOM      5  N   UNL     1       3.377   3.254  17.840  0.00  0.00    +0.000 NA
ATOM      6  N   UNL     1       4.013   4.225  17.091  0.00  0.00    +0.000 N 
ATOM      7  C   UNL     1       4.405   3.821  15.754  0.00  0.00    +0.000 C 
ENDROOT
BRANCH   4   8
ATOM      8  S   UNL     1       2.037   2.799  20.113  0.00  0.00    +0.000 S 
ATOM      9  O   UNL     1       1.629   1.596  19.422  0.00  0.00    +0.000 OA
ATOM     10  O   UNL     1       2.859   2.784  21.300  0.00  0.00    +0.000 OA
BRANCH   8  11
ATOM     11  N   UNL     1       0.610   3.616  20.536  0.00  0.00    +0.000 NA
ATOM     12  H   UNL     1       0.346   3.446  21.507  0.00  0.00    +0.000 HD
ATOM     13  H   UNL     1      -0.139   3.459  19.862  0.00  0.00    +0.000 HD
ENDBRANCH   8  11
ENDBRANCH   4   8
BRANCH   1  14
ATOM     14  C   UNL     1       5.517   6.713  16.278  0.00  0.00    +0.000 C 
ATOM     15  O   UNL     1       5.253   7.084  15.135  0.00  0.00    +0.000 OA
BRANCH  14  16
ATOM     16  C   UNL     1       6.911   6.162  16.623  0.00  0.00    +0.000 C 
BRANCH  16  18
ATOM     17  C   UNL     1       7.988   7.780  18.156  0.00  0.00    +0.000 C 
ATOM     18  N   UNL     1       7.332   6.485  18.004  0.00  0.00    +0.000 N 
ATOM     19  C   UNL     1       7.464   5.531  18.979  0.00  0.00    +0.000 C 
ATOM     20  N   UNL     1       8.017   5.676  20.133  0.00  0.00    +0.000 NA
ATOM     21  N   UNL     1       6.999   4.293  18.716  0.00  0.00    +0.000 N 
ATOM     22  H   UNL     1       8.356   6.630  20.249  0.00  0.00    +0.000 HD
ATOM     23  H   UNL     1       6.069   4.247  18.313  0.00  0.00    +0.000 HD
ATOM     24  H   UNL     1       7.030   3.746  19.570  0.00  0.00    +0.000 HD
ENDBRANCH  16  18
ENDBRANCH  14  16
ENDBRANCH   1  14
TORSDOF 5
ENDMDL
MODEL 8
REMARK VINA RESULT:      -6.4      0.841      1.032
REMARK  Name = 
REMARK  7 active torsions:
REMARK  status: ('A' for Active; 'I' for Inactive)
REMARK    1  A    between atoms: C_1  and  N_2
REMARK    2  A    between atoms: N_2  and  C_3
REMARK    3  A    between atoms: C_3  and  C_4
REMARK    4  A    between atoms: C_4  and  N_6
REMARK    5  A    between atoms: C_9  and  S_10
REMARK    6  A    between atoms: S_10  and  N_11
REMARK    7  A    between atoms: N_15  and  C_16
REMARK                            x       y       z     vdW  Elec       q    Type
REMARK                         _______ _______ _______ _____ _____    ______ ____
ROOT
ATOM      1  N   UNL     1       2.895   3.269  17.025  0.00  0.00    +0.000 NA
ATOM      2  C   UNL     1       3.628   4.268  17.358  0.00  0.00    +0.000 A 
ATOM      3  S   UNL     1       5.111   4.452  16.397  0.00  0.00    +0.000 S 
ATOM      4  C   UNL     1       5.562   5.780  17.450  0.00  0.00    +0.000 A 
ATOM      5  N   UNL     1       4.703   6.133  18.363  0.00  0.00    +0.000 NA
ATOM      6  N   UNL     1       3.609   5.292  18.294  0.00  0.00    +0.000 N 
ATOM      7  C   UNL     1       2.467   5.693  19.093  0.00  0.00    +0.000 C 
ENDROOT
BRANCH   4   8
ATOM      8  S   UNL     1       7.104   6.661  17.301  0.00  0.00    +0.000 S 
ATOM      9  O   UNL     1       6.765   8.051  17.091  0.00  0.00    +0.000 OA
ATOM     10  O   UNL     1       7.937   6.211  18.391  0.00  0.00    +0.000 OA
BRANCH   8  11
ATOM     11  N   UNL     1       7.861   6.131  15.876  0.00  0.00    +0.000 NA
ATOM     12  H   UNL     1       8.252   6.906  15.341  0.00  0.00    +0.000 HD
ATOM     13  H   UNL     1       7.267   5.503  15.336  0.00  0.00    +0.000 HD
ENDBRANCH   8  11
ENDBRANCH   4   8
BRANCH   1  14
ATOM     14  C   UNL     1       1.849   2.885  17.823  0.00  0.00    +0.000 C 
ATOM     15  O   UNL     1       0.737   3.409  17.780  0.00  0.00    +0.000 OA
BRANCH  14  16
ATOM     16  C   UNL     1       2.183   1.834  18.895  0.00  0.00    +0.000 C 
BRANCH  16  18
ATOM     17  C   UNL     1       4.159   2.135  20.355  0.00  0.00    +0.000 C 
ATOM     18  N   UNL     1       2.747   2.427  20.127  0.00  0.00    +0.000 N 
ATOM     19  C   UNL     1       1.963   2.871  21.159  0.00  0.00    +0.000 C 
ATOM     20  N   UNL     1       2.356   3.203  22.341  0.00  0.00    +0.000 NA
ATOM     21  N   UNL     1       0.634   2.950  20.952  0.00  0.00    +0.000 N 
ATOM     22  H   UNL     1       3.365   3.101  22.423  0.00  0.00    +0.000 HD
ATOM     23  H   UNL     1       0.347   3.396  20.086  0.00  0.00    +0.000 HD
ATOM     24  H   UNL     1       0.209   3.428  21.740  0.00  0.00    +0.000 HD
ENDBRANCH  16  18
ENDBRANCH  14  16
ENDBRANCH   1  14
TORSDOF 5
ENDMDL
MODEL 9
REMARK VINA RESULT:      -6.3      1.425      1.936
REMARK  Name = 
REMARK  7 active torsions:
REMARK  status: ('A' for Active; 'I' for Inactive)
REMARK    1  A    between atoms: C_1  and  N_2
REMARK    2  A    between atoms: N_2  and  C_3
REMARK    3  A    between atoms: C_3  and  C_4
REMARK    4  A    between atoms: C_4  and  N_6
REMARK    5  A    between atoms: C_9  and  S_10
REMARK    6  A    between atoms: S_10  and  N_11
REMARK    7  A    between atoms: N_15  and  C_16
REMARK                            x       y       z     vdW  Elec       q    Type
REMARK                         _______ _______ _______ _____ _____    ______ ____
ROOT
ATOM      1  N   UNL     1       2.222   3.628  17.456  0.00  0.00    +0.000 NA
ATOM      2  C   UNL     1       3.331   4.270  17.521  0.00  0.00    +0.000 A 
ATOM      3  S   UNL     1       4.346   4.139  16.068  0.00  0.00    +0.000 S 
ATOM      4  C   UNL     1       5.580   5.052  16.917  0.00  0.00    +0.000 A 
ATOM      5  N   UNL     1       5.280   5.495  18.106  0.00  0.00    +0.000 NA
ATOM      6  N   UNL     1       4.008   5.069  18.431  0.00  0.00    +0.000 N 
ATOM      7  C   UNL     1       3.440   5.664  19.626  0.00  0.00    +0.000 C 
ENDROOT
BRANCH   4   8
ATOM      8  S   UNL     1       7.181   5.412  16.220  0.00  0.00    +0.000 S 
ATOM      9  O   UNL     1       8.106   4.468  16.804  0.00  0.00    +0.000 OA
ATOM     10  O   UNL     1       6.984   5.543  14.796  0.00  0.00    +0.000 OA
BRANCH   8  11
ATOM     11  N   UNL     1       7.646   6.948  16.776  0.00  0.00    +0.000 NA
ATOM     12  H   UNL     1       6.939   7.365  17.382  0.00  0.00    +0.000 HD
ATOM     13  H   UNL     1       7.962   7.552  16.019  0.00  0.00    +0.000 HD
ENDBRANCH   8  11
ENDBRANCH   4   8
BRANCH   1  14
ATOM     14  C   UNL     1       1.456   3.463  18.581  0.00  0.00    +0.000 C 
ATOM     15  O   UNL     1       0.769   4.358  19.071  0.00  0.00    +0.000 OA
BRANCH  14  16
ATOM     16  C   UNL     1       1.608   2.108  19.294  0.00  0.00    +0.000 C 
BRANCH  16  18
ATOM     17  C   UNL     1       2.644   2.777  21.440  0.00  0.00    +0.000 C 
ATOM     18  N   UNL     1       2.790   2.054  20.180  0.00  0.00    +0.000 N 
ATOM     19  C   UNL     1       4.037   1.709  19.729  0.00  0.00    +0.000 C 
ATOM     20  N   UNL     1       5.151   1.834  20.364  0.00  0.00    +0.000 NA
ATOM     21  N   UNL     1       4.139   1.210  18.481  0.00  0.00    +0.000 N 
ATOM     22  H   UNL     1       4.993   2.231  21.288  0.00  0.00    +0.000 HD
ATOM     23  H   UNL     1       3.473   0.483  18.239  0.00  0.00    +0.000 HD
ATOM     24  H   UNL     1       5.085   0.867  18.344  0.00  0.00    +0.000 HD
ENDBRANCH  16  18
ENDBRANCH  14  16
ENDBRANCH   1  14
TORSDOF 5
ENDMDL
