MODEL 1
REMARK VINA RESULT:      -8.0      0.000      0.000
REMARK  Name = 
REMARK  4 active torsions:
REMARK  status: ('A' for Active; 'I' for Inactive)
REMARK    1  A    between atoms: C_1  and  C_2
REMARK    2  A    between atoms: C_6  and  C_7
REMARK    3  A    between atoms: N_22  and  C_23
REMARK    4  A    between atoms: C_23  and  C_24
REMARK                            x       y       z     vdW  Elec       q    Type
REMARK                         _______ _______ _______ _____ _____    ______ ____
ROOT
ATOM      1  C   UNL     1       1.453   7.041  20.370  0.00  0.00    +0.000 C 
ATOM      2  O   UNL     1       1.119   6.064  21.046  0.00  0.00    +0.000 OA
ATOM      3  N   UNL     1       0.951   8.328  20.612  0.00  0.00    +0.000 N 
ATOM      4  C   UNL     1       0.183   8.406  21.841  0.00  0.00    +0.000 C 
ATOM      5  C   UNL     1       0.283   9.808  22.389  0.00  0.00    +0.000 C 
ATOM      6  C   UNL     1      -0.534  10.651  21.423  0.00  0.00    +0.000 C 
ATOM      7  C   UNL     1      -1.151  11.831  22.123  0.00  0.00    +0.000 C 
ATOM      8  O   UNL     1      -2.377  11.943  22.143  0.00  0.00    +0.000 OA
ATOM      9  N   UNL     1      -0.328  12.738  22.735  0.00  0.00    +0.000 N 
ATOM     10  C   UNL     1      -0.887  13.989  23.221  0.00  0.00    +0.000 C 
ATOM     11  C   UNL     1      -0.557  15.137  22.266  0.00  0.00    +0.000 C 
ATOM     12  C   UNL     1      -1.019  14.860  20.828  0.00  0.00    +0.000 C 
ATOM     13  C   UNL     1       0.163  14.625  19.885  0.00  0.00    +0.000 C 
ATOM     14  C   UNL     1      -0.261  14.047  18.533  0.00  0.00    +0.000 C 
ATOM     15  C   UNL     1       0.196  12.595  18.273  0.00  0.00    +0.000 C 
ATOM     16  N   UNL     1      -0.465  11.474  18.951  0.00  0.00    +0.000 NA
ATOM     17  C   UNL     1       0.252  10.846  20.102  0.00  0.00    +0.000 C 
ATOM     18  C   UNL     1       0.811   9.429  19.612  0.00  0.00    +0.000 C 
ATOM     19  H   UNL     1       0.678  12.627  22.720  0.00  0.00    +0.000 HD
ENDROOT
BRANCH   1  25
ATOM     20  C   UNL     1       5.645   4.693  18.911  0.00  0.00    +0.000 C 
ATOM     21  C   UNL     1       4.595   5.744  18.696  0.00  0.00    +0.000 A 
ATOM     22  C   UNL     1       4.636   6.602  17.583  0.00  0.00    +0.000 A 
ATOM     23  C   UNL     1       3.654   7.575  17.398  0.00  0.00    +0.000 A 
ATOM     24  C   UNL     1       2.622   7.686  18.320  0.00  0.00    +0.000 A 
ATOM     25  C   UNL     1       2.558   6.816  19.424  0.00  0.00    +0.000 A 
ATOM     26  C   UNL     1       3.557   5.869  19.633  0.00  0.00    +0.000 A 
ENDBRANCH   1  25
BRANCH  16  27
ATOM     27  C   UNL     1      -1.932  11.490  19.002  0.00  0.00    +0.000 C 
BRANCH  27  28
ATOM     28  C   UNL     1      -2.694  11.046  17.771  0.00  0.00    +0.000 A 
ATOM     29  C   UNL     1      -3.934  11.574  17.411  0.00  0.00    +0.000 A 
ATOM     30  C   UNL     1      -4.491  11.204  16.196  0.00  0.00    +0.000 A 
ATOM     31  N   UNL     1      -3.898  10.373  15.312  0.00  0.00    +0.000 NA
ATOM     32  C   UNL     1      -2.686   9.893  15.659  0.00  0.00    +0.000 A 
ATOM     33  C   UNL     1      -2.056  10.193  16.857  0.00  0.00    +0.000 A 
ENDBRANCH  27  28
ENDBRANCH  16  27
TORSDOF 3
ENDMDL
MODEL 2
REMARK VINA RESULT:      -7.5      3.754      6.558
REMARK  Name = 
REMARK  4 active torsions:
REMARK  status: ('A' for Active; 'I' for Inactive)
REMARK    1  A    between atoms: C_1  and  C_2
REMARK    2  A    between atoms: C_6  and  C_7
REMARK    3  A    between atoms: N_22  and  C_23
REMARK    4  A    between atoms: C_23  and  C_24
REMARK                            x       y       z     vdW  Elec       q    Type
REMARK                         _______ _______ _______ _____ _____    ______ ____
ROOT
ATOM      1  C   UNL     1      -1.211  10.747  19.073  0.00  0.00    +0.000 C 
ATOM      2  O   UNL     1      -0.961   9.615  19.495  0.00  0.00    +0.000 OA
ATOM      3  N   UNL     1      -0.476  11.875  19.468  0.00  0.00    +0.000 N 
ATOM      4  C   UNL     1       0.704  11.530  20.241  0.00  0.00    +0.000 C 
ATOM      5  C   UNL     1       1.751  12.595  20.029  0.00  0.00    +0.000 C 
ATOM      6  C   UNL     1       1.208  13.811  20.763  0.00  0.00    +0.000 C 
ATOM      7  C   UNL     1       2.325  14.671  21.286  0.00  0.00    +0.000 C 
ATOM      8  O   UNL     1       2.416  14.866  22.499  0.00  0.00    +0.000 OA
ATOM      9  N   UNL     1       3.223  15.198  20.397  0.00  0.00    +0.000 N 
ATOM     10  C   UNL     1       4.169  16.203  20.854  0.00  0.00    +0.000 C 
ATOM     11  C   UNL     1       3.729  17.600  20.419  0.00  0.00    +0.000 C 
ATOM     12  C   UNL     1       2.307  17.944  20.888  0.00  0.00    +0.000 C 
ATOM     13  C   UNL     1       1.320  17.999  19.719  0.00  0.00    +0.000 C 
ATOM     14  C   UNL     1      -0.140  18.030  20.175  0.00  0.00    +0.000 C 
ATOM     15  C   UNL     1      -0.954  16.762  19.838  0.00  0.00    +0.000 C 
ATOM     16  N   UNL     1      -0.751  15.523  20.598  0.00  0.00    +0.000 NA
ATOM     17  C   UNL     1       0.049  14.440  19.949  0.00  0.00    +0.000 C 
ATOM     18  C   UNL     1      -0.966  13.285  19.505  0.00  0.00    +0.000 C 
ATOM     19  H   UNL     1       3.143  15.020  19.404  0.00  0.00    +0.000 HD
ENDROOT
BRANCH   1  25
ATOM     20  C   UNL     1      -5.626  12.179  17.159  0.00  0.00    +0.000 C 
ATOM     21  C   UNL     1      -4.320  11.451  17.027  0.00  0.00    +0.000 A 
ATOM     22  C   UNL     1      -3.984  10.762  15.848  0.00  0.00    +0.000 A 
ATOM     23  C   UNL     1      -2.767  10.089  15.741  0.00  0.00    +0.000 A 
ATOM     24  C   UNL     1      -1.878  10.111  16.807  0.00  0.00    +0.000 A 
ATOM     25  C   UNL     1      -2.195  10.819  17.981  0.00  0.00    +0.000 A 
ATOM     26  C   UNL     1      -3.424  11.460  18.107  0.00  0.00    +0.000 A 
ENDBRANCH   1  25
BRANCH  16  27
ATOM     27  C   UNL     1      -0.664  15.637  22.059  0.00  0.00    +0.000 C 
BRANCH  27  28
ATOM     28  C   UNL     1      -1.772  15.024  22.890  0.00  0.00    +0.000 A 
ATOM     29  C   UNL     1      -2.901  15.736  23.298  0.00  0.00    +0.000 A 
ATOM     30  C   UNL     1      -3.925  15.055  23.939  0.00  0.00    +0.000 A 
ATOM     31  N   UNL     1      -3.917  13.725  24.179  0.00  0.00    +0.000 NA
ATOM     32  C   UNL     1      -2.834  13.045  23.752  0.00  0.00    +0.000 A 
ATOM     33  C   UNL     1      -1.755  13.639  23.117  0.00  0.00    +0.000 A 
ENDBRANCH  27  28
ENDBRANCH  16  27
TORSDOF 3
ENDMDL
MODEL 3
REMARK VINA RESULT:      -7.4      3.694      6.542
REMARK  Name = 
REMARK  4 active torsions:
REMARK  status: ('A' for Active; 'I' for Inactive)
REMARK    1  A    between atoms: C_1  and  C_2
REMARK    2  A    between atoms: C_6  and  C_7
REMARK    3  A    between atoms: N_22  and  C_23
REMARK    4  A    between atoms: C_23  and  C_24
REMARK                            x       y       z     vdW  Elec       q    Type
REMARK                         _______ _______ _______ _____ _____    ______ ____
ROOT
ATOM      1  C   UNL     1      -1.193  10.698  19.140  0.00  0.00    +0.000 C 
ATOM      2  O   UNL     1      -0.921   9.557  19.519  0.00  0.00    +0.000 OA
ATOM      3  N   UNL     1      -0.417  11.812  19.493  0.00  0.00    +0.000 N 
ATOM      4  C   UNL     1       0.820  11.443  20.158  0.00  0.00    +0.000 C 
ATOM      5  C   UNL     1       1.856  12.503  19.878  0.00  0.00    +0.000 C 
ATOM      6  C   UNL     1       1.388  13.709  20.677  0.00  0.00    +0.000 C 
ATOM      7  C   UNL     1       2.554  14.550  21.120  0.00  0.00    +0.000 C 
ATOM      8  O   UNL     1       2.747  14.721  22.325  0.00  0.00    +0.000 OA
ATOM      9  N   UNL     1       3.379  15.086  20.168  0.00  0.00    +0.000 N 
ATOM     10  C   UNL     1       4.371  16.074  20.563  0.00  0.00    +0.000 C 
ATOM     11  C   UNL     1       3.909  17.483  20.192  0.00  0.00    +0.000 C 
ATOM     12  C   UNL     1       2.535  17.830  20.784  0.00  0.00    +0.000 C 
ATOM     13  C   UNL     1       1.454  17.916  19.703  0.00  0.00    +0.000 C 
ATOM     14  C   UNL     1       0.038  17.950  20.281  0.00  0.00    +0.000 C 
ATOM     15  C   UNL     1      -0.814  16.695  19.991  0.00  0.00    +0.000 C 
ATOM     16  N   UNL     1      -0.560  15.440  20.708  0.00  0.00    +0.000 NA
ATOM     17  C   UNL     1       0.172  14.364  19.975  0.00  0.00    +0.000 C 
ATOM     18  C   UNL     1      -0.888  13.226  19.597  0.00  0.00    +0.000 C 
ATOM     19  H   UNL     1       3.214  14.928  19.183  0.00  0.00    +0.000 HD
ENDROOT
BRANCH   1  25
ATOM     20  C   UNL     1      -3.031  10.008  14.519  0.00  0.00    +0.000 C 
ATOM     21  C   UNL     1      -3.182  10.525  15.920  0.00  0.00    +0.000 A 
ATOM     22  C   UNL     1      -4.358  11.173  16.338  0.00  0.00    +0.000 A 
ATOM     23  C   UNL     1      -4.482  11.648  17.643  0.00  0.00    +0.000 A 
ATOM     24  C   UNL     1      -3.435  11.469  18.537  0.00  0.00    +0.000 A 
ATOM     25  C   UNL     1      -2.265  10.800  18.136  0.00  0.00    +0.000 A 
ATOM     26  C   UNL     1      -2.121  10.358  16.824  0.00  0.00    +0.000 A 
ENDBRANCH   1  25
BRANCH  16  27
ATOM     27  C   UNL     1      -0.350  15.526  22.159  0.00  0.00    +0.000 C 
BRANCH  27  28
ATOM     28  C   UNL     1      -1.444  15.009  23.070  0.00  0.00    +0.000 A 
ATOM     29  C   UNL     1      -2.318  15.848  23.763  0.00  0.00    +0.000 A 
ATOM     30  C   UNL     1      -3.372  15.282  24.465  0.00  0.00    +0.000 A 
ATOM     31  N   UNL     1      -3.630  13.957  24.506  0.00  0.00    +0.000 NA
ATOM     32  C   UNL     1      -2.796  13.160  23.807  0.00  0.00    +0.000 A 
ATOM     33  C   UNL     1      -1.707  13.631  23.089  0.00  0.00    +0.000 A 
ENDBRANCH  27  28
ENDBRANCH  16  27
TORSDOF 3
ENDMDL
MODEL 4
REMARK VINA RESULT:      -7.3      3.544      6.603
REMARK  Name = 
REMARK  4 active torsions:
REMARK  status: ('A' for Active; 'I' for Inactive)
REMARK    1  A    between atoms: C_1  and  C_2
REMARK    2  A    between atoms: C_6  and  C_7
REMARK    3  A    between atoms: N_22  and  C_23
REMARK    4  A    between atoms: C_23  and  C_24
REMARK                            x       y       z     vdW  Elec       q    Type
REMARK                         _______ _______ _______ _____ _____    ______ ____
ROOT
ATOM      1  C   UNL     1      -1.334  10.631  18.743  0.00  0.00    +0.000 C 
ATOM      2  O   UNL     1      -1.231   9.544  19.316  0.00  0.00    +0.000 OA
ATOM      3  N   UNL     1      -0.377  11.647  18.881  0.00  0.00    +0.000 N 
ATOM      4  C   UNL     1       0.812  11.202  19.585  0.00  0.00    +0.000 C 
ATOM      5  C   UNL     1       1.992  12.013  19.107  0.00  0.00    +0.000 C 
ATOM      6  C   UNL     1       1.755  13.400  19.683  0.00  0.00    +0.000 C 
ATOM      7  C   UNL     1       3.056  14.103  19.954  0.00  0.00    +0.000 C 
ATOM      8  O   UNL     1       3.324  14.448  21.106  0.00  0.00    +0.000 OA
ATOM      9  N   UNL     1       3.916  14.322  18.911  0.00  0.00    +0.000 N 
ATOM     10  C   UNL     1       5.067  15.188  19.111  0.00  0.00    +0.000 C 
ATOM     11  C   UNL     1       4.820  16.567  18.499  0.00  0.00    +0.000 C 
ATOM     12  C   UNL     1       3.545  17.231  19.037  0.00  0.00    +0.000 C 
ATOM     13  C   UNL     1       2.448  17.303  17.972  0.00  0.00    +0.000 C 
ATOM     14  C   UNL     1       1.080  17.669  18.552  0.00  0.00    +0.000 C 
ATOM     15  C   UNL     1       0.028  16.540  18.502  0.00  0.00    +0.000 C 
ATOM     16  N   UNL     1       0.109  15.405  19.429  0.00  0.00    +0.000 NA
ATOM     17  C   UNL     1       0.630  14.112  18.891  0.00  0.00    +0.000 C 
ATOM     18  C   UNL     1      -0.613  13.115  18.735  0.00  0.00    +0.000 C 
ATOM     19  H   UNL     1       3.688  14.023  17.972  0.00  0.00    +0.000 HD
ENDROOT
BRANCH   1  25
ATOM     20  C   UNL     1      -3.182  10.045  14.111  0.00  0.00    +0.000 C 
ATOM     21  C   UNL     1      -3.340  10.503  15.531  0.00  0.00    +0.000 A 
ATOM     22  C   UNL     1      -4.536  11.090  15.982  0.00  0.00    +0.000 A 
ATOM     23  C   UNL     1      -4.668  11.512  17.304  0.00  0.00    +0.000 A 
ATOM     24  C   UNL     1      -3.608  11.338  18.184  0.00  0.00    +0.000 A 
ATOM     25  C   UNL     1      -2.417  10.729  17.750  0.00  0.00    +0.000 A 
ATOM     26  C   UNL     1      -2.267  10.342  16.421  0.00  0.00    +0.000 A 
ENDBRANCH   1  25
BRANCH  16  27
ATOM     27  C   UNL     1       0.390  15.707  20.838  0.00  0.00    +0.000 C 
BRANCH  27  28
ATOM     28  C   UNL     1      -0.636  15.297  21.874  0.00  0.00    +0.000 A 
ATOM     29  C   UNL     1      -1.863  15.945  22.029  0.00  0.00    +0.000 A 
ATOM     30  C   UNL     1      -2.792  15.415  22.910  0.00  0.00    +0.000 A 
ATOM     31  N   UNL     1      -2.601  14.283  23.623  0.00  0.00    +0.000 NA
ATOM     32  C   UNL     1      -1.424  13.651  23.440  0.00  0.00    +0.000 A 
ATOM     33  C   UNL     1      -0.427  14.112  22.594  0.00  0.00    +0.000 A 
ENDBRANCH  27  28
ENDBRANCH  16  27
TORSDOF 3
ENDMDL
MODEL 5
REMARK VINA RESULT:      -7.3      3.579      8.543
REMARK  Name = 
REMARK  4 active torsions:
REMARK  status: ('A' for Active; 'I' for Inactive)
REMARK    1  A    between atoms: C_1  and  C_2
REMARK    2  A    between atoms: C_6  and  C_7
REMARK    3  A    between atoms: N_22  and  C_23
REMARK    4  A    between atoms: C_23  and  C_24
REMARK                            x       y       z     vdW  Elec       q    Type
REMARK                         _______ _______ _______ _____ _____    ______ ____
ROOT
ATOM      1  C   UNL     1      -5.701  14.831  20.559  0.00  0.00    +0.000 C 
ATOM      2  O   UNL     1      -6.241  15.536  21.415  0.00  0.00    +0.000 OA
ATOM      3  N   UNL     1      -4.580  14.036  20.838  0.00  0.00    +0.000 N 
ATOM      4  C   UNL     1      -4.273  13.981  22.256  0.00  0.00    +0.000 C 
ATOM      5  C   UNL     1      -3.599  12.665  22.557  0.00  0.00    +0.000 C 
ATOM      6  C   UNL     1      -2.225  12.790  21.916  0.00  0.00    +0.000 C 
ATOM      7  C   UNL     1      -1.203  11.984  22.669  0.00  0.00    +0.000 C 
ATOM      8  O   UNL     1      -0.236  12.560  23.171  0.00  0.00    +0.000 OA
ATOM      9  N   UNL     1      -1.387  10.633  22.791  0.00  0.00    +0.000 N 
ATOM     10  C   UNL     1      -0.308   9.814  23.319  0.00  0.00    +0.000 C 
ATOM     11  C   UNL     1       0.413   9.075  22.191  0.00  0.00    +0.000 C 
ATOM     12  C   UNL     1       0.936  10.024  21.104  0.00  0.00    +0.000 C 
ATOM     13  C   UNL     1       0.154   9.877  19.795  0.00  0.00    +0.000 C 
ATOM     14  C   UNL     1       0.438  11.007  18.804  0.00  0.00    +0.000 C 
ATOM     15  C   UNL     1      -0.749  11.960  18.545  0.00  0.00    +0.000 C 
ATOM     16  N   UNL     1      -1.140  12.953  19.552  0.00  0.00    +0.000 NA
ATOM     17  C   UNL     1      -2.350  12.656  20.378  0.00  0.00    +0.000 C 
ATOM     18  C   UNL     1      -3.533  13.604  19.864  0.00  0.00    +0.000 C 
ATOM     19  H   UNL     1      -2.192  10.175  22.384  0.00  0.00    +0.000 HD
ENDROOT
BRANCH   1  25
ATOM     20  C   UNL     1      -7.219  16.676  16.143  0.00  0.00    +0.000 C 
ATOM     21  C   UNL     1      -7.206  15.574  17.162  0.00  0.00    +0.000 A 
ATOM     22  C   UNL     1      -7.916  14.379  16.956  0.00  0.00    +0.000 A 
ATOM     23  C   UNL     1      -7.895  13.365  17.913  0.00  0.00    +0.000 A 
ATOM     24  C   UNL     1      -7.153  13.538  19.074  0.00  0.00    +0.000 A 
ATOM     25  C   UNL     1      -6.419  14.720  19.278  0.00  0.00    +0.000 A 
ATOM     26  C   UNL     1      -6.468  15.751  18.343  0.00  0.00    +0.000 A 
ENDBRANCH   1  25
BRANCH  16  27
ATOM     27  C   UNL     1      -0.065  13.723  20.189  0.00  0.00    +0.000 C 
BRANCH  27  28
ATOM     28  C   UNL     1       0.506  14.908  19.438  0.00  0.00    +0.000 A 
ATOM     29  C   UNL     1      -0.199  16.097  19.244  0.00  0.00    +0.000 A 
ATOM     30  C   UNL     1       0.454  17.174  18.663  0.00  0.00    +0.000 A 
ATOM     31  N   UNL     1       1.752  17.160  18.288  0.00  0.00    +0.000 NA
ATOM     32  C   UNL     1       2.429  16.015  18.510  0.00  0.00    +0.000 A 
ATOM     33  C   UNL     1       1.859  14.882  19.069  0.00  0.00    +0.000 A 
ENDBRANCH  27  28
ENDBRANCH  16  27
TORSDOF 3
ENDMDL
MODEL 6
REMARK VINA RESULT:      -7.3      4.266      6.060
REMARK  Name = 
REMARK  4 active torsions:
REMARK  status: ('A' for Active; 'I' for Inactive)
REMARK    1  A    between atoms: C_1  and  C_2
REMARK    2  A    between atoms: C_6  and  C_7
REMARK    3  A    between atoms: N_22  and  C_23
REMARK    4  A    between atoms: C_23  and  C_24
REMARK                            x       y       z     vdW  Elec       q    Type
REMARK                         _______ _______ _______ _____ _____    ______ ____
ROOT
ATOM      1  C   UNL     1      -1.236  11.456  22.081  0.00  0.00    +0.000 C 
ATOM      2  O   UNL     1      -0.826  10.836  23.065  0.00  0.00    +0.000 OA
ATOM      3  N   UNL     1      -2.353  12.303  22.140  0.00  0.00    +0.000 N 
ATOM      4  C   UNL     1      -2.820  12.518  23.497  0.00  0.00    +0.000 C 
ATOM      5  C   UNL     1      -3.478  13.874  23.576  0.00  0.00    +0.000 C 
ATOM      6  C   UNL     1      -4.771  13.713  22.792  0.00  0.00    +0.000 C 
ATOM      7  C   UNL     1      -5.845  14.619  23.329  0.00  0.00    +0.000 C 
ATOM      8  O   UNL     1      -6.883  14.123  23.769  0.00  0.00    +0.000 OA
ATOM      9  N   UNL     1      -5.627  15.970  23.330  0.00  0.00    +0.000 N 
ATOM     10  C   UNL     1      -6.730  16.867  23.636  0.00  0.00    +0.000 C 
ATOM     11  C   UNL     1      -7.287  17.496  22.359  0.00  0.00    +0.000 C 
ATOM     12  C   UNL     1      -7.715  16.447  21.322  0.00  0.00    +0.000 C 
ATOM     13  C   UNL     1      -6.781  16.433  20.109  0.00  0.00    +0.000 C 
ATOM     14  C   UNL     1      -6.988  15.210  19.214  0.00  0.00    +0.000 C 
ATOM     15  C   UNL     1      -5.814  14.207  19.200  0.00  0.00    +0.000 C 
ATOM     16  N   UNL     1      -5.579  13.320  20.345  0.00  0.00    +0.000 NA
ATOM     17  C   UNL     1      -4.463  13.676  21.274  0.00  0.00    +0.000 C 
ATOM     18  C   UNL     1      -3.264  12.651  21.008  0.00  0.00    +0.000 C 
ATOM     19  H   UNL     1      -4.764  16.362  22.976  0.00  0.00    +0.000 HD
ENDROOT
BRANCH   1  25
ATOM     20  C   UNL     1       1.995  13.544  18.855  0.00  0.00    +0.000 C 
ATOM     21  C   UNL     1       1.154  12.380  19.291  0.00  0.00    +0.000 A 
ATOM     22  C   UNL     1       1.123  11.184  18.553  0.00  0.00    +0.000 A 
ATOM     23  C   UNL     1       0.335  10.111  18.970  0.00  0.00    +0.000 A 
ATOM     24  C   UNL     1      -0.416  10.227  20.132  0.00  0.00    +0.000 A 
ATOM     25  C   UNL     1      -0.371  11.411  20.891  0.00  0.00    +0.000 A 
ATOM     26  C   UNL     1       0.383  12.498  20.458  0.00  0.00    +0.000 A 
ENDBRANCH   1  25
BRANCH  16  27
ATOM     27  C   UNL     1      -6.748  12.649  20.927  0.00  0.00    +0.000 C 
BRANCH  27  28
ATOM     28  C   UNL     1      -6.935  11.172  20.646  0.00  0.00    +0.000 A 
ATOM     29  C   UNL     1      -7.688  10.331  21.467  0.00  0.00    +0.000 A 
ATOM     30  C   UNL     1      -7.915   9.026  21.058  0.00  0.00    +0.000 A 
ATOM     31  N   UNL     1      -7.472   8.510  19.891  0.00  0.00    +0.000 NA
ATOM     32  C   UNL     1      -6.772   9.343  19.093  0.00  0.00    +0.000 A 
ATOM     33  C   UNL     1      -6.481  10.657  19.423  0.00  0.00    +0.000 A 
ENDBRANCH  27  28
ENDBRANCH  16  27
TORSDOF 3
ENDMDL
MODEL 7
REMARK VINA RESULT:      -7.3      4.250      7.747
REMARK  Name = 
REMARK  4 active torsions:
REMARK  status: ('A' for Active; 'I' for Inactive)
REMARK    1  A    between atoms: C_1  and  C_2
REMARK    2  A    between atoms: C_6  and  C_7
REMARK    3  A    between atoms: N_22  and  C_23
REMARK    4  A    between atoms: C_23  and  C_24
REMARK                            x       y       z     vdW  Elec       q    Type
REMARK                         _______ _______ _______ _____ _____    ______ ____
ROOT
ATOM      1  C   UNL     1       1.713  16.864  21.063  0.00  0.00    +0.000 C 
ATOM      2  O   UNL     1       2.545  17.354  21.830  0.00  0.00    +0.000 OA
ATOM      3  N   UNL     1       0.465  16.402  21.505  0.00  0.00    +0.000 N 
ATOM      4  C   UNL     1       0.197  16.751  22.888  0.00  0.00    +0.000 C 
ATOM      5  C   UNL     1      -1.295  16.878  23.077  0.00  0.00    +0.000 C 
ATOM      6  C   UNL     1      -1.811  15.451  22.981  0.00  0.00    +0.000 C 
ATOM      7  C   UNL     1      -3.045  15.265  23.820  0.00  0.00    +0.000 C 
ATOM      8  O   UNL     1      -3.029  14.443  24.737  0.00  0.00    +0.000 OA
ATOM      9  N   UNL     1      -4.147  16.032  23.551  0.00  0.00    +0.000 N 
ATOM     10  C   UNL     1      -5.408  15.714  24.200  0.00  0.00    +0.000 C 
ATOM     11  C   UNL     1      -6.343  14.982  23.237  0.00  0.00    +0.000 C 
ATOM     12  C   UNL     1      -5.707  13.717  22.643  0.00  0.00    +0.000 C 
ATOM     13  C   UNL     1      -5.394  13.882  21.154  0.00  0.00    +0.000 C 
ATOM     14  C   UNL     1      -4.490  12.775  20.611  0.00  0.00    +0.000 C 
ATOM     15  C   UNL     1      -3.072  13.233  20.202  0.00  0.00    +0.000 C 
ATOM     16  N   UNL     1      -2.067  13.542  21.225  0.00  0.00    +0.000 NA
ATOM     17  C   UNL     1      -1.789  14.984  21.504  0.00  0.00    +0.000 C 
ATOM     18  C   UNL     1      -0.366  15.338  20.864  0.00  0.00    +0.000 C 
ATOM     19  H   UNL     1      -4.141  16.712  22.802  0.00  0.00    +0.000 HD
ENDROOT
BRANCH   1  25
ATOM     20  C   UNL     1       0.775  18.550  16.428  0.00  0.00    +0.000 C 
ATOM     21  C   UNL     1       1.596  17.726  17.375  0.00  0.00    +0.000 A 
ATOM     22  C   UNL     1       2.699  16.977  16.927  0.00  0.00    +0.000 A 
ATOM     23  C   UNL     1       3.452  16.215  17.820  0.00  0.00    +0.000 A 
ATOM     24  C   UNL     1       3.111  16.207  19.166  0.00  0.00    +0.000 A 
ATOM     25  C   UNL     1       2.025  16.973  19.628  0.00  0.00    +0.000 A 
ATOM     26  C   UNL     1       1.247  17.704  18.735  0.00  0.00    +0.000 A 
ENDBRANCH   1  25
BRANCH  16  27
ATOM     27  C   UNL     1      -1.939  12.605  22.348  0.00  0.00    +0.000 C 
BRANCH  27  28
ATOM     28  C   UNL     1      -0.948  11.467  22.219  0.00  0.00    +0.000 A 
ATOM     29  C   UNL     1       0.068  11.448  21.261  0.00  0.00    +0.000 A 
ATOM     30  C   UNL     1       1.010  10.431  21.307  0.00  0.00    +0.000 A 
ATOM     31  N   UNL     1       1.028   9.457  22.242  0.00  0.00    +0.000 NA
ATOM     32  C   UNL     1       0.059   9.505  23.179  0.00  0.00    +0.000 A 
ATOM     33  C   UNL     1      -0.934  10.472  23.206  0.00  0.00    +0.000 A 
ENDBRANCH  27  28
ENDBRANCH  16  27
TORSDOF 3
ENDMDL
MODEL 8
REMARK VINA RESULT:      -7.2      3.181      5.742
REMARK  Name = 
REMARK  4 active torsions:
REMARK  status: ('A' for Active; 'I' for Inactive)
REMARK    1  A    between atoms: C_1  and  C_2
REMARK    2  A    between atoms: C_6  and  C_7
REMARK    3  A    between atoms: N_22  and  C_23
REMARK    4  A    between atoms: C_23  and  C_24
REMARK                            x       y       z     vdW  Elec       q    Type
REMARK                         _______ _______ _______ _____ _____    ______ ____
ROOT
ATOM      1  C   UNL     1      -2.100  11.088  18.861  0.00  0.00    +0.000 C 
ATOM      2  O   UNL     1      -2.866  10.656  17.997  0.00  0.00    +0.000 OA
ATOM      3  N   UNL     1      -2.458  12.132  19.727  0.00  0.00    +0.000 N 
ATOM      4  C   UNL     1      -3.862  12.485  19.627  0.00  0.00    +0.000 C 
ATOM      5  C   UNL     1      -4.322  13.033  20.955  0.00  0.00    +0.000 C 
ATOM      6  C   UNL     1      -3.638  14.386  21.063  0.00  0.00    +0.000 C 
ATOM      7  C   UNL     1      -4.469  15.349  21.866  0.00  0.00    +0.000 C 
ATOM      8  O   UNL     1      -4.865  16.388  21.335  0.00  0.00    +0.000 OA
ATOM      9  N   UNL     1      -4.777  15.033  23.162  0.00  0.00    +0.000 N 
ATOM     10  C   UNL     1      -5.384  16.042  24.014  0.00  0.00    +0.000 C 
ATOM     11  C   UNL     1      -4.350  16.640  24.967  0.00  0.00    +0.000 C 
ATOM     12  C   UNL     1      -3.132  17.216  24.231  0.00  0.00    +0.000 C 
ATOM     13  C   UNL     1      -1.875  16.375  24.466  0.00  0.00    +0.000 C 
ATOM     14  C   UNL     1      -0.733  16.736  23.513  0.00  0.00    +0.000 C 
ATOM     15  C   UNL     1      -0.376  15.643  22.482  0.00  0.00    +0.000 C 
ATOM     16  N   UNL     1      -1.249  15.393  21.329  0.00  0.00    +0.000 NA
ATOM     17  C   UNL     1      -2.135  14.191  21.384  0.00  0.00    +0.000 C 
ATOM     18  C   UNL     1      -1.526  13.093  20.392  0.00  0.00    +0.000 C 
ATOM     19  H   UNL     1      -4.454  14.170  23.581  0.00  0.00    +0.000 HD
ENDROOT
BRANCH   1  25
ATOM     20  C   UNL     1       1.230   8.715  21.774  0.00  0.00    +0.000 C 
ATOM     21  C   UNL     1       0.786   9.196  20.424  0.00  0.00    +0.000 A 
ATOM     22  C   UNL     1       1.559   8.960  19.273  0.00  0.00    +0.000 A 
ATOM     23  C   UNL     1       1.134   9.415  18.025  0.00  0.00    +0.000 A 
ATOM     24  C   UNL     1      -0.070  10.097  17.922  0.00  0.00    +0.000 A 
ATOM     25  C   UNL     1      -0.863  10.316  19.063  0.00  0.00    +0.000 A 
ATOM     26  C   UNL     1      -0.424   9.898  20.317  0.00  0.00    +0.000 A 
ENDBRANCH   1  25
BRANCH  16  27
ATOM     27  C   UNL     1      -1.751  16.564  20.600  0.00  0.00    +0.000 C 
BRANCH  27  28
ATOM     28  C   UNL     1      -1.002  17.007  19.360  0.00  0.00    +0.000 A 
ATOM     29  C   UNL     1      -1.532  17.905  18.431  0.00  0.00    +0.000 A 
ATOM     30  C   UNL     1      -0.721  18.356  17.401  0.00  0.00    +0.000 A 
ATOM     31  N   UNL     1       0.572  17.999  17.242  0.00  0.00    +0.000 NA
ATOM     32  C   UNL     1       1.079  17.155  18.164  0.00  0.00    +0.000 A 
ATOM     33  C   UNL     1       0.344  16.639  19.220  0.00  0.00    +0.000 A 
ENDBRANCH  27  28
ENDBRANCH  16  27
TORSDOF 3
ENDMDL
MODEL 9
REMARK VINA RESULT:      -7.2      2.860      5.484
REMARK  Name = 
REMARK  4 active torsions:
REMARK  status: ('A' for Active; 'I' for Inactive)
REMARK    1  A    between atoms: C_1  and  C_2
REMARK    2  A    between atoms: C_6  and  C_7
REMARK    3  A    between atoms: N_22  and  C_23
REMARK    4  A    between atoms: C_23  and  C_24
REMARK                            x       y       z     vdW  Elec       q    Type
REMARK                         _______ _______ _______ _____ _____    ______ ____
ROOT
ATOM      1  C   UNL     1      -1.288  10.688  19.001  0.00  0.00    +0.000 C 
ATOM      2  O   UNL     1      -2.044  10.252  18.128  0.00  0.00    +0.000 OA
ATOM      3  N   UNL     1      -1.589  11.835  19.749  0.00  0.00    +0.000 N 
ATOM      4  C   UNL     1      -2.943  12.308  19.527  0.00  0.00    +0.000 C 
ATOM      5  C   UNL     1      -3.421  13.016  20.771  0.00  0.00    +0.000 C 
ATOM      6  C   UNL     1      -2.613  14.303  20.808  0.00  0.00    +0.000 C 
ATOM      7  C   UNL     1      -3.388  15.409  21.470  0.00  0.00    +0.000 C 
ATOM      8  O   UNL     1      -3.648  16.428  20.827  0.00  0.00    +0.000 OA
ATOM      9  N   UNL     1      -3.799  15.243  22.765  0.00  0.00    +0.000 N 
ATOM     10  C   UNL     1      -4.351  16.378  23.486  0.00  0.00    +0.000 C 
ATOM     11  C   UNL     1      -3.318  16.961  24.451  0.00  0.00    +0.000 C 
ATOM     12  C   UNL     1      -2.008  17.350  23.749  0.00  0.00    +0.000 C 
ATOM     13  C   UNL     1      -0.856  16.419  24.136  0.00  0.00    +0.000 C 
ATOM     14  C   UNL     1       0.368  16.582  23.233  0.00  0.00    +0.000 C 
ATOM     15  C   UNL     1       0.672  15.371  22.325  0.00  0.00    +0.000 C 
ATOM     16  N   UNL     1      -0.154  15.100  21.143  0.00  0.00    +0.000 NA
ATOM     17  C   UNL     1      -1.158  13.997  21.242  0.00  0.00    +0.000 C 
ATOM     18  C   UNL     1      -0.606  12.760  20.389  0.00  0.00    +0.000 C 
ATOM     19  H   UNL     1      -3.588  14.396  23.276  0.00  0.00    +0.000 HD
ENDROOT
BRANCH   1  25
ATOM     20  C   UNL     1       2.869   8.130  17.825  0.00  0.00    +0.000 C 
ATOM     21  C   UNL     1       1.833   8.548  18.827  0.00  0.00    +0.000 A 
ATOM     22  C   UNL     1       1.881   8.099  20.159  0.00  0.00    +0.000 A 
ATOM     23  C   UNL     1       0.910   8.495  21.078  0.00  0.00    +0.000 A 
ATOM     24  C   UNL     1      -0.106   9.349  20.672  0.00  0.00    +0.000 A 
ATOM     25  C   UNL     1      -0.148   9.824  19.349  0.00  0.00    +0.000 A 
ATOM     26  C   UNL     1       0.796   9.401  18.417  0.00  0.00    +0.000 A 
ENDBRANCH   1  25
BRANCH  16  27
ATOM     27  C   UNL     1      -0.495  16.242  20.285  0.00  0.00    +0.000 C 
BRANCH  27  28
ATOM     28  C   UNL     1       0.544  16.724  19.293  0.00  0.00    +0.000 A 
ATOM     29  C   UNL     1       1.784  16.104  19.128  0.00  0.00    +0.000 A 
ATOM     30  C   UNL     1       2.613  16.532  18.102  0.00  0.00    +0.000 A 
ATOM     31  N   UNL     1       2.291  17.506  17.223  0.00  0.00    +0.000 NA
ATOM     32  C   UNL     1       1.077  18.075  17.376  0.00  0.00    +0.000 A 
ATOM     33  C   UNL     1       0.186  17.726  18.379  0.00  0.00    +0.000 A 
ENDBRANCH  27  28
ENDBRANCH  16  27
TORSDOF 3
ENDMDL
