MODEL 1
REMARK VINA RESULT:      -9.1      0.000      0.000
REMARK  Name = 
REMARK  4 active torsions:
REMARK  status: ('A' for Active; 'I' for Inactive)
REMARK    1  A    between atoms: C_22  and  O_23
REMARK    2  A    between atoms: O_23  and  C_24
REMARK    3  A    between atoms: C_24  and  C_25
REMARK    4  A    between atoms: C_25  and  C_26
REMARK                            x       y       z     vdW  Elec       q    Type
REMARK                         _______ _______ _______ _____ _____    ______ ____
ROOT
ATOM      1  O   UNL     1       2.030  11.086  18.220  0.00  0.00    +0.000 OA
ATOM      2  C   UNL     1       1.105  11.419  18.949  0.00  0.00    +0.000 C 
ATOM      3  C   UNL     1       0.405  12.731  18.695  0.00  0.00    +0.000 C 
ATOM      4  C   UNL     1       0.171  13.382  19.852  0.00  0.00    +0.000 C 
ATOM      5  C   UNL     1      -0.692  12.682  20.891  0.00  0.00    +0.000 C 
ATOM      6  O   UNL     1      -0.620  13.466  22.093  0.00  0.00    +0.000 OA
ATOM      7  C   UNL     1      -1.802  13.705  22.731  0.00  0.00    +0.000 A 
ATOM      8  C   UNL     1      -1.742  14.239  24.018  0.00  0.00    +0.000 A 
ATOM      9  C   UNL     1      -2.919  14.540  24.706  0.00  0.00    +0.000 A 
ATOM     10  C   UNL     1      -4.158  14.332  24.095  0.00  0.00    +0.000 A 
ATOM     11  C   UNL     1      -4.230  13.784  22.802  0.00  0.00    +0.000 A 
ATOM     12  C   UNL     1      -5.453  13.564  22.152  0.00  0.00    +0.000 A 
ATOM     13  C   UNL     1      -5.483  12.990  20.880  0.00  0.00    +0.000 A 
ATOM     14  C   UNL     1      -4.293  12.622  20.257  0.00  0.00    +0.000 A 
ATOM     15  C   UNL     1      -3.074  12.855  20.892  0.00  0.00    +0.000 A 
ATOM     16  C   UNL     1      -3.029  13.448  22.141  0.00  0.00    +0.000 A 
ATOM     17  O   UNL     1      -1.956  12.457  20.234  0.00  0.00    +0.000 OA
ATOM     18  C   UNL     1      -0.095  11.291  21.150  0.00  0.00    +0.000 A 
ATOM     19  C   UNL     1      -0.346  10.637  22.368  0.00  0.00    +0.000 A 
ATOM     20  C   UNL     1       0.048   9.323  22.553  0.00  0.00    +0.000 A 
ATOM     21  C   UNL     1       0.650   8.629  21.506  0.00  0.00    +0.000 A 
ATOM     22  C   UNL     1       0.946   9.248  20.280  0.00  0.00    +0.000 A 
ATOM     23  C   UNL     1       0.636  10.617  20.132  0.00  0.00    +0.000 A 
ENDROOT
BRANCH  22  24
ATOM     24  O   UNL     1       1.467   8.547  19.208  0.00  0.00    +0.000 OA
BRANCH  24  25
ATOM     25  C   UNL     1       2.336   7.459  19.559  0.00  0.00    +0.000 C 
BRANCH  25  26
ATOM     26  C   UNL     1       2.492   6.431  18.439  0.00  0.00    +0.000 C 
BRANCH  26  27
ATOM     27  C   UNL     1       2.004   5.075  18.915  0.00  0.00    +0.000 A 
ATOM     28  C   UNL     1       1.793   4.027  18.007  0.00  0.00    +0.000 A 
ATOM     29  C   UNL     1       1.294   2.795  18.446  0.00  0.00    +0.000 A 
ATOM     30  C   UNL     1       0.994   2.602  19.791  0.00  0.00    +0.000 A 
ATOM     31  C   UNL     1       1.185   3.640  20.700  0.00  0.00    +0.000 A 
ATOM     32  C   UNL     1       1.682   4.872  20.264  0.00  0.00    +0.000 A 
ENDBRANCH  26  27
ENDBRANCH  25  26
ENDBRANCH  24  25
ENDBRANCH  22  24
TORSDOF 4
ENDMDL
MODEL 2
REMARK VINA RESULT:      -8.9      0.878      1.037
REMARK  Name = 
REMARK  4 active torsions:
REMARK  status: ('A' for Active; 'I' for Inactive)
REMARK    1  A    between atoms: C_22  and  O_23
REMARK    2  A    between atoms: O_23  and  C_24
REMARK    3  A    between atoms: C_24  and  C_25
REMARK    4  A    between atoms: C_25  and  C_26
REMARK                            x       y       z     vdW  Elec       q    Type
REMARK                         _______ _______ _______ _____ _____    ______ ____
ROOT
ATOM      1  O   UNL     1       2.535  11.741  18.094  0.00  0.00    +0.000 OA
ATOM      2  C   UNL     1       1.459  11.817  18.675  0.00  0.00    +0.000 C 
ATOM      3  C   UNL     1       0.615  13.055  18.496  0.00  0.00    +0.000 C 
ATOM      4  C   UNL     1       0.091  13.452  19.673  0.00  0.00    +0.000 C 
ATOM      5  C   UNL     1      -0.814  12.472  20.407  0.00  0.00    +0.000 C 
ATOM      6  O   UNL     1      -1.068  13.030  21.707  0.00  0.00    +0.000 OA
ATOM      7  C   UNL     1      -2.363  12.998  22.135  0.00  0.00    +0.000 A 
ATOM      8  C   UNL     1      -2.605  13.295  23.476  0.00  0.00    +0.000 A 
ATOM      9  C   UNL     1      -3.913  13.316  23.963  0.00  0.00    +0.000 A 
ATOM     10  C   UNL     1      -4.984  13.067  23.101  0.00  0.00    +0.000 A 
ATOM     11  C   UNL     1      -4.751  12.756  21.749  0.00  0.00    +0.000 A 
ATOM     12  C   UNL     1      -5.798  12.504  20.850  0.00  0.00    +0.000 A 
ATOM     13  C   UNL     1      -5.523  12.169  19.523  0.00  0.00    +0.000 A 
ATOM     14  C   UNL     1      -4.202  12.073  19.092  0.00  0.00    +0.000 A 
ATOM     15  C   UNL     1      -3.159  12.340  19.977  0.00  0.00    +0.000 A 
ATOM     16  C   UNL     1      -3.418  12.699  21.288  0.00  0.00    +0.000 A 
ATOM     17  O   UNL     1      -1.898  12.212  19.493  0.00  0.00    +0.000 OA
ATOM     18  C   UNL     1      -0.058  11.144  20.558  0.00  0.00    +0.000 A 
ATOM     19  C   UNL     1      -0.403  10.255  21.589  0.00  0.00    +0.000 A 
ATOM     20  C   UNL     1       0.155   8.990  21.642  0.00  0.00    +0.000 A 
ATOM     21  C   UNL     1       1.026   8.578  20.636  0.00  0.00    +0.000 A 
ATOM     22  C   UNL     1       1.423   9.440  19.599  0.00  0.00    +0.000 A 
ATOM     23  C   UNL     1       0.930  10.763  19.608  0.00  0.00    +0.000 A 
ENDROOT
BRANCH  22  24
ATOM     24  O   UNL     1       2.220   9.015  18.552  0.00  0.00    +0.000 OA
BRANCH  24  25
ATOM     25  C   UNL     1       1.844   7.754  17.977  0.00  0.00    +0.000 C 
BRANCH  25  26
ATOM     26  C   UNL     1       2.903   6.670  18.167  0.00  0.00    +0.000 C 
BRANCH  26  27
ATOM     27  C   UNL     1       2.261   5.418  18.736  0.00  0.00    +0.000 A 
ATOM     28  C   UNL     1       1.740   4.427  17.891  0.00  0.00    +0.000 A 
ATOM     29  C   UNL     1       1.104   3.301  18.423  0.00  0.00    +0.000 A 
ATOM     30  C   UNL     1       0.974   3.157  19.801  0.00  0.00    +0.000 A 
ATOM     31  C   UNL     1       1.473   4.141  20.651  0.00  0.00    +0.000 A 
ATOM     32  C   UNL     1       2.108   5.268  20.122  0.00  0.00    +0.000 A 
ENDBRANCH  26  27
ENDBRANCH  25  26
ENDBRANCH  24  25
ENDBRANCH  22  24
TORSDOF 4
ENDMDL
MODEL 3
REMARK VINA RESULT:      -8.9      0.889      1.332
REMARK  Name = 
REMARK  4 active torsions:
REMARK  status: ('A' for Active; 'I' for Inactive)
REMARK    1  A    between atoms: C_22  and  O_23
REMARK    2  A    between atoms: O_23  and  C_24
REMARK    3  A    between atoms: C_24  and  C_25
REMARK    4  A    between atoms: C_25  and  C_26
REMARK                            x       y       z     vdW  Elec       q    Type
REMARK                         _______ _______ _______ _____ _____    ______ ____
ROOT
ATOM      1  O   UNL     1       1.614  11.303  18.775  0.00  0.00    +0.000 OA
ATOM      2  C   UNL     1       0.576  11.615  19.345  0.00  0.00    +0.000 C 
ATOM      3  C   UNL     1      -0.251  12.751  18.794  0.00  0.00    +0.000 C 
ATOM      4  C   UNL     1      -0.697  13.546  19.788  0.00  0.00    +0.000 C 
ATOM      5  C   UNL     1      -1.578  12.911  20.854  0.00  0.00    +0.000 C 
ATOM      6  O   UNL     1      -1.744  13.887  21.895  0.00  0.00    +0.000 OA
ATOM      7  C   UNL     1      -3.012  14.056  22.369  0.00  0.00    +0.000 A 
ATOM      8  C   UNL     1      -3.169  14.800  23.538  0.00  0.00    +0.000 A 
ATOM      9  C   UNL     1      -4.446  15.038  24.050  0.00  0.00    +0.000 A 
ATOM     10  C   UNL     1      -5.570  14.555  23.376  0.00  0.00    +0.000 A 
ATOM     11  C   UNL     1      -5.423  13.794  22.203  0.00  0.00    +0.000 A 
ATOM     12  C   UNL     1      -6.526  13.294  21.495  0.00  0.00    +0.000 A 
ATOM     13  C   UNL     1      -6.336  12.517  20.351  0.00  0.00    +0.000 A 
ATOM     14  C   UNL     1      -5.045  12.226  19.916  0.00  0.00    +0.000 A 
ATOM     15  C   UNL     1      -3.946  12.736  20.607  0.00  0.00    +0.000 A 
ATOM     16  C   UNL     1      -4.121  13.529  21.726  0.00  0.00    +0.000 A 
ATOM     17  O   UNL     1      -2.719  12.400  20.136  0.00  0.00    +0.000 OA
ATOM     18  C   UNL     1      -0.844  11.685  21.414  0.00  0.00    +0.000 A 
ATOM     19  C   UNL     1      -1.148  11.214  22.702  0.00  0.00    +0.000 A 
ATOM     20  C   UNL     1      -0.615  10.020  23.157  0.00  0.00    +0.000 A 
ATOM     21  C   UNL     1       0.186   9.256  22.312  0.00  0.00    +0.000 A 
ATOM     22  C   UNL     1       0.541   9.698  21.026  0.00  0.00    +0.000 A 
ATOM     23  C   UNL     1       0.079  10.963  20.605  0.00  0.00    +0.000 A 
ENDROOT
BRANCH  22  24
ATOM     24  O   UNL     1       1.266   8.910  20.151  0.00  0.00    +0.000 OA
BRANCH  24  25
ATOM     25  C   UNL     1       1.547   7.582  20.620  0.00  0.00    +0.000 C 
BRANCH  25  26
ATOM     26  C   UNL     1       2.446   6.790  19.672  0.00  0.00    +0.000 C 
BRANCH  26  27
ATOM     27  C   UNL     1       1.932   5.368  19.545  0.00  0.00    +0.000 A 
ATOM     28  C   UNL     1       1.540   4.639  20.677  0.00  0.00    +0.000 A 
ATOM     29  C   UNL     1       1.116   3.311  20.558  0.00  0.00    +0.000 A 
ATOM     30  C   UNL     1       1.087   2.696  19.310  0.00  0.00    +0.000 A 
ATOM     31  C   UNL     1       1.489   3.404  18.179  0.00  0.00    +0.000 A 
ATOM     32  C   UNL     1       1.914   4.730  18.296  0.00  0.00    +0.000 A 
ENDBRANCH  26  27
ENDBRANCH  25  26
ENDBRANCH  24  25
ENDBRANCH  22  24
TORSDOF 4
ENDMDL
MODEL 4
REMARK VINA RESULT:      -8.8      0.988      1.490
REMARK  Name = 
REMARK  4 active torsions:
REMARK  status: ('A' for Active; 'I' for Inactive)
REMARK    1  A    between atoms: C_22  and  O_23
REMARK    2  A    between atoms: O_23  and  C_24
REMARK    3  A    between atoms: C_24  and  C_25
REMARK    4  A    between atoms: C_25  and  C_26
REMARK                            x       y       z     vdW  Elec       q    Type
REMARK                         _______ _______ _______ _____ _____    ______ ____
ROOT
ATOM      1  O   UNL     1       2.153  12.395  18.189  0.00  0.00    +0.000 OA
ATOM      2  C   UNL     1       1.077  12.379  18.774  0.00  0.00    +0.000 C 
ATOM      3  C   UNL     1       0.147  13.559  18.633  0.00  0.00    +0.000 C 
ATOM      4  C   UNL     1      -0.398  13.885  19.822  0.00  0.00    +0.000 C 
ATOM      5  C   UNL     1      -1.228  12.825  20.530  0.00  0.00    +0.000 C 
ATOM      6  O   UNL     1      -1.515  13.327  21.846  0.00  0.00    +0.000 OA
ATOM      7  C   UNL     1      -2.802  13.193  22.277  0.00  0.00    +0.000 A 
ATOM      8  C   UNL     1      -3.058  13.435  23.626  0.00  0.00    +0.000 A 
ATOM      9  C   UNL     1      -4.362  13.350  24.117  0.00  0.00    +0.000 A 
ATOM     10  C   UNL     1      -5.416  13.050  23.251  0.00  0.00    +0.000 A 
ATOM     11  C   UNL     1      -5.169  12.794  21.891  0.00  0.00    +0.000 A 
ATOM     12  C   UNL     1      -6.200  12.494  20.989  0.00  0.00    +0.000 A 
ATOM     13  C   UNL     1      -5.908  12.216  19.652  0.00  0.00    +0.000 A 
ATOM     14  C   UNL     1      -4.586  12.225  19.214  0.00  0.00    +0.000 A 
ATOM     15  C   UNL     1      -3.560  12.540  20.104  0.00  0.00    +0.000 A 
ATOM     16  C   UNL     1      -3.838  12.844  21.424  0.00  0.00    +0.000 A 
ATOM     17  O   UNL     1      -2.296  12.514  19.612  0.00  0.00    +0.000 OA
ATOM     18  C   UNL     1      -0.380  11.550  20.642  0.00  0.00    +0.000 A 
ATOM     19  C   UNL     1      -0.657  10.610  21.649  0.00  0.00    +0.000 A 
ATOM     20  C   UNL     1      -0.011   9.386  21.665  0.00  0.00    +0.000 A 
ATOM     21  C   UNL     1       0.882   9.065  20.645  0.00  0.00    +0.000 A 
ATOM     22  C   UNL     1       1.212   9.981  19.632  0.00  0.00    +0.000 A 
ATOM     23  C   UNL     1       0.628  11.265  19.679  0.00  0.00    +0.000 A 
ENDROOT
BRANCH  22  24
ATOM     24  O   UNL     1       2.032   9.642  18.571  0.00  0.00    +0.000 OA
BRANCH  24  25
ATOM     25  C   UNL     1       1.727   8.386  17.946  0.00  0.00    +0.000 C 
BRANCH  25  26
ATOM     26  C   UNL     1       2.850   7.359  18.085  0.00  0.00    +0.000 C 
BRANCH  26  27
ATOM     27  C   UNL     1       2.299   6.070  18.665  0.00  0.00    +0.000 A 
ATOM     28  C   UNL     1       2.162   5.904  20.051  0.00  0.00    +0.000 A 
ATOM     29  C   UNL     1       1.701   4.694  20.581  0.00  0.00    +0.000 A 
ATOM     30  C   UNL     1       1.381   3.637  19.733  0.00  0.00    +0.000 A 
ATOM     31  C   UNL     1       1.527   3.783  18.356  0.00  0.00    +0.000 A 
ATOM     32  C   UNL     1       1.989   4.991  17.825  0.00  0.00    +0.000 A 
ENDBRANCH  26  27
ENDBRANCH  25  26
ENDBRANCH  24  25
ENDBRANCH  22  24
TORSDOF 4
ENDMDL
MODEL 5
REMARK VINA RESULT:      -8.6      0.698      1.188
REMARK  Name = 
REMARK  4 active torsions:
REMARK  status: ('A' for Active; 'I' for Inactive)
REMARK    1  A    between atoms: C_22  and  O_23
REMARK    2  A    between atoms: O_23  and  C_24
REMARK    3  A    between atoms: C_24  and  C_25
REMARK    4  A    between atoms: C_25  and  C_26
REMARK                            x       y       z     vdW  Elec       q    Type
REMARK                         _______ _______ _______ _____ _____    ______ ____
ROOT
ATOM      1  O   UNL     1       2.034  11.215  18.209  0.00  0.00    +0.000 OA
ATOM      2  C   UNL     1       1.103  11.524  18.942  0.00  0.00    +0.000 C 
ATOM      3  C   UNL     1       0.393  12.835  18.715  0.00  0.00    +0.000 C 
ATOM      4  C   UNL     1       0.150  13.459  19.885  0.00  0.00    +0.000 C 
ATOM      5  C   UNL     1      -0.711  12.728  20.906  0.00  0.00    +0.000 C 
ATOM      6  O   UNL     1      -0.649  13.486  22.125  0.00  0.00    +0.000 OA
ATOM      7  C   UNL     1      -1.835  13.701  22.764  0.00  0.00    +0.000 A 
ATOM      8  C   UNL     1      -1.784  14.207  24.063  0.00  0.00    +0.000 A 
ATOM      9  C   UNL     1      -2.966  14.482  24.753  0.00  0.00    +0.000 A 
ATOM     10  C   UNL     1      -4.201  14.278  24.133  0.00  0.00    +0.000 A 
ATOM     11  C   UNL     1      -4.264  13.759  22.828  0.00  0.00    +0.000 A 
ATOM     12  C   UNL     1      -5.484  13.543  22.169  0.00  0.00    +0.000 A 
ATOM     13  C   UNL     1      -5.504  12.997  20.884  0.00  0.00    +0.000 A 
ATOM     14  C   UNL     1      -4.309  12.654  20.258  0.00  0.00    +0.000 A 
ATOM     15  C   UNL     1      -3.094  12.882  20.902  0.00  0.00    +0.000 A 
ATOM     16  C   UNL     1      -3.058  13.448  22.164  0.00  0.00    +0.000 A 
ATOM     17  O   UNL     1      -1.971  12.508  20.239  0.00  0.00    +0.000 OA
ATOM     18  C   UNL     1      -0.104  11.337  21.136  0.00  0.00    +0.000 A 
ATOM     19  C   UNL     1      -0.352  10.654  22.338  0.00  0.00    +0.000 A 
ATOM     20  C   UNL     1       0.051   9.339  22.494  0.00  0.00    +0.000 A 
ATOM     21  C   UNL     1       0.662   8.674  21.435  0.00  0.00    +0.000 A 
ATOM     22  C   UNL     1       0.958   9.323  20.223  0.00  0.00    +0.000 A 
ATOM     23  C   UNL     1       0.636  10.692  20.105  0.00  0.00    +0.000 A 
ENDROOT
BRANCH  22  24
ATOM     24  O   UNL     1       1.488   8.650  19.138  0.00  0.00    +0.000 OA
BRANCH  24  25
ATOM     25  C   UNL     1       2.199   7.445  19.459  0.00  0.00    +0.000 C 
BRANCH  25  26
ATOM     26  C   UNL     1       3.159   7.003  18.355  0.00  0.00    +0.000 C 
BRANCH  26  27
ATOM     27  C   UNL     1       2.936   5.536  18.037  0.00  0.00    +0.000 A 
ATOM     28  C   UNL     1       1.797   4.862  18.502  0.00  0.00    +0.000 A 
ATOM     29  C   UNL     1       1.623   3.498  18.248  0.00  0.00    +0.000 A 
ATOM     30  C   UNL     1       2.587   2.792  17.535  0.00  0.00    +0.000 A 
ATOM     31  C   UNL     1       3.730   3.445  17.080  0.00  0.00    +0.000 A 
ATOM     32  C   UNL     1       3.906   4.808  17.334  0.00  0.00    +0.000 A 
ENDBRANCH  26  27
ENDBRANCH  25  26
ENDBRANCH  24  25
ENDBRANCH  22  24
TORSDOF 4
ENDMDL
MODEL 6
REMARK VINA RESULT:      -8.6      1.081      1.458
REMARK  Name = 
REMARK  4 active torsions:
REMARK  status: ('A' for Active; 'I' for Inactive)
REMARK    1  A    between atoms: C_22  and  O_23
REMARK    2  A    between atoms: O_23  and  C_24
REMARK    3  A    between atoms: C_24  and  C_25
REMARK    4  A    between atoms: C_25  and  C_26
REMARK                            x       y       z     vdW  Elec       q    Type
REMARK                         _______ _______ _______ _____ _____    ______ ____
ROOT
ATOM      1  O   UNL     1       2.149  11.839  18.318  0.00  0.00    +0.000 OA
ATOM      2  C   UNL     1       1.091  11.947  18.926  0.00  0.00    +0.000 C 
ATOM      3  C   UNL     1       0.250  13.183  18.723  0.00  0.00    +0.000 C 
ATOM      4  C   UNL     1      -0.236  13.631  19.898  0.00  0.00    +0.000 C 
ATOM      5  C   UNL     1      -1.126  12.689  20.696  0.00  0.00    +0.000 C 
ATOM      6  O   UNL     1      -1.337  13.300  21.979  0.00  0.00    +0.000 OA
ATOM      7  C   UNL     1      -2.620  13.296  22.446  0.00  0.00    +0.000 A 
ATOM      8  C   UNL     1      -2.819  13.648  23.781  0.00  0.00    +0.000 A 
ATOM      9  C   UNL     1      -4.112  13.699  24.304  0.00  0.00    +0.000 A 
ATOM     10  C   UNL     1      -5.210  13.425  23.485  0.00  0.00    +0.000 A 
ATOM     11  C   UNL     1      -5.019  13.058  22.140  0.00  0.00    +0.000 A 
ATOM     12  C   UNL     1      -6.094  12.779  21.283  0.00  0.00    +0.000 A 
ATOM     13  C   UNL     1      -5.860  12.389  19.964  0.00  0.00    +0.000 A 
ATOM     14  C   UNL     1      -4.554  12.265  19.498  0.00  0.00    +0.000 A 
ATOM     15  C   UNL     1      -3.483  12.558  20.341  0.00  0.00    +0.000 A 
ATOM     16  C   UNL     1      -3.701  12.972  21.643  0.00  0.00    +0.000 A 
ATOM     17  O   UNL     1      -2.238  12.401  19.825  0.00  0.00    +0.000 OA
ATOM     18  C   UNL     1      -0.375  11.362  20.878  0.00  0.00    +0.000 A 
ATOM     19  C   UNL     1      -0.696  10.518  21.954  0.00  0.00    +0.000 A 
ATOM     20  C   UNL     1      -0.144   9.250  22.041  0.00  0.00    +0.000 A 
ATOM     21  C   UNL     1       0.693   8.792  21.027  0.00  0.00    +0.000 A 
ATOM     22  C   UNL     1       1.065   9.609  19.946  0.00  0.00    +0.000 A 
ATOM     23  C   UNL     1       0.582  10.934  19.916  0.00  0.00    +0.000 A 
ENDROOT
BRANCH  22  24
ATOM     24  O   UNL     1       1.828   9.136  18.894  0.00  0.00    +0.000 OA
BRANCH  24  25
ATOM     25  C   UNL     1       2.159   7.740  18.964  0.00  0.00    +0.000 C 
BRANCH  25  26
ATOM     26  C   UNL     1       3.218   7.324  17.944  0.00  0.00    +0.000 C 
BRANCH  26  27
ATOM     27  C   UNL     1       3.181   5.819  17.750  0.00  0.00    +0.000 A 
ATOM     28  C   UNL     1       4.275   5.137  17.198  0.00  0.00    +0.000 A 
ATOM     29  C   UNL     1       4.215   3.758  16.975  0.00  0.00    +0.000 A 
ATOM     30  C   UNL     1       3.061   3.048  17.293  0.00  0.00    +0.000 A 
ATOM     31  C   UNL     1       1.962   3.716  17.828  0.00  0.00    +0.000 A 
ATOM     32  C   UNL     1       2.020   5.094  18.051  0.00  0.00    +0.000 A 
ENDBRANCH  26  27
ENDBRANCH  25  26
ENDBRANCH  24  25
ENDBRANCH  22  24
TORSDOF 4
ENDMDL
MODEL 7
REMARK VINA RESULT:      -8.4      1.493      3.082
REMARK  Name = 
REMARK  4 active torsions:
REMARK  status: ('A' for Active; 'I' for Inactive)
REMARK    1  A    between atoms: C_22  and  O_23
REMARK    2  A    between atoms: O_23  and  C_24
REMARK    3  A    between atoms: C_24  and  C_25
REMARK    4  A    between atoms: C_25  and  C_26
REMARK                            x       y       z     vdW  Elec       q    Type
REMARK                         _______ _______ _______ _____ _____    ______ ____
ROOT
ATOM      1  O   UNL     1       1.387   7.994  21.786  0.00  0.00    +0.000 OA
ATOM      2  C   UNL     1       0.837   9.086  21.717  0.00  0.00    +0.000 C 
ATOM      3  C   UNL     1       0.493   9.815  22.993  0.00  0.00    +0.000 C 
ATOM      4  C   UNL     1      -0.738  10.360  22.916  0.00  0.00    +0.000 C 
ATOM      5  C   UNL     1      -0.990  11.377  21.813  0.00  0.00    +0.000 C 
ATOM      6  O   UNL     1      -2.402  11.646  21.805  0.00  0.00    +0.000 OA
ATOM      7  C   UNL     1      -2.767  12.958  21.724  0.00  0.00    +0.000 A 
ATOM      8  C   UNL     1      -4.108  13.237  21.462  0.00  0.00    +0.000 A 
ATOM      9  C   UNL     1      -4.548  14.561  21.404  0.00  0.00    +0.000 A 
ATOM     10  C   UNL     1      -3.651  15.606  21.638  0.00  0.00    +0.000 A 
ATOM     11  C   UNL     1      -2.295  15.336  21.892  0.00  0.00    +0.000 A 
ATOM     12  C   UNL     1      -1.364  16.356  22.135  0.00  0.00    +0.000 A 
ATOM     13  C   UNL     1      -0.020  16.047  22.354  0.00  0.00    +0.000 A 
ATOM     14  C   UNL     1       0.401  14.721  22.319  0.00  0.00    +0.000 A 
ATOM     15  C   UNL     1      -0.524  13.702  22.095  0.00  0.00    +0.000 A 
ATOM     16  C   UNL     1      -1.863  13.992  21.904  0.00  0.00    +0.000 A 
ATOM     17  O   UNL     1      -0.041  12.435  22.058  0.00  0.00    +0.000 OA
ATOM     18  C   UNL     1      -0.582  10.743  20.475  0.00  0.00    +0.000 A 
ATOM     19  C   UNL     1      -1.148  11.210  19.277  0.00  0.00    +0.000 A 
ATOM     20  C   UNL     1      -0.674  10.762  18.056  0.00  0.00    +0.000 A 
ATOM     21  C   UNL     1       0.404   9.882  18.016  0.00  0.00    +0.000 A 
ATOM     22  C   UNL     1       0.985   9.366  19.186  0.00  0.00    +0.000 A 
ATOM     23  C   UNL     1       0.432   9.746  20.428  0.00  0.00    +0.000 A 
ENDROOT
BRANCH  22  24
ATOM     24  O   UNL     1       2.107   8.558  19.158  0.00  0.00    +0.000 OA
BRANCH  24  25
ATOM     25  C   UNL     1       2.158   7.629  18.064  0.00  0.00    +0.000 C 
BRANCH  25  26
ATOM     26  C   UNL     1       3.134   6.477  18.301  0.00  0.00    +0.000 C 
BRANCH  26  27
ATOM     27  C   UNL     1       2.379   5.256  18.791  0.00  0.00    +0.000 A 
ATOM     28  C   UNL     1       1.971   4.254  17.898  0.00  0.00    +0.000 A 
ATOM     29  C   UNL     1       1.231   3.156  18.349  0.00  0.00    +0.000 A 
ATOM     30  C   UNL     1       0.885   3.052  19.694  0.00  0.00    +0.000 A 
ATOM     31  C   UNL     1       1.270   4.048  20.588  0.00  0.00    +0.000 A 
ATOM     32  C   UNL     1       2.009   5.146  20.139  0.00  0.00    +0.000 A 
ENDBRANCH  26  27
ENDBRANCH  25  26
ENDBRANCH  24  25
ENDBRANCH  22  24
TORSDOF 4
ENDMDL
MODEL 8
REMARK VINA RESULT:      -8.4      1.225      1.997
REMARK  Name = 
REMARK  4 active torsions:
REMARK  status: ('A' for Active; 'I' for Inactive)
REMARK    1  A    between atoms: C_22  and  O_23
REMARK    2  A    between atoms: O_23  and  C_24
REMARK    3  A    between atoms: C_24  and  C_25
REMARK    4  A    between atoms: C_25  and  C_26
REMARK                            x       y       z     vdW  Elec       q    Type
REMARK                         _______ _______ _______ _____ _____    ______ ____
ROOT
ATOM      1  O   UNL     1       2.109  10.775  18.177  0.00  0.00    +0.000 OA
ATOM      2  C   UNL     1       1.209  11.161  18.913  0.00  0.00    +0.000 C 
ATOM      3  C   UNL     1       0.540  12.482  18.622  0.00  0.00    +0.000 C 
ATOM      4  C   UNL     1       0.350  13.184  19.757  0.00  0.00    +0.000 C 
ATOM      5  C   UNL     1      -0.510  12.549  20.841  0.00  0.00    +0.000 C 
ATOM      6  O   UNL     1      -0.389  13.376  22.009  0.00  0.00    +0.000 OA
ATOM      7  C   UNL     1      -1.550  13.672  22.662  0.00  0.00    +0.000 A 
ATOM      8  C   UNL     1      -1.448  14.254  23.925  0.00  0.00    +0.000 A 
ATOM      9  C   UNL     1      -2.601  14.614  24.625  0.00  0.00    +0.000 A 
ATOM     10  C   UNL     1      -3.858  14.419  24.048  0.00  0.00    +0.000 A 
ATOM     11  C   UNL     1      -3.974  13.824  22.780  0.00  0.00    +0.000 A 
ATOM     12  C   UNL     1      -5.216  13.614  22.164  0.00  0.00    +0.000 A 
ATOM     13  C   UNL     1      -5.289  12.992  20.916  0.00  0.00    +0.000 A 
ATOM     14  C   UNL     1      -4.124  12.567  20.284  0.00  0.00    +0.000 A 
ATOM     15  C   UNL     1      -2.885  12.789  20.884  0.00  0.00    +0.000 A 
ATOM     16  C   UNL     1      -2.797  13.429  22.108  0.00  0.00    +0.000 A 
ATOM     17  O   UNL     1      -1.793  12.335  20.219  0.00  0.00    +0.000 OA
ATOM     18  C   UNL     1       0.054  11.152  21.141  0.00  0.00    +0.000 A 
ATOM     19  C   UNL     1      -0.188  10.553  22.388  0.00  0.00    +0.000 A 
ATOM     20  C   UNL     1       0.173   9.236  22.616  0.00  0.00    +0.000 A 
ATOM     21  C   UNL     1       0.733   8.486  21.585  0.00  0.00    +0.000 A 
ATOM     22  C   UNL     1       1.019   9.049  20.330  0.00  0.00    +0.000 A 
ATOM     23  C   UNL     1       0.744  10.419  20.135  0.00  0.00    +0.000 A 
ENDROOT
BRANCH  22  24
ATOM     24  O   UNL     1       1.497   8.292  19.275  0.00  0.00    +0.000 OA
BRANCH  24  25
ATOM     25  C   UNL     1       2.464   7.293  19.634  0.00  0.00    +0.000 C 
BRANCH  25  26
ATOM     26  C   UNL     1       2.242   5.961  18.920  0.00  0.00    +0.000 C 
BRANCH  26  27
ATOM     27  C   UNL     1       3.326   5.749  17.879  0.00  0.00    +0.000 A 
ATOM     28  C   UNL     1       3.628   4.464  17.405  0.00  0.00    +0.000 A 
ATOM     29  C   UNL     1       4.663   4.270  16.484  0.00  0.00    +0.000 A 
ATOM     30  C   UNL     1       5.410   5.354  16.034  0.00  0.00    +0.000 A 
ATOM     31  C   UNL     1       5.130   6.634  16.508  0.00  0.00    +0.000 A 
ATOM     32  C   UNL     1       4.098   6.830  17.430  0.00  0.00    +0.000 A 
ENDBRANCH  26  27
ENDBRANCH  25  26
ENDBRANCH  24  25
ENDBRANCH  22  24
TORSDOF 4
ENDMDL
MODEL 9
REMARK VINA RESULT:      -8.3      1.458      2.145
REMARK  Name = 
REMARK  4 active torsions:
REMARK  status: ('A' for Active; 'I' for Inactive)
REMARK    1  A    between atoms: C_22  and  O_23
REMARK    2  A    between atoms: O_23  and  C_24
REMARK    3  A    between atoms: C_24  and  C_25
REMARK    4  A    between atoms: C_25  and  C_26
REMARK                            x       y       z     vdW  Elec       q    Type
REMARK                         _______ _______ _______ _____ _____    ______ ____
ROOT
ATOM      1  O   UNL     1       2.126  11.216  18.323  0.00  0.00    +0.000 OA
ATOM      2  C   UNL     1       1.154  11.503  19.011  0.00  0.00    +0.000 C 
ATOM      3  C   UNL     1       0.422  12.795  18.745  0.00  0.00    +0.000 C 
ATOM      4  C   UNL     1       0.108  13.415  19.900  0.00  0.00    +0.000 C 
ATOM      5  C   UNL     1      -0.781  12.666  20.882  0.00  0.00    +0.000 C 
ATOM      6  O   UNL     1      -0.796  13.429  22.099  0.00  0.00    +0.000 OA
ATOM      7  C   UNL     1      -2.016  13.615  22.681  0.00  0.00    +0.000 A 
ATOM      8  C   UNL     1      -2.039  14.126  23.978  0.00  0.00    +0.000 A 
ATOM      9  C   UNL     1      -3.259  14.373  24.611  0.00  0.00    +0.000 A 
ATOM     10  C   UNL     1      -4.458  14.134  23.935  0.00  0.00    +0.000 A 
ATOM     11  C   UNL     1      -4.446  13.609  22.631  0.00  0.00    +0.000 A 
ATOM     12  C   UNL     1      -5.627  13.359  21.916  0.00  0.00    +0.000 A 
ATOM     13  C   UNL     1      -5.573  12.808  20.635  0.00  0.00    +0.000 A 
ATOM     14  C   UNL     1      -4.341  12.494  20.066  0.00  0.00    +0.000 A 
ATOM     15  C   UNL     1      -3.164  12.757  20.766  0.00  0.00    +0.000 A 
ATOM     16  C   UNL     1      -3.202  13.327  22.025  0.00  0.00    +0.000 A 
ATOM     17  O   UNL     1      -2.002  12.410  20.158  0.00  0.00    +0.000 OA
ATOM     18  C   UNL     1      -0.148  11.292  21.146  0.00  0.00    +0.000 A 
ATOM     19  C   UNL     1      -0.436  10.607  22.339  0.00  0.00    +0.000 A 
ATOM     20  C   UNL     1      -0.005   9.303  22.520  0.00  0.00    +0.000 A 
ATOM     21  C   UNL     1       0.672   8.651  21.493  0.00  0.00    +0.000 A 
ATOM     22  C   UNL     1       1.007   9.303  20.294  0.00  0.00    +0.000 A 
ATOM     23  C   UNL     1       0.656  10.663  20.155  0.00  0.00    +0.000 A 
ENDROOT
BRANCH  22  24
ATOM     24  O   UNL     1       1.605   8.641  19.238  0.00  0.00    +0.000 OA
BRANCH  24  25
ATOM     25  C   UNL     1       2.189   7.372  19.570  0.00  0.00    +0.000 C 
BRANCH  25  26
ATOM     26  C   UNL     1       2.492   6.513  18.343  0.00  0.00    +0.000 C 
BRANCH  26  27
ATOM     27  C   UNL     1       3.986   6.271  18.241  0.00  0.00    +0.000 A 
ATOM     28  C   UNL     1       4.727   6.782  17.165  0.00  0.00    +0.000 A 
ATOM     29  C   UNL     1       6.095   6.513  17.051  0.00  0.00    +0.000 A 
ATOM     30  C   UNL     1       6.734   5.724  18.003  0.00  0.00    +0.000 A 
ATOM     31  C   UNL     1       6.007   5.197  19.068  0.00  0.00    +0.000 A 
ATOM     32  C   UNL     1       4.640   5.464  19.184  0.00  0.00    +0.000 A 
ENDBRANCH  26  27
ENDBRANCH  25  26
ENDBRANCH  24  25
ENDBRANCH  22  24
TORSDOF 4
ENDMDL
