MODEL 1
REMARK VINA RESULT:      -8.6      0.000      0.000
REMARK  Name = 
REMARK  8 active torsions:
REMARK  status: ('A' for Active; 'I' for Inactive)
REMARK    1  A    between atoms: C_1  and  C_2
REMARK    2  A    between atoms: C_2  and  C_3
REMARK    3  A    between atoms: C_5  and  C_6
REMARK    4  A    between atoms: C_9  and  C_10
REMARK    5  A    between atoms: C_10  and  O_11
REMARK    6  A    between atoms: O_11  and  C_12
REMARK    7  A    between atoms: C_16  and  C_17
REMARK    8  A    between atoms: N_19  and  O_20
REMARK                            x       y       z     vdW  Elec       q    Type
REMARK                         _______ _______ _______ _____ _____    ______ ____
ROOT
ATOM      1  C   UNL     1       8.269   8.932  17.724  0.00  0.00    +0.000 C 
ENDROOT
BRANCH   1   5
ATOM      2  C   UNL     1       5.928   5.336  18.323  0.00  0.00    +0.000 A 
ATOM      3  C   UNL     1       5.485   6.342  17.453  0.00  0.00    +0.000 A 
ATOM      4  C   UNL     1       6.241   7.502  17.260  0.00  0.00    +0.000 A 
ATOM      5  C   UNL     1       7.460   7.675  17.926  0.00  0.00    +0.000 A 
ATOM      6  C   UNL     1       7.903   6.673  18.801  0.00  0.00    +0.000 A 
ATOM      7  C   UNL     1       7.146   5.514  18.993  0.00  0.00    +0.000 A 
BRANCH   2  10
ATOM      8  C   UNL     1       3.555   2.763  18.309  0.00  0.00    +0.000 A 
ATOM      9  N   UNL     1       4.048   3.831  17.729  0.00  0.00    +0.000 NA
ATOM     10  C   UNL     1       5.114   4.147  18.544  0.00  0.00    +0.000 A 
ATOM     11  N   UNL     1       5.290   3.290  19.565  0.00  0.00    +0.000 NA
ATOM     12  O   UNL     1       4.253   2.373  19.412  0.00  0.00    +0.000 OA
BRANCH   8  14
ATOM     13  C   UNL     1       1.110   2.671  18.577  0.00  0.00    +0.000 C 
ATOM     14  C   UNL     1       2.335   1.999  17.978  0.00  0.00    +0.000 C 
ENDBRANCH   8  14
ENDBRANCH   2  10
ENDBRANCH   1   5
BRANCH   1  15
ATOM     15  O   UNL     1       9.037   9.179  18.899  0.00  0.00    +0.000 OA
BRANCH  15  16
ATOM     16  C   UNL     1       9.510  10.452  19.073  0.00  0.00    +0.000 A 
ATOM     17  C   UNL     1       9.436  10.925  20.386  0.00  0.00    +0.000 A 
ATOM     18  C   UNL     1       9.875  12.211  20.708  0.00  0.00    +0.000 A 
ATOM     19  C   UNL     1      10.395  13.037  19.715  0.00  0.00    +0.000 A 
ATOM     20  C   UNL     1      10.484  12.570  18.397  0.00  0.00    +0.000 A 
ATOM     21  C   UNL     1      10.031  11.280  18.076  0.00  0.00    +0.000 A 
BRANCH  20  22
ATOM     22  C   UNL     1      11.006  13.435  17.305  0.00  0.00    +0.000 C 
ATOM     23  O   UNL     1      12.011  13.131  16.674  0.00  0.00    +0.000 OA
ATOM     24  N   UNL     1      10.310  14.598  17.063  0.00  0.00    +0.000 N 
ATOM     25  H   UNL     1       9.664  15.020  17.720  0.00  0.00    +0.000 HD
BRANCH  24  26
ATOM     26  O   UNL     1      10.856  15.452  16.078  0.00  0.00    +0.000 OA
ATOM     27  H   UNL     1      10.552  16.337  16.379  0.00  0.00    +0.000 HD
ENDBRANCH  24  26
ENDBRANCH  20  22
ENDBRANCH  15  16
ENDBRANCH   1  15
TORSDOF 7
ENDMDL
MODEL 2
REMARK VINA RESULT:      -8.2      5.431      8.006
REMARK  Name = 
REMARK  8 active torsions:
REMARK  status: ('A' for Active; 'I' for Inactive)
REMARK    1  A    between atoms: C_1  and  C_2
REMARK    2  A    between atoms: C_2  and  C_3
REMARK    3  A    between atoms: C_5  and  C_6
REMARK    4  A    between atoms: C_9  and  C_10
REMARK    5  A    between atoms: C_10  and  O_11
REMARK    6  A    between atoms: O_11  and  C_12
REMARK    7  A    between atoms: C_16  and  C_17
REMARK    8  A    between atoms: N_19  and  O_20
REMARK                            x       y       z     vdW  Elec       q    Type
REMARK                         _______ _______ _______ _____ _____    ______ ____
ROOT
ATOM      1  C   UNL     1       3.620   3.618  18.919  0.00  0.00    +0.000 C 
ENDROOT
BRANCH   1   5
ATOM      2  C   UNL     1       1.894   7.512  19.709  0.00  0.00    +0.000 A 
ATOM      3  C   UNL     1       1.848   6.499  20.676  0.00  0.00    +0.000 A 
ATOM      4  C   UNL     1       2.405   5.243  20.421  0.00  0.00    +0.000 A 
ATOM      5  C   UNL     1       3.029   4.978  19.196  0.00  0.00    +0.000 A 
ATOM      6  C   UNL     1       3.072   5.987  18.224  0.00  0.00    +0.000 A 
ATOM      7  C   UNL     1       2.514   7.243  18.481  0.00  0.00    +0.000 A 
BRANCH   2  10
ATOM      8  C   UNL     1       0.205  10.302  20.979  0.00  0.00    +0.000 A 
ATOM      9  N   UNL     1       0.694   9.103  21.185  0.00  0.00    +0.000 NA
ATOM     10  C   UNL     1       1.278   8.807  19.972  0.00  0.00    +0.000 A 
ATOM     11  N   UNL     1       1.181   9.796  19.067  0.00  0.00    +0.000 NA
ATOM     12  O   UNL     1       0.465  10.788  19.733  0.00  0.00    +0.000 OA
BRANCH   8  14
ATOM     13  C   UNL     1      -0.938  10.393  23.157  0.00  0.00    +0.000 C 
ATOM     14  C   UNL     1      -0.632  11.136  21.867  0.00  0.00    +0.000 C 
ENDBRANCH   8  14
ENDBRANCH   2  10
ENDBRANCH   1   5
BRANCH   1  15
ATOM     15  O   UNL     1       5.009   3.648  19.236  0.00  0.00    +0.000 OA
BRANCH  15  16
ATOM     16  C   UNL     1       5.820   4.366  18.399  0.00  0.00    +0.000 A 
ATOM     17  C   UNL     1       6.510   5.414  19.015  0.00  0.00    +0.000 A 
ATOM     18  C   UNL     1       7.365   6.237  18.280  0.00  0.00    +0.000 A 
ATOM     19  C   UNL     1       7.540   6.016  16.916  0.00  0.00    +0.000 A 
ATOM     20  C   UNL     1       6.863   4.963  16.290  0.00  0.00    +0.000 A 
ATOM     21  C   UNL     1       5.994   4.145  17.031  0.00  0.00    +0.000 A 
BRANCH  20  22
ATOM     22  C   UNL     1       7.002   4.715  14.829  0.00  0.00    +0.000 C 
ATOM     23  O   UNL     1       7.691   5.439  14.121  0.00  0.00    +0.000 OA
ATOM     24  N   UNL     1       6.297   3.646  14.322  0.00  0.00    +0.000 N 
ATOM     25  H   UNL     1       5.518   3.204  14.795  0.00  0.00    +0.000 HD
BRANCH  24  26
ATOM     26  O   UNL     1       6.372   3.464  12.922  0.00  0.00    +0.000 OA
ATOM     27  H   UNL     1       7.167   2.894  12.829  0.00  0.00    +0.000 HD
ENDBRANCH  24  26
ENDBRANCH  20  22
ENDBRANCH  15  16
ENDBRANCH   1  15
TORSDOF 7
ENDMDL
MODEL 3
REMARK VINA RESULT:      -8.2      0.984      1.425
REMARK  Name = 
REMARK  8 active torsions:
REMARK  status: ('A' for Active; 'I' for Inactive)
REMARK    1  A    between atoms: C_1  and  C_2
REMARK    2  A    between atoms: C_2  and  C_3
REMARK    3  A    between atoms: C_5  and  C_6
REMARK    4  A    between atoms: C_9  and  C_10
REMARK    5  A    between atoms: C_10  and  O_11
REMARK    6  A    between atoms: O_11  and  C_12
REMARK    7  A    between atoms: C_16  and  C_17
REMARK    8  A    between atoms: N_19  and  O_20
REMARK                            x       y       z     vdW  Elec       q    Type
REMARK                         _______ _______ _______ _____ _____    ______ ____
ROOT
ATOM      1  C   UNL     1       8.253   8.474  17.320  0.00  0.00    +0.000 C 
ENDROOT
BRANCH   1   5
ATOM      2  C   UNL     1       5.650   5.277  18.649  0.00  0.00    +0.000 A 
ATOM      3  C   UNL     1       6.951   5.398  19.156  0.00  0.00    +0.000 A 
ATOM      4  C   UNL     1       7.791   6.430  18.727  0.00  0.00    +0.000 A 
ATOM      5  C   UNL     1       7.341   7.367  17.788  0.00  0.00    +0.000 A 
ATOM      6  C   UNL     1       6.043   7.245  17.276  0.00  0.00    +0.000 A 
ATOM      7  C   UNL     1       5.205   6.213  17.706  0.00  0.00    +0.000 A 
BRANCH   2  10
ATOM      8  C   UNL     1       3.047   3.109  19.532  0.00  0.00    +0.000 A 
ATOM      9  N   UNL     1       3.422   4.238  18.980  0.00  0.00    +0.000 NA
ATOM     10  C   UNL     1       4.795   4.175  19.077  0.00  0.00    +0.000 A 
ATOM     11  N   UNL     1       5.249   3.040  19.635  0.00  0.00    +0.000 NA
ATOM     12  O   UNL     1       4.089   2.333  19.941  0.00  0.00    +0.000 OA
BRANCH   8  14
ATOM     13  C   UNL     1       0.810   3.760  20.326  0.00  0.00    +0.000 C 
ATOM     14  C   UNL     1       1.685   2.620  19.829  0.00  0.00    +0.000 C 
ENDBRANCH   8  14
ENDBRANCH   2  10
ENDBRANCH   1   5
BRANCH   1  15
ATOM     15  O   UNL     1       7.839   9.697  17.924  0.00  0.00    +0.000 OA
BRANCH  15  16
ATOM     16  C   UNL     1       8.823  10.490  18.452  0.00  0.00    +0.000 A 
ATOM     17  C   UNL     1       9.177  10.178  19.768  0.00  0.00    +0.000 A 
ATOM     18  C   UNL     1      10.159  10.912  20.436  0.00  0.00    +0.000 A 
ATOM     19  C   UNL     1      10.799  11.966  19.791  0.00  0.00    +0.000 A 
ATOM     20  C   UNL     1      10.461  12.281  18.469  0.00  0.00    +0.000 A 
ATOM     21  C   UNL     1       9.464  11.549  17.805  0.00  0.00    +0.000 A 
BRANCH  20  22
ATOM     22  C   UNL     1      11.102  13.420  17.758  0.00  0.00    +0.000 C 
ATOM     23  O   UNL     1      12.061  14.014  18.237  0.00  0.00    +0.000 OA
ATOM     24  N   UNL     1      10.544  13.777  16.551  0.00  0.00    +0.000 N 
ATOM     25  H   UNL     1       9.612  13.513  16.256  0.00  0.00    +0.000 HD
BRANCH  24  26
ATOM     26  O   UNL     1      11.109  14.908  15.919  0.00  0.00    +0.000 OA
ATOM     27  H   UNL     1      11.805  14.505  15.354  0.00  0.00    +0.000 HD
ENDBRANCH  24  26
ENDBRANCH  20  22
ENDBRANCH  15  16
ENDBRANCH   1  15
TORSDOF 7
ENDMDL
MODEL 4
REMARK VINA RESULT:      -8.1      6.135      8.067
REMARK  Name = 
REMARK  8 active torsions:
REMARK  status: ('A' for Active; 'I' for Inactive)
REMARK    1  A    between atoms: C_1  and  C_2
REMARK    2  A    between atoms: C_2  and  C_3
REMARK    3  A    between atoms: C_5  and  C_6
REMARK    4  A    between atoms: C_9  and  C_10
REMARK    5  A    between atoms: C_10  and  O_11
REMARK    6  A    between atoms: O_11  and  C_12
REMARK    7  A    between atoms: C_16  and  C_17
REMARK    8  A    between atoms: N_19  and  O_20
REMARK                            x       y       z     vdW  Elec       q    Type
REMARK                         _______ _______ _______ _____ _____    ______ ____
ROOT
ATOM      1  C   UNL     1       3.920   5.616  19.548  0.00  0.00    +0.000 C 
ENDROOT
BRANCH   1   5
ATOM      2  C   UNL     1       5.812   4.910  15.715  0.00  0.00    +0.000 A 
ATOM      3  C   UNL     1       6.018   6.113  16.404  0.00  0.00    +0.000 A 
ATOM      4  C   UNL     1       5.408   6.340  17.641  0.00  0.00    +0.000 A 
ATOM      5  C   UNL     1       4.586   5.364  18.217  0.00  0.00    +0.000 A 
ATOM      6  C   UNL     1       4.373   4.162  17.528  0.00  0.00    +0.000 A 
ATOM      7  C   UNL     1       4.984   3.937  16.291  0.00  0.00    +0.000 A 
BRANCH   2  10
ATOM      8  C   UNL     1       6.841   3.804  12.557  0.00  0.00    +0.000 A 
ATOM      9  N   UNL     1       5.997   3.703  13.556  0.00  0.00    +0.000 NA
ATOM     10  C   UNL     1       6.424   4.698  14.409  0.00  0.00    +0.000 A 
ATOM     11  N   UNL     1       7.468   5.404  13.940  0.00  0.00    +0.000 NA
ATOM     12  O   UNL     1       7.748   4.808  12.713  0.00  0.00    +0.000 OA
BRANCH   8  14
ATOM     13  C   UNL     1       5.959   1.824  11.392  0.00  0.00    +0.000 C 
ATOM     14  C   UNL     1       6.982   2.948  11.361  0.00  0.00    +0.000 C 
ENDBRANCH   8  14
ENDBRANCH   2  10
ENDBRANCH   1   5
BRANCH   1  15
ATOM     15  O   UNL     1       2.527   5.825  19.332  0.00  0.00    +0.000 OA
BRANCH  15  16
ATOM     16  C   UNL     1       2.089   7.122  19.322  0.00  0.00    +0.000 A 
ATOM     17  C   UNL     1       2.083   7.723  18.060  0.00  0.00    +0.000 A 
ATOM     18  C   UNL     1       1.671   9.048  17.902  0.00  0.00    +0.000 A 
ATOM     19  C   UNL     1       1.257   9.784  19.009  0.00  0.00    +0.000 A 
ATOM     20  C   UNL     1       1.248   9.189  20.276  0.00  0.00    +0.000 A 
ATOM     21  C   UNL     1       1.675   7.861  20.433  0.00  0.00    +0.000 A 
BRANCH  20  22
ATOM     22  C   UNL     1       0.841   9.954  21.486  0.00  0.00    +0.000 C 
ATOM     23  O   UNL     1       0.950  11.173  21.538  0.00  0.00    +0.000 OA
ATOM     24  N   UNL     1       0.362   9.214  22.543  0.00  0.00    +0.000 N 
ATOM     25  H   UNL     1       0.513   8.218  22.654  0.00  0.00    +0.000 HD
BRANCH  24  26
ATOM     26  O   UNL     1       0.051   9.938  23.716  0.00  0.00    +0.000 OA
ATOM     27  H   UNL     1       0.771  10.607  23.744  0.00  0.00    +0.000 HD
ENDBRANCH  24  26
ENDBRANCH  20  22
ENDBRANCH  15  16
ENDBRANCH   1  15
TORSDOF 7
ENDMDL
MODEL 5
REMARK VINA RESULT:      -8.1      5.888      8.200
REMARK  Name = 
REMARK  8 active torsions:
REMARK  status: ('A' for Active; 'I' for Inactive)
REMARK    1  A    between atoms: C_1  and  C_2
REMARK    2  A    between atoms: C_2  and  C_3
REMARK    3  A    between atoms: C_5  and  C_6
REMARK    4  A    between atoms: C_9  and  C_10
REMARK    5  A    between atoms: C_10  and  O_11
REMARK    6  A    between atoms: O_11  and  C_12
REMARK    7  A    between atoms: C_16  and  C_17
REMARK    8  A    between atoms: N_19  and  O_20
REMARK                            x       y       z     vdW  Elec       q    Type
REMARK                         _______ _______ _______ _____ _____    ______ ____
ROOT
ATOM      1  C   UNL     1       2.615   3.792  18.077  0.00  0.00    +0.000 C 
ENDROOT
BRANCH   1   5
ATOM      2  C   UNL     1       1.695   7.494  20.130  0.00  0.00    +0.000 A 
ATOM      3  C   UNL     1       1.570   6.261  20.786  0.00  0.00    +0.000 A 
ATOM      4  C   UNL     1       1.868   5.067  20.123  0.00  0.00    +0.000 A 
ATOM      5  C   UNL     1       2.305   5.083  18.793  0.00  0.00    +0.000 A 
ATOM      6  C   UNL     1       2.425   6.313  18.133  0.00  0.00    +0.000 A 
ATOM      7  C   UNL     1       2.127   7.507  18.798  0.00  0.00    +0.000 A 
BRANCH   2  10
ATOM      8  C   UNL     1       0.862  10.751  21.103  0.00  0.00    +0.000 A 
ATOM      9  N   UNL     1       1.022   9.881  20.135  0.00  0.00    +0.000 NA
ATOM     10  C   UNL     1       1.348   8.730  20.821  0.00  0.00    +0.000 A 
ATOM     11  N   UNL     1       1.357   8.878  22.157  0.00  0.00    +0.000 NA
ATOM     12  O   UNL     1       1.038  10.221  22.345  0.00  0.00    +0.000 OA
BRANCH   8  14
ATOM     13  C   UNL     1       0.594  12.659  19.570  0.00  0.00    +0.000 C 
ATOM     14  C   UNL     1       0.602  12.203  21.020  0.00  0.00    +0.000 C 
ENDBRANCH   8  14
ENDBRANCH   2  10
ENDBRANCH   1   5
BRANCH   1  15
ATOM     15  O   UNL     1       3.897   3.330  18.495  0.00  0.00    +0.000 OA
BRANCH  15  16
ATOM     16  C   UNL     1       4.988   3.943  17.938  0.00  0.00    +0.000 A 
ATOM     17  C   UNL     1       5.827   4.583  18.856  0.00  0.00    +0.000 A 
ATOM     18  C   UNL     1       6.971   5.257  18.427  0.00  0.00    +0.000 A 
ATOM     19  C   UNL     1       7.289   5.295  17.072  0.00  0.00    +0.000 A 
ATOM     20  C   UNL     1       6.462   4.649  16.145  0.00  0.00    +0.000 A 
ATOM     21  C   UNL     1       5.306   3.982  16.579  0.00  0.00    +0.000 A 
BRANCH  20  22
ATOM     22  C   UNL     1       6.754   4.695  14.686  0.00  0.00    +0.000 C 
ATOM     23  O   UNL     1       6.114   4.024  13.885  0.00  0.00    +0.000 OA
ATOM     24  N   UNL     1       7.792   5.512  14.298  0.00  0.00    +0.000 N 
ATOM     25  H   UNL     1       8.510   5.855  14.925  0.00  0.00    +0.000 HD
BRANCH  24  26
ATOM     26  O   UNL     1       8.114   5.490  12.921  0.00  0.00    +0.000 OA
ATOM     27  H   UNL     1       8.781   6.209  12.853  0.00  0.00    +0.000 HD
ENDBRANCH  24  26
ENDBRANCH  20  22
ENDBRANCH  15  16
ENDBRANCH   1  15
TORSDOF 7
ENDMDL
MODEL 6
REMARK VINA RESULT:      -8.1      6.166      8.109
REMARK  Name = 
REMARK  8 active torsions:
REMARK  status: ('A' for Active; 'I' for Inactive)
REMARK    1  A    between atoms: C_1  and  C_2
REMARK    2  A    between atoms: C_2  and  C_3
REMARK    3  A    between atoms: C_5  and  C_6
REMARK    4  A    between atoms: C_9  and  C_10
REMARK    5  A    between atoms: C_10  and  O_11
REMARK    6  A    between atoms: O_11  and  C_12
REMARK    7  A    between atoms: C_16  and  C_17
REMARK    8  A    between atoms: N_19  and  O_20
REMARK                            x       y       z     vdW  Elec       q    Type
REMARK                         _______ _______ _______ _____ _____    ______ ____
ROOT
ATOM      1  C   UNL     1       1.973   6.332  19.509  0.00  0.00    +0.000 C 
ENDROOT
BRANCH   1   5
ATOM      2  C   UNL     1       4.920   5.551  16.430  0.00  0.00    +0.000 A 
ATOM      3  C   UNL     1       4.627   6.864  16.825  0.00  0.00    +0.000 A 
ATOM      4  C   UNL     1       3.677   7.116  17.818  0.00  0.00    +0.000 A 
ATOM      5  C   UNL     1       3.006   6.057  18.444  0.00  0.00    +0.000 A 
ATOM      6  C   UNL     1       3.292   4.744  18.047  0.00  0.00    +0.000 A 
ATOM      7  C   UNL     1       4.243   4.494  17.053  0.00  0.00    +0.000 A 
BRANCH   2  10
ATOM      8  C   UNL     1       6.678   4.591  13.560  0.00  0.00    +0.000 A 
ATOM      9  N   UNL     1       5.529   4.691  14.185  0.00  0.00    +0.000 NA
ATOM     10  C   UNL     1       5.887   5.303  15.368  0.00  0.00    +0.000 A 
ATOM     11  N   UNL     1       7.196   5.595  15.454  0.00  0.00    +0.000 NA
ATOM     12  O   UNL     1       7.723   5.119  14.255  0.00  0.00    +0.000 OA
BRANCH   8  14
ATOM     13  C   UNL     1       5.998   2.807  12.005  0.00  0.00    +0.000 C 
ATOM     14  C   UNL     1       6.988   3.929  12.276  0.00  0.00    +0.000 C 
ENDBRANCH   8  14
ENDBRANCH   2  10
ENDBRANCH   1   5
BRANCH   1  15
ATOM     15  O   UNL     1       2.379   7.474  20.259  0.00  0.00    +0.000 OA
BRANCH  15  16
ATOM     16  C   UNL     1       1.444   8.456  20.446  0.00  0.00    +0.000 A 
ATOM     17  C   UNL     1       1.158   8.739  21.785  0.00  0.00    +0.000 A 
ATOM     18  C   UNL     1       0.216   9.712  22.123  0.00  0.00    +0.000 A 
ATOM     19  C   UNL     1      -0.449  10.415  21.122  0.00  0.00    +0.000 A 
ATOM     20  C   UNL     1      -0.163  10.148  19.778  0.00  0.00    +0.000 A 
ATOM     21  C   UNL     1       0.777   9.160  19.441  0.00  0.00    +0.000 A 
BRANCH  20  22
ATOM     22  C   UNL     1      -0.875  10.858  18.681  0.00  0.00    +0.000 C 
ATOM     23  O   UNL     1      -1.814  10.340  18.088  0.00  0.00    +0.000 OA
ATOM     24  N   UNL     1      -0.405  12.111  18.359  0.00  0.00    +0.000 N 
ATOM     25  H   UNL     1       0.513  12.456  18.615  0.00  0.00    +0.000 HD
BRANCH  24  26
ATOM     26  O   UNL     1      -1.035  12.747  17.265  0.00  0.00    +0.000 OA
ATOM     27  H   UNL     1      -1.473  13.515  17.695  0.00  0.00    +0.000 HD
ENDBRANCH  24  26
ENDBRANCH  20  22
ENDBRANCH  15  16
ENDBRANCH   1  15
TORSDOF 7
ENDMDL
MODEL 7
REMARK VINA RESULT:      -8.1      5.629      8.146
REMARK  Name = 
REMARK  8 active torsions:
REMARK  status: ('A' for Active; 'I' for Inactive)
REMARK    1  A    between atoms: C_1  and  C_2
REMARK    2  A    between atoms: C_2  and  C_3
REMARK    3  A    between atoms: C_5  and  C_6
REMARK    4  A    between atoms: C_9  and  C_10
REMARK    5  A    between atoms: C_10  and  O_11
REMARK    6  A    between atoms: O_11  and  C_12
REMARK    7  A    between atoms: C_16  and  C_17
REMARK    8  A    between atoms: N_19  and  O_20
REMARK                            x       y       z     vdW  Elec       q    Type
REMARK                         _______ _______ _______ _____ _____    ______ ____
ROOT
ATOM      1  C   UNL     1       3.009   3.723  18.335  0.00  0.00    +0.000 C 
ENDROOT
BRANCH   1   5
ATOM      2  C   UNL     1       1.703   7.427  20.163  0.00  0.00    +0.000 A 
ATOM      3  C   UNL     1       2.186   7.409  18.847  0.00  0.00    +0.000 A 
ATOM      4  C   UNL     1       2.607   6.214  18.258  0.00  0.00    +0.000 A 
ATOM      5  C   UNL     1       2.544   5.010  18.970  0.00  0.00    +0.000 A 
ATOM      6  C   UNL     1       2.066   5.025  20.287  0.00  0.00    +0.000 A 
ATOM      7  C   UNL     1       1.646   6.222  20.876  0.00  0.00    +0.000 A 
BRANCH   2  10
ATOM      8  C   UNL     1       0.709  10.691  20.943  0.00  0.00    +0.000 A 
ATOM      9  N   UNL     1       0.899   9.769  20.029  0.00  0.00    +0.000 NA
ATOM     10  C   UNL     1       1.300   8.685  20.780  0.00  0.00    +0.000 A 
ATOM     11  N   UNL     1       1.325   8.920  22.103  0.00  0.00    +0.000 NA
ATOM     12  O   UNL     1       0.936  10.253  22.212  0.00  0.00    +0.000 OA
BRANCH   8  14
ATOM     13  C   UNL     1      -0.891  12.266  19.934  0.00  0.00    +0.000 C 
ATOM     14  C   UNL     1       0.367  12.119  20.773  0.00  0.00    +0.000 C 
ENDBRANCH   8  14
ENDBRANCH   2  10
ENDBRANCH   1   5
BRANCH   1  15
ATOM     15  O   UNL     1       4.348   3.464  18.748  0.00  0.00    +0.000 OA
BRANCH  15  16
ATOM     16  C   UNL     1       5.339   4.153  18.102  0.00  0.00    +0.000 A 
ATOM     17  C   UNL     1       6.067   5.025  18.918  0.00  0.00    +0.000 A 
ATOM     18  C   UNL     1       7.101   5.800  18.391  0.00  0.00    +0.000 A 
ATOM     19  C   UNL     1       7.420   5.708  17.039  0.00  0.00    +0.000 A 
ATOM     20  C   UNL     1       6.705   4.830  16.214  0.00  0.00    +0.000 A 
ATOM     21  C   UNL     1       5.658   4.061  16.746  0.00  0.00    +0.000 A 
BRANCH  20  22
ATOM     22  C   UNL     1       6.998   4.727  14.759  0.00  0.00    +0.000 C 
ATOM     23  O   UNL     1       7.819   5.459  14.219  0.00  0.00    +0.000 OA
ATOM     24  N   UNL     1       6.280   3.785  14.058  0.00  0.00    +0.000 N 
ATOM     25  H   UNL     1       5.418   3.366  14.388  0.00  0.00    +0.000 HD
BRANCH  24  26
ATOM     26  O   UNL     1       6.506   3.746  12.663  0.00  0.00    +0.000 OA
ATOM     27  H   UNL     1       5.642   4.045  12.304  0.00  0.00    +0.000 HD
ENDBRANCH  24  26
ENDBRANCH  20  22
ENDBRANCH  15  16
ENDBRANCH   1  15
TORSDOF 7
ENDMDL
MODEL 8
REMARK VINA RESULT:      -8.1      5.463      8.252
REMARK  Name = 
REMARK  8 active torsions:
REMARK  status: ('A' for Active; 'I' for Inactive)
REMARK    1  A    between atoms: C_1  and  C_2
REMARK    2  A    between atoms: C_2  and  C_3
REMARK    3  A    between atoms: C_5  and  C_6
REMARK    4  A    between atoms: C_9  and  C_10
REMARK    5  A    between atoms: C_10  and  O_11
REMARK    6  A    between atoms: O_11  and  C_12
REMARK    7  A    between atoms: C_16  and  C_17
REMARK    8  A    between atoms: N_19  and  O_20
REMARK                            x       y       z     vdW  Elec       q    Type
REMARK                         _______ _______ _______ _____ _____    ______ ____
ROOT
ATOM      1  C   UNL     1       3.035   4.082  18.849  0.00  0.00    +0.000 C 
ENDROOT
BRANCH   1   5
ATOM      2  C   UNL     1       1.719   8.165  19.450  0.00  0.00    +0.000 A 
ATOM      3  C   UNL     1       2.215   7.749  18.207  0.00  0.00    +0.000 A 
ATOM      4  C   UNL     1       2.639   6.431  18.013  0.00  0.00    +0.000 A 
ATOM      5  C   UNL     1       2.567   5.501  19.058  0.00  0.00    +0.000 A 
ATOM      6  C   UNL     1       2.077   5.916  20.303  0.00  0.00    +0.000 A 
ATOM      7  C   UNL     1       1.653   7.234  20.495  0.00  0.00    +0.000 A 
BRANCH   2  10
ATOM      8  C   UNL     1       1.003  11.585  19.241  0.00  0.00    +0.000 A 
ATOM      9  N   UNL     1       1.368  10.481  18.635  0.00  0.00    +0.000 NA
ATOM     10  C   UNL     1       1.313   9.551  19.651  0.00  0.00    +0.000 A 
ATOM     11  N   UNL     1       0.901  10.055  20.827  0.00  0.00    +0.000 NA
ATOM     12  O   UNL     1       0.699  11.407  20.557  0.00  0.00    +0.000 OA
BRANCH   8  14
ATOM     13  C   UNL     1      -0.456  13.325  18.290  0.00  0.00    +0.000 C 
ATOM     14  C   UNL     1       0.958  12.967  18.720  0.00  0.00    +0.000 C 
ENDBRANCH   8  14
ENDBRANCH   2  10
ENDBRANCH   1   5
BRANCH   1  15
ATOM     15  O   UNL     1       4.351   3.949  19.380  0.00  0.00    +0.000 OA
BRANCH  15  16
ATOM     16  C   UNL     1       5.374   4.479  18.640  0.00  0.00    +0.000 A 
ATOM     17  C   UNL     1       6.232   5.321  19.353  0.00  0.00    +0.000 A 
ATOM     18  C   UNL     1       7.313   5.939  18.722  0.00  0.00    +0.000 A 
ATOM     19  C   UNL     1       7.547   5.718  17.367  0.00  0.00    +0.000 A 
ATOM     20  C   UNL     1       6.700   4.868  16.645  0.00  0.00    +0.000 A 
ATOM     21  C   UNL     1       5.607   4.258  17.281  0.00  0.00    +0.000 A 
BRANCH  20  22
ATOM     22  C   UNL     1       6.901   4.633  15.189  0.00  0.00    +0.000 C 
ATOM     23  O   UNL     1       7.598   5.377  14.511  0.00  0.00    +0.000 OA
ATOM     24  N   UNL     1       6.244   3.549  14.651  0.00  0.00    +0.000 N 
ATOM     25  H   UNL     1       5.458   3.085  15.091  0.00  0.00    +0.000 HD
BRANCH  24  26
ATOM     26  O   UNL     1       6.376   3.376  13.254  0.00  0.00    +0.000 OA
ATOM     27  H   UNL     1       5.466   3.118  12.989  0.00  0.00    +0.000 HD
ENDBRANCH  24  26
ENDBRANCH  20  22
ENDBRANCH  15  16
ENDBRANCH   1  15
TORSDOF 7
ENDMDL
MODEL 9
REMARK VINA RESULT:      -8.0      5.941      8.959
REMARK  Name = 
REMARK  8 active torsions:
REMARK  status: ('A' for Active; 'I' for Inactive)
REMARK    1  A    between atoms: C_1  and  C_2
REMARK    2  A    between atoms: C_2  and  C_3
REMARK    3  A    between atoms: C_5  and  C_6
REMARK    4  A    between atoms: C_9  and  C_10
REMARK    5  A    between atoms: C_10  and  O_11
REMARK    6  A    between atoms: O_11  and  C_12
REMARK    7  A    between atoms: C_16  and  C_17
REMARK    8  A    between atoms: N_19  and  O_20
REMARK                            x       y       z     vdW  Elec       q    Type
REMARK                         _______ _______ _______ _____ _____    ______ ____
ROOT
ATOM      1  C   UNL     1       3.115   5.836  19.601  0.00  0.00    +0.000 C 
ENDROOT
BRANCH   1   5
ATOM      2  C   UNL     1       1.033   9.584  18.986  0.00  0.00    +0.000 A 
ATOM      3  C   UNL     1       1.058   8.979  20.250  0.00  0.00    +0.000 A 
ATOM      4  C   UNL     1       1.730   7.769  20.448  0.00  0.00    +0.000 A 
ATOM      5  C   UNL     1       2.399   7.146  19.387  0.00  0.00    +0.000 A 
ATOM      6  C   UNL     1       2.370   7.746  18.121  0.00  0.00    +0.000 A 
ATOM      7  C   UNL     1       1.697   8.956  17.925  0.00  0.00    +0.000 A 
BRANCH   2  10
ATOM      8  C   UNL     1      -0.087  12.887  18.687  0.00  0.00    +0.000 A 
ATOM      9  N   UNL     1       0.917  12.058  18.839  0.00  0.00    +0.000 NA
ATOM     10  C   UNL     1       0.298  10.827  18.783  0.00  0.00    +0.000 A 
ATOM     11  N   UNL     1      -1.028  10.896  18.574  0.00  0.00    +0.000 NA
ATOM     12  O   UNL     1      -1.286  12.264  18.515  0.00  0.00    +0.000 OA
BRANCH   8  14
ATOM     13  C   UNL     1      -0.894  14.830  19.965  0.00  0.00    +0.000 C 
ATOM     14  C   UNL     1      -0.099  14.363  18.757  0.00  0.00    +0.000 C 
ENDBRANCH   8  14
ENDBRANCH   2  10
ENDBRANCH   1   5
BRANCH   1  15
ATOM     15  O   UNL     1       3.330   5.217  18.335  0.00  0.00    +0.000 OA
BRANCH  15  16
ATOM     16  C   UNL     1       4.628   5.111  17.910  0.00  0.00    +0.000 A 
ATOM     17  C   UNL     1       5.584   5.266  18.919  0.00  0.00    +0.000 A 
ATOM     18  C   UNL     1       6.947   5.192  18.628  0.00  0.00    +0.000 A 
ATOM     19  C   UNL     1       7.367   4.959  17.321  0.00  0.00    +0.000 A 
ATOM     20  C   UNL     1       6.419   4.790  16.305  0.00  0.00    +0.000 A 
ATOM     21  C   UNL     1       5.049   4.878  16.600  0.00  0.00    +0.000 A 
BRANCH  20  22
ATOM     22  C   UNL     1       6.832   4.569  14.892  0.00  0.00    +0.000 C 
ATOM     23  O   UNL     1       7.653   5.295  14.345  0.00  0.00    +0.000 OA
ATOM     24  N   UNL     1       6.223   3.523  14.236  0.00  0.00    +0.000 N 
ATOM     25  H   UNL     1       5.361   3.086  14.541  0.00  0.00    +0.000 HD
BRANCH  24  26
ATOM     26  O   UNL     1       6.561   3.367  12.872  0.00  0.00    +0.000 OA
ATOM     27  H   UNL     1       6.647   4.299  12.572  0.00  0.00    +0.000 HD
ENDBRANCH  24  26
ENDBRANCH  20  22
ENDBRANCH  15  16
ENDBRANCH   1  15
TORSDOF 7
ENDMDL
