MODEL 1
REMARK VINA RESULT:      -7.4      0.000      0.000
REMARK  Name = 
REMARK  5 active torsions:
REMARK  status: ('A' for Active; 'I' for Inactive)
REMARK    1  A    between atoms: C_1  and  O_2
REMARK    2  A    between atoms: O_2  and  C_3
REMARK    3  A    between atoms: C_9  and  C_10
REMARK    4  A    between atoms: N_11  and  C_12
REMARK    5  A    between atoms: C_22  and  O_23
REMARK                            x       y       z     vdW  Elec       q    Type
REMARK                         _______ _______ _______ _____ _____    ______ ____
ROOT
ATOM      1  C   UNL     1       1.931   8.640  19.551  0.00  0.00    +0.000 C 
ATOM      2  N   UNL     1       1.905   7.752  18.600  0.00  0.00    +0.000 NA
ENDROOT
BRANCH   2   3
ATOM      3  C   UNL     1       2.948   6.806  18.560  0.00  0.00    +0.000 A 
ATOM      4  C   UNL     1       2.963   5.769  19.524  0.00  0.00    +0.000 A 
ATOM      5  C   UNL     1       3.994   4.816  19.568  0.00  0.00    +0.000 A 
ATOM      6  C   UNL     1       4.995   4.950  18.635  0.00  0.00    +0.000 A 
ATOM      7  N   UNL     1       6.134   4.183  18.427  0.00  0.00    +0.000 N 
ATOM      8  C   UNL     1       6.868   4.749  17.369  0.00  0.00    +0.000 A 
ATOM      9  O   UNL     1       7.926   4.346  16.922  0.00  0.00    +0.000 OA
ATOM     10  N   UNL     1       6.147   5.865  16.933  0.00  0.00    +0.000 N 
ATOM     11  C   UNL     1       4.999   5.985  17.706  0.00  0.00    +0.000 A 
ATOM     12  C   UNL     1       4.005   6.926  17.645  0.00  0.00    +0.000 A 
ATOM     13  H   UNL     1       6.424   3.367  18.932  0.00  0.00    +0.000 HD
ATOM     14  H   UNL     1       6.451   6.474  16.189  0.00  0.00    +0.000 HD
ENDBRANCH   2   3
BRANCH   1  21
ATOM     15  C   UNL     1      -0.855  11.093  18.768  0.00  0.00    +0.000 A 
ATOM     16  C   UNL     1      -1.264  11.445  20.056  0.00  0.00    +0.000 A 
ATOM     17  C   UNL     1      -0.666  10.877  21.183  0.00  0.00    +0.000 A 
ATOM     18 BR   UNL     1      -1.358  11.433  22.869  0.00  0.00    +0.000 Br
ATOM     19  C   UNL     1       0.380   9.951  21.040  0.00  0.00    +0.000 A 
ATOM     20 BR   UNL     1       1.163   9.161  22.598  0.00  0.00    +0.000 Br
ATOM     21  C   UNL     1       0.822   9.611  19.743  0.00  0.00    +0.000 A 
ATOM     22  C   UNL     1       0.197  10.184  18.611  0.00  0.00    +0.000 A 
BRANCH  15  24
ATOM     23  C   UNL     1      -2.760  11.178  17.346  0.00  0.00    +0.000 C 
ATOM     24  O   UNL     1      -1.534  11.756  17.781  0.00  0.00    +0.000 OA
ENDBRANCH  15  24
BRANCH  22  25
ATOM     25  O   UNL     1       0.624   9.887  17.341  0.00  0.00    +0.000 OA
ATOM     26  H   UNL     1       0.055   9.172  16.978  0.00  0.00    +0.000 HD
ENDBRANCH  22  25
ENDBRANCH   1  21
TORSDOF 4
ENDMDL
MODEL 2
REMARK VINA RESULT:      -7.2      1.399      1.981
REMARK  Name = 
REMARK  5 active torsions:
REMARK  status: ('A' for Active; 'I' for Inactive)
REMARK    1  A    between atoms: C_1  and  O_2
REMARK    2  A    between atoms: O_2  and  C_3
REMARK    3  A    between atoms: C_9  and  C_10
REMARK    4  A    between atoms: N_11  and  C_12
REMARK    5  A    between atoms: C_22  and  O_23
REMARK                            x       y       z     vdW  Elec       q    Type
REMARK                         _______ _______ _______ _____ _____    ______ ____
ROOT
ATOM      1  C   UNL     1       1.506   8.573  19.818  0.00  0.00    +0.000 C 
ATOM      2  N   UNL     1       1.906   8.107  18.670  0.00  0.00    +0.000 NA
ENDROOT
BRANCH   2   3
ATOM      3  C   UNL     1       2.781   7.004  18.682  0.00  0.00    +0.000 A 
ATOM      4  C   UNL     1       3.837   6.963  17.738  0.00  0.00    +0.000 A 
ATOM      5  C   UNL     1       4.722   5.875  17.666  0.00  0.00    +0.000 A 
ATOM      6  C   UNL     1       4.504   4.846  18.551  0.00  0.00    +0.000 A 
ATOM      7  N   UNL     1       5.192   3.651  18.722  0.00  0.00    +0.000 N 
ATOM      8  C   UNL     1       4.557   2.911  19.736  0.00  0.00    +0.000 A 
ATOM      9  O   UNL     1       4.882   1.810  20.142  0.00  0.00    +0.000 OA
ATOM     10  N   UNL     1       3.480   3.683  20.182  0.00  0.00    +0.000 N 
ATOM     11  C   UNL     1       3.451   4.869  19.459  0.00  0.00    +0.000 A 
ATOM     12  C   UNL     1       2.574   5.918  19.546  0.00  0.00    +0.000 A 
ATOM     13  H   UNL     1       5.999   3.331  18.221  0.00  0.00    +0.000 HD
ATOM     14  H   UNL     1       2.837   3.387  20.900  0.00  0.00    +0.000 HD
ENDBRANCH   2   3
BRANCH   1  21
ATOM     15  C   UNL     1      -0.992  11.235  18.788  0.00  0.00    +0.000 A 
ATOM     16  C   UNL     1      -1.392  11.717  20.036  0.00  0.00    +0.000 A 
ATOM     17  C   UNL     1      -0.881  11.172  21.216  0.00  0.00    +0.000 A 
ATOM     18 BR   UNL     1      -1.550  11.914  22.839  0.00  0.00    +0.000 Br
ATOM     19  C   UNL     1       0.067  10.137  21.168  0.00  0.00    +0.000 A 
ATOM     20 BR   UNL     1       0.728   9.384  22.798  0.00  0.00    +0.000 Br
ATOM     21  C   UNL     1       0.500   9.662  19.911  0.00  0.00    +0.000 A 
ATOM     22  C   UNL     1      -0.037  10.215  18.724  0.00  0.00    +0.000 A 
BRANCH  15  24
ATOM     23  C   UNL     1      -2.900  11.498  17.391  0.00  0.00    +0.000 C 
ATOM     24  O   UNL     1      -1.576  11.892  17.739  0.00  0.00    +0.000 OA
ENDBRANCH  15  24
BRANCH  22  25
ATOM     25  O   UNL     1       0.385   9.786  17.491  0.00  0.00    +0.000 OA
ATOM     26  H   UNL     1      -0.313   9.215  17.100  0.00  0.00    +0.000 HD
ENDBRANCH  22  25
ENDBRANCH   1  21
TORSDOF 4
ENDMDL
MODEL 3
REMARK VINA RESULT:      -7.2      3.320      8.102
REMARK  Name = 
REMARK  5 active torsions:
REMARK  status: ('A' for Active; 'I' for Inactive)
REMARK    1  A    between atoms: C_1  and  O_2
REMARK    2  A    between atoms: O_2  and  C_3
REMARK    3  A    between atoms: C_9  and  C_10
REMARK    4  A    between atoms: N_11  and  C_12
REMARK    5  A    between atoms: C_22  and  O_23
REMARK                            x       y       z     vdW  Elec       q    Type
REMARK                         _______ _______ _______ _____ _____    ______ ____
ROOT
ATOM      1  C   UNL     1       2.469   6.993  18.952  0.00  0.00    +0.000 C 
ATOM      2  N   UNL     1       2.094   8.020  18.246  0.00  0.00    +0.000 NA
ENDROOT
BRANCH   2   3
ATOM      3  C   UNL     1       1.519   9.108  18.931  0.00  0.00    +0.000 A 
ATOM      4  C   UNL     1       1.590  10.396  18.345  0.00  0.00    +0.000 A 
ATOM      5  C   UNL     1       1.074  11.531  18.991  0.00  0.00    +0.000 A 
ATOM      6  C   UNL     1       0.508  11.330  20.227  0.00  0.00    +0.000 A 
ATOM      7  N   UNL     1      -0.075  12.237  21.103  0.00  0.00    +0.000 N 
ATOM      8  C   UNL     1      -0.476  11.547  22.261  0.00  0.00    +0.000 A 
ATOM      9  O   UNL     1      -1.012  12.027  23.243  0.00  0.00    +0.000 OA
ATOM     10  N   UNL     1      -0.135  10.205  22.066  0.00  0.00    +0.000 N 
ATOM     11  C   UNL     1       0.463  10.073  20.819  0.00  0.00    +0.000 A 
ATOM     12  C   UNL     1       0.961   8.952  20.209  0.00  0.00    +0.000 A 
ATOM     13  H   UNL     1      -0.197  13.224  20.973  0.00  0.00    +0.000 HD
ATOM     14  H   UNL     1      -0.294   9.481  22.750  0.00  0.00    +0.000 HD
ENDBRANCH   2   3
BRANCH   1  21
ATOM     15  C   UNL     1       4.892   5.018  16.802  0.00  0.00    +0.000 A 
ATOM     16  C   UNL     1       4.549   3.711  17.152  0.00  0.00    +0.000 A 
ATOM     17  C   UNL     1       3.555   3.456  18.100  0.00  0.00    +0.000 A 
ATOM     18 BR   UNL     1       3.225   1.621  18.495  0.00  0.00    +0.000 Br
ATOM     19  C   UNL     1       2.864   4.518  18.706  0.00  0.00    +0.000 A 
ATOM     20 BR   UNL     1       1.529   4.145  20.026  0.00  0.00    +0.000 Br
ATOM     21  C   UNL     1       3.183   5.843  18.337  0.00  0.00    +0.000 A 
ATOM     22  C   UNL     1       4.201   6.085  17.386  0.00  0.00    +0.000 A 
BRANCH  15  24
ATOM     23  C   UNL     1       7.155   4.586  16.208  0.00  0.00    +0.000 C 
ATOM     24  O   UNL     1       5.871   5.086  15.847  0.00  0.00    +0.000 OA
ENDBRANCH  15  24
BRANCH  22  25
ATOM     25  O   UNL     1       4.513   7.363  16.994  0.00  0.00    +0.000 OA
ATOM     26  H   UNL     1       5.396   7.597  17.358  0.00  0.00    +0.000 HD
ENDBRANCH  22  25
ENDBRANCH   1  21
TORSDOF 4
ENDMDL
MODEL 4
REMARK VINA RESULT:      -7.0      3.911      8.374
REMARK  Name = 
REMARK  5 active torsions:
REMARK  status: ('A' for Active; 'I' for Inactive)
REMARK    1  A    between atoms: C_1  and  O_2
REMARK    2  A    between atoms: O_2  and  C_3
REMARK    3  A    between atoms: C_9  and  C_10
REMARK    4  A    between atoms: N_11  and  C_12
REMARK    5  A    between atoms: C_22  and  O_23
REMARK                            x       y       z     vdW  Elec       q    Type
REMARK                         _______ _______ _______ _____ _____    ______ ____
ROOT
ATOM      1  C   UNL     1       2.546   6.867  18.393  0.00  0.00    +0.000 C 
ATOM      2  N   UNL     1       2.333   7.066  19.662  0.00  0.00    +0.000 NA
ENDROOT
BRANCH   2   3
ATOM      3  C   UNL     1       1.584   8.201  20.028  0.00  0.00    +0.000 A 
ATOM      4  C   UNL     1       1.368   9.215  19.061  0.00  0.00    +0.000 A 
ATOM      5  C   UNL     1       0.666  10.391  19.369  0.00  0.00    +0.000 A 
ATOM      6  C   UNL     1       0.210  10.515  20.660  0.00  0.00    +0.000 A 
ATOM      7  N   UNL     1      -0.501  11.544  21.264  0.00  0.00    +0.000 N 
ATOM      8  C   UNL     1      -0.700  11.217  22.618  0.00  0.00    +0.000 A 
ATOM      9  O   UNL     1      -1.275  11.893  23.451  0.00  0.00    +0.000 OA
ATOM     10  N   UNL     1      -0.107   9.967  22.819  0.00  0.00    +0.000 N 
ATOM     11  C   UNL     1       0.446   9.536  21.619  0.00  0.00    +0.000 A 
ATOM     12  C   UNL     1       1.130   8.382  21.343  0.00  0.00    +0.000 A 
ATOM     13  H   UNL     1      -0.824  12.396  20.844  0.00  0.00    +0.000 HD
ATOM     14  H   UNL     1      -0.085   9.493  23.709  0.00  0.00    +0.000 HD
ENDBRANCH   2   3
BRANCH   1  21
ATOM     15  C   UNL     1       3.254   3.215  17.648  0.00  0.00    +0.000 A 
ATOM     16  C   UNL     1       4.484   3.314  16.994  0.00  0.00    +0.000 A 
ATOM     17  C   UNL     1       5.081   4.556  16.765  0.00  0.00    +0.000 A 
ATOM     18 BR   UNL     1       6.742   4.529  15.831  0.00  0.00    +0.000 Br
ATOM     19  C   UNL     1       4.460   5.735  17.212  0.00  0.00    +0.000 A 
ATOM     20 BR   UNL     1       5.280   7.428  16.858  0.00  0.00    +0.000 Br
ATOM     21  C   UNL     1       3.231   5.643  17.900  0.00  0.00    +0.000 A 
ATOM     22  C   UNL     1       2.632   4.379  18.111  0.00  0.00    +0.000 A 
BRANCH  15  24
ATOM     23  C   UNL     1       3.604   1.086  18.650  0.00  0.00    +0.000 C 
ATOM     24  O   UNL     1       2.824   1.925  17.803  0.00  0.00    +0.000 OA
ENDBRANCH  15  24
BRANCH  22  25
ATOM     25  O   UNL     1       1.449   4.263  18.798  0.00  0.00    +0.000 OA
ATOM     26  H   UNL     1       1.547   3.556  19.474  0.00  0.00    +0.000 HD
ENDBRANCH  22  25
ENDBRANCH   1  21
TORSDOF 4
ENDMDL
MODEL 5
REMARK VINA RESULT:      -6.9      3.190      8.057
REMARK  Name = 
REMARK  5 active torsions:
REMARK  status: ('A' for Active; 'I' for Inactive)
REMARK    1  A    between atoms: C_1  and  O_2
REMARK    2  A    between atoms: O_2  and  C_3
REMARK    3  A    between atoms: C_9  and  C_10
REMARK    4  A    between atoms: N_11  and  C_12
REMARK    5  A    between atoms: C_22  and  O_23
REMARK                            x       y       z     vdW  Elec       q    Type
REMARK                         _______ _______ _______ _____ _____    ______ ____
ROOT
ATOM      1  C   UNL     1       2.585   7.012  18.867  0.00  0.00    +0.000 C 
ATOM      2  N   UNL     1       2.087   7.959  18.127  0.00  0.00    +0.000 NA
ENDROOT
BRANCH   2   3
ATOM      3  C   UNL     1       1.532   9.076  18.781  0.00  0.00    +0.000 A 
ATOM      4  C   UNL     1       1.145   8.948  20.138  0.00  0.00    +0.000 A 
ATOM      5  C   UNL     1       0.549  10.008  20.840  0.00  0.00    +0.000 A 
ATOM      6  C   UNL     1       0.347  11.172  20.138  0.00  0.00    +0.000 A 
ATOM      7  N   UNL     1      -0.214  12.377  20.544  0.00  0.00    +0.000 N 
ATOM      8  C   UNL     1      -0.230  13.256  19.447  0.00  0.00    +0.000 A 
ATOM      9  O   UNL     1      -0.661  14.395  19.435  0.00  0.00    +0.000 OA
ATOM     10  N   UNL     1       0.342  12.566  18.373  0.00  0.00    +0.000 N 
ATOM     11  C   UNL     1       0.698  11.293  18.798  0.00  0.00    +0.000 A 
ATOM     12  C   UNL     1       1.280  10.273  18.093  0.00  0.00    +0.000 A 
ATOM     13  H   UNL     1      -0.570  12.612  21.452  0.00  0.00    +0.000 HD
ATOM     14  H   UNL     1       0.444  12.955  17.447  0.00  0.00    +0.000 HD
ENDBRANCH   2   3
BRANCH   1  21
ATOM     15  C   UNL     1       5.007   4.980  16.769  0.00  0.00    +0.000 A 
ATOM     16  C   UNL     1       4.636   3.681  17.125  0.00  0.00    +0.000 A 
ATOM     17  C   UNL     1       3.624   3.450  18.060  0.00  0.00    +0.000 A 
ATOM     18 BR   UNL     1       3.257   1.625  18.464  0.00  0.00    +0.000 Br
ATOM     19  C   UNL     1       2.942   4.529  18.647  0.00  0.00    +0.000 A 
ATOM     20 BR   UNL     1       1.581   4.190  19.950  0.00  0.00    +0.000 Br
ATOM     21  C   UNL     1       3.289   5.845  18.273  0.00  0.00    +0.000 A 
ATOM     22  C   UNL     1       4.325   6.063  17.335  0.00  0.00    +0.000 A 
BRANCH  15  24
ATOM     23  C   UNL     1       6.117   3.897  14.965  0.00  0.00    +0.000 C 
ATOM     24  O   UNL     1       6.001   5.023  15.829  0.00  0.00    +0.000 OA
ENDBRANCH  15  24
BRANCH  22  25
ATOM     25  O   UNL     1       4.664   7.332  16.938  0.00  0.00    +0.000 OA
ATOM     26  H   UNL     1       5.490   7.596  17.402  0.00  0.00    +0.000 HD
ENDBRANCH  22  25
ENDBRANCH   1  21
TORSDOF 4
ENDMDL
MODEL 6
REMARK VINA RESULT:      -6.9      1.700      2.277
REMARK  Name = 
REMARK  5 active torsions:
REMARK  status: ('A' for Active; 'I' for Inactive)
REMARK    1  A    between atoms: C_1  and  O_2
REMARK    2  A    between atoms: O_2  and  C_3
REMARK    3  A    between atoms: C_9  and  C_10
REMARK    4  A    between atoms: N_11  and  C_12
REMARK    5  A    between atoms: C_22  and  O_23
REMARK                            x       y       z     vdW  Elec       q    Type
REMARK                         _______ _______ _______ _____ _____    ______ ____
ROOT
ATOM      1  C   UNL     1       1.737   8.985  19.854  0.00  0.00    +0.000 C 
ATOM      2  N   UNL     1       1.813   8.332  18.730  0.00  0.00    +0.000 NA
ENDROOT
BRANCH   2   3
ATOM      3  C   UNL     1       2.657   7.205  18.686  0.00  0.00    +0.000 A 
ATOM      4  C   UNL     1       3.655   7.141  17.683  0.00  0.00    +0.000 A 
ATOM      5  C   UNL     1       4.504   6.030  17.555  0.00  0.00    +0.000 A 
ATOM      6  C   UNL     1       4.308   5.001  18.445  0.00  0.00    +0.000 A 
ATOM      7  N   UNL     1       4.971   3.787  18.571  0.00  0.00    +0.000 N 
ATOM      8  C   UNL     1       4.375   3.057  19.615  0.00  0.00    +0.000 A 
ATOM      9  O   UNL     1       4.692   1.945  19.996  0.00  0.00    +0.000 OA
ATOM     10  N   UNL     1       3.347   3.856  20.126  0.00  0.00    +0.000 N 
ATOM     11  C   UNL     1       3.310   5.047  19.412  0.00  0.00    +0.000 A 
ATOM     12  C   UNL     1       2.469   6.119  19.555  0.00  0.00    +0.000 A 
ATOM     13  H   UNL     1       5.739   3.448  18.022  0.00  0.00    +0.000 HD
ATOM     14  H   UNL     1       2.738   3.572  20.878  0.00  0.00    +0.000 HD
ENDBRANCH   2   3
BRANCH   1  21
ATOM     15  C   UNL     1      -0.264  12.126  19.130  0.00  0.00    +0.000 A 
ATOM     16  C   UNL     1      -0.962  12.275  20.330  0.00  0.00    +0.000 A 
ATOM     17  C   UNL     1      -0.815  11.353  21.369  0.00  0.00    +0.000 A 
ATOM     18 BR   UNL     1      -1.860  11.674  22.929  0.00  0.00    +0.000 Br
ATOM     19  C   UNL     1       0.062  10.264  21.232  0.00  0.00    +0.000 A 
ATOM     20 BR   UNL     1       0.223   8.995  22.656  0.00  0.00    +0.000 Br
ATOM     21  C   UNL     1       0.795  10.121  20.034  0.00  0.00    +0.000 A 
ATOM     22  C   UNL     1       0.624  11.054  18.986  0.00  0.00    +0.000 A 
BRANCH  15  24
ATOM     23  C   UNL     1      -0.153  14.447  18.621  0.00  0.00    +0.000 C 
ATOM     24  O   UNL     1      -0.512  13.126  18.229  0.00  0.00    +0.000 OA
ENDBRANCH  15  24
BRANCH  22  25
ATOM     25  O   UNL     1       1.343  10.950  17.821  0.00  0.00    +0.000 OA
ATOM     26  H   UNL     1       0.789  10.492  17.150  0.00  0.00    +0.000 HD
ENDBRANCH  22  25
ENDBRANCH   1  21
TORSDOF 4
ENDMDL
MODEL 7
REMARK VINA RESULT:      -6.9      3.358      8.081
REMARK  Name = 
REMARK  5 active torsions:
REMARK  status: ('A' for Active; 'I' for Inactive)
REMARK    1  A    between atoms: C_1  and  O_2
REMARK    2  A    between atoms: O_2  and  C_3
REMARK    3  A    between atoms: C_9  and  C_10
REMARK    4  A    between atoms: N_11  and  C_12
REMARK    5  A    between atoms: C_22  and  O_23
REMARK                            x       y       z     vdW  Elec       q    Type
REMARK                         _______ _______ _______ _____ _____    ______ ____
ROOT
ATOM      1  C   UNL     1       2.234   6.836  19.775  0.00  0.00    +0.000 C 
ATOM      2  N   UNL     1       1.773   7.958  19.303  0.00  0.00    +0.000 NA
ENDROOT
BRANCH   2   3
ATOM      3  C   UNL     1       1.174   8.852  20.211  0.00  0.00    +0.000 A 
ATOM      4  C   UNL     1       1.176   8.525  21.590  0.00  0.00    +0.000 A 
ATOM      5  C   UNL     1       0.561   9.350  22.546  0.00  0.00    +0.000 A 
ATOM      6  C   UNL     1      -0.054  10.484  22.074  0.00  0.00    +0.000 A 
ATOM      7  N   UNL     1      -0.741  11.481  22.756  0.00  0.00    +0.000 N 
ATOM      8  C   UNL     1      -1.219  12.416  21.821  0.00  0.00    +0.000 A 
ATOM      9  O   UNL     1      -1.873  13.414  22.062  0.00  0.00    +0.000 OA
ATOM     10  N   UNL     1      -0.801  11.974  20.562  0.00  0.00    +0.000 N 
ATOM     11  C   UNL     1      -0.084  10.794  20.718  0.00  0.00    +0.000 A 
ATOM     12  C   UNL     1       0.507  10.004  19.768  0.00  0.00    +0.000 A 
ATOM     13  H   UNL     1      -0.900  11.550  23.744  0.00  0.00    +0.000 HD
ATOM     14  H   UNL     1      -1.019  12.449  19.700  0.00  0.00    +0.000 HD
ENDBRANCH   2   3
BRANCH   1  21
ATOM     15  C   UNL     1       4.573   5.484  17.112  0.00  0.00    +0.000 A 
ATOM     16  C   UNL     1       4.396   4.109  17.280  0.00  0.00    +0.000 A 
ATOM     17  C   UNL     1       3.544   3.608  18.267  0.00  0.00    +0.000 A 
ATOM     18 BR   UNL     1       3.435   1.710  18.394  0.00  0.00    +0.000 Br
ATOM     19  C   UNL     1       2.829   4.485  19.099  0.00  0.00    +0.000 A 
ATOM     20 BR   UNL     1       1.693   3.775  20.466  0.00  0.00    +0.000 Br
ATOM     21  C   UNL     1       2.979   5.877  18.918  0.00  0.00    +0.000 A 
ATOM     22  C   UNL     1       3.856   6.369  17.924  0.00  0.00    +0.000 A 
BRANCH  15  24
ATOM     23  C   UNL     1       5.562   4.842  15.045  0.00  0.00    +0.000 C 
ATOM     24  O   UNL     1       5.427   5.801  16.090  0.00  0.00    +0.000 OA
ENDBRANCH  15  24
BRANCH  22  25
ATOM     25  O   UNL     1       4.000   7.718  17.713  0.00  0.00    +0.000 OA
ATOM     26  H   UNL     1       4.816   7.868  17.185  0.00  0.00    +0.000 HD
ENDBRANCH  22  25
ENDBRANCH   1  21
TORSDOF 4
ENDMDL
MODEL 8
REMARK VINA RESULT:      -6.9      2.990      3.535
REMARK  Name = 
REMARK  5 active torsions:
REMARK  status: ('A' for Active; 'I' for Inactive)
REMARK    1  A    between atoms: C_1  and  O_2
REMARK    2  A    between atoms: O_2  and  C_3
REMARK    3  A    between atoms: C_9  and  C_10
REMARK    4  A    between atoms: N_11  and  C_12
REMARK    5  A    between atoms: C_22  and  O_23
REMARK                            x       y       z     vdW  Elec       q    Type
REMARK                         _______ _______ _______ _____ _____    ______ ____
ROOT
ATOM      1  C   UNL     1       1.192   8.866  19.703  0.00  0.00    +0.000 C 
ATOM      2  N   UNL     1       1.694   7.881  20.389  0.00  0.00    +0.000 NA
ENDROOT
BRANCH   2   3
ATOM      3  C   UNL     1       2.277   6.817  19.674  0.00  0.00    +0.000 A 
ATOM      4  C   UNL     1       2.933   7.098  18.450  0.00  0.00    +0.000 A 
ATOM      5  C   UNL     1       3.501   6.082  17.665  0.00  0.00    +0.000 A 
ATOM      6  C   UNL     1       3.376   4.797  18.139  0.00  0.00    +0.000 A 
ATOM      7  N   UNL     1       3.820   3.596  17.600  0.00  0.00    +0.000 N 
ATOM      8  C   UNL     1       3.414   2.548  18.446  0.00  0.00    +0.000 A 
ATOM      9  O   UNL     1       3.618   1.360  18.279  0.00  0.00    +0.000 OA
ATOM     10  N   UNL     1       2.726   3.138  19.512  0.00  0.00    +0.000 N 
ATOM     11  C   UNL     1       2.708   4.514  19.326  0.00  0.00    +0.000 A 
ATOM     12  C   UNL     1       2.145   5.489  20.106  0.00  0.00    +0.000 A 
ATOM     13  H   UNL     1       4.334   3.459  16.750  0.00  0.00    +0.000 HD
ATOM     14  H   UNL     1       2.307   2.615  20.266  0.00  0.00    +0.000 HD
ENDBRANCH   2   3
BRANCH   1  21
ATOM     15  C   UNL     1      -0.655  11.079  22.170  0.00  0.00    +0.000 A 
ATOM     16  C   UNL     1      -0.388  12.343  21.640  0.00  0.00    +0.000 A 
ATOM     17  C   UNL     1       0.408  12.494  20.502  0.00  0.00    +0.000 A 
ATOM     18 BR   UNL     1       0.707  14.284  19.921  0.00  0.00    +0.000 Br
ATOM     19  C   UNL     1       0.940  11.367  19.854  0.00  0.00    +0.000 A 
ATOM     20 BR   UNL     1       2.055  11.601  18.316  0.00  0.00    +0.000 Br
ATOM     21  C   UNL     1       0.652  10.083  20.365  0.00  0.00    +0.000 A 
ATOM     22  C   UNL     1      -0.144   9.947  21.526  0.00  0.00    +0.000 A 
BRANCH  15  24
ATOM     23  C   UNL     1      -2.578  11.997  23.227  0.00  0.00    +0.000 C 
ATOM     24  O   UNL     1      -1.464  11.111  23.274  0.00  0.00    +0.000 OA
ENDBRANCH  15  24
BRANCH  22  25
ATOM     25  O   UNL     1      -0.456   8.708  22.028  0.00  0.00    +0.000 OA
ATOM     26  H   UNL     1      -0.989   8.223  21.358  0.00  0.00    +0.000 HD
ENDBRANCH  22  25
ENDBRANCH   1  21
TORSDOF 4
ENDMDL
MODEL 9
REMARK VINA RESULT:      -6.9      2.828      8.073
REMARK  Name = 
REMARK  5 active torsions:
REMARK  status: ('A' for Active; 'I' for Inactive)
REMARK    1  A    between atoms: C_1  and  O_2
REMARK    2  A    between atoms: O_2  and  C_3
REMARK    3  A    between atoms: C_9  and  C_10
REMARK    4  A    between atoms: N_11  and  C_12
REMARK    5  A    between atoms: C_22  and  O_23
REMARK                            x       y       z     vdW  Elec       q    Type
REMARK                         _______ _______ _______ _____ _____    ______ ____
ROOT
ATOM      1  C   UNL     1       2.271   6.974  18.317  0.00  0.00    +0.000 C 
ATOM      2  N   UNL     1       2.415   8.125  18.909  0.00  0.00    +0.000 NA
ENDROOT
BRANCH   2   3
ATOM      3  C   UNL     1       1.297   8.980  18.955  0.00  0.00    +0.000 A 
ATOM      4  C   UNL     1       0.925   9.549  20.198  0.00  0.00    +0.000 A 
ATOM      5  C   UNL     1      -0.202  10.377  20.325  0.00  0.00    +0.000 A 
ATOM      6  C   UNL     1      -0.934  10.597  19.182  0.00  0.00    +0.000 A 
ATOM      7  N   UNL     1      -2.083  11.352  18.986  0.00  0.00    +0.000 N 
ATOM      8  C   UNL     1      -2.473  11.234  17.640  0.00  0.00    +0.000 A 
ATOM      9  O   UNL     1      -3.442  11.752  17.117  0.00  0.00    +0.000 OA
ATOM     10  N   UNL     1      -1.533  10.402  17.023  0.00  0.00    +0.000 N 
ATOM     11  C   UNL     1      -0.590  10.017  17.966  0.00  0.00    +0.000 A 
ATOM     12  C   UNL     1       0.504   9.204  17.820  0.00  0.00    +0.000 A 
ATOM     13  H   UNL     1      -2.584  11.893  19.666  0.00  0.00    +0.000 HD
ATOM     14  H   UNL     1      -1.577  10.131  16.052  0.00  0.00    +0.000 HD
ENDBRANCH   2   3
BRANCH   1  21
ATOM     15  C   UNL     1       5.522   5.216  17.461  0.00  0.00    +0.000 A 
ATOM     16  C   UNL     1       5.422   4.075  18.260  0.00  0.00    +0.000 A 
ATOM     17  C   UNL     1       4.322   3.876  19.098  0.00  0.00    +0.000 A 
ATOM     18 BR   UNL     1       4.347   2.289  20.151  0.00  0.00    +0.000 Br
ATOM     19  C   UNL     1       3.280   4.817  19.136  0.00  0.00    +0.000 A 
ATOM     20 BR   UNL     1       1.799   4.540  20.316  0.00  0.00    +0.000 Br
ATOM     21  C   UNL     1       3.357   5.960  18.310  0.00  0.00    +0.000 A 
ATOM     22  C   UNL     1       4.484   6.154  17.477  0.00  0.00    +0.000 A 
BRANCH  15  24
ATOM     23  C   UNL     1       6.618   4.501  15.475  0.00  0.00    +0.000 C 
ATOM     24  O   UNL     1       6.653   5.242  16.690  0.00  0.00    +0.000 OA
ENDBRANCH  15  24
BRANCH  22  25
ATOM     25  O   UNL     1       4.571   7.244  16.648  0.00  0.00    +0.000 OA
ATOM     26  H   UNL     1       5.515   7.509  16.576  0.00  0.00    +0.000 HD
ENDBRANCH  22  25
ENDBRANCH   1  21
TORSDOF 4
ENDMDL
