MODEL 1
REMARK VINA RESULT:      -7.6      0.000      0.000
REMARK  Name = 
REMARK  5 active torsions:
REMARK  status: ('A' for Active; 'I' for Inactive)
REMARK    1  A    between atoms: C_1  and  O_2
REMARK    2  A    between atoms: O_2  and  C_3
REMARK    3  A    between atoms: C_6  and  O_7
REMARK    4  A    between atoms: O_7  and  C_8
REMARK    5  A    between atoms: C_9  and  N_10
REMARK                            x       y       z     vdW  Elec       q    Type
REMARK                         _______ _______ _______ _____ _____    ______ ____
ROOT
ATOM      1  N   UNL     1       4.383   3.762  16.895  0.00  0.00    +0.000 N 
ATOM      2  C   UNL     1       3.656   4.610  17.693  0.00  0.00    +0.000 C 
ATOM      3  N   UNL     1       3.480   5.871  17.491  0.00  0.00    +0.000 NA
ATOM      4  C   UNL     1       2.810   6.597  18.412  0.00  0.00    +0.000 C 
ATOM      5  N   UNL     1       2.731   7.925  18.143  0.00  0.00    +0.000 N 
ATOM      6  N   UNL     1       2.305   6.146  19.499  0.00  0.00    +0.000 NA
ATOM      7  C   UNL     1       2.344   4.703  19.704  0.00  0.00    +0.000 C 
ATOM      8  C   UNL     1       2.884   4.451  21.130  0.00  0.00    +0.000 C 
ATOM      9  C   UNL     1       2.707   3.002  21.587  0.00  0.00    +0.000 C 
ATOM     10  C   UNL     1       1.260   2.536  21.458  0.00  0.00    +0.000 C 
ATOM     11  C   UNL     1       0.701   2.764  20.058  0.00  0.00    +0.000 C 
ATOM     12  C   UNL     1       0.887   4.209  19.600  0.00  0.00    +0.000 C 
ATOM     13  N   UNL     1       3.170   3.981  18.778  0.00  0.00    +0.000 N 
ATOM     14  H   UNL     1       4.342   2.792  17.133  0.00  0.00    +0.000 HD
ATOM     15  H   UNL     1       3.457   8.222  17.512  0.00  0.00    +0.000 HD
ATOM     16  H   UNL     1       2.647   8.478  18.984  0.00  0.00    +0.000 HD
ATOM     17  H   UNL     1       3.158   2.978  18.835  0.00  0.00    +0.000 HD
ENDROOT
BRANCH   1  22
ATOM     18  C   UNL     1       6.255   4.010  13.658  0.00  0.00    +0.000 A 
ATOM     19  C   UNL     1       7.372   4.733  14.048  0.00  0.00    +0.000 A 
ATOM     20  C   UNL     1       7.529   5.114  15.383  0.00  0.00    +0.000 A 
ATOM     21  C   UNL     1       6.557   4.798  16.347  0.00  0.00    +0.000 A 
ATOM     22  C   UNL     1       5.401   4.083  15.970  0.00  0.00    +0.000 A 
ATOM     23  C   UNL     1       5.288   3.702  14.614  0.00  0.00    +0.000 A 
BRANCH  18  25
ATOM     24  C   UNL     1       4.957   3.236  11.820  0.00  0.00    +0.000 C 
ATOM     25  O   UNL     1       6.219   3.643  12.338  0.00  0.00    +0.000 OA
ENDBRANCH  18  25
BRANCH  21  26
ATOM     26  O   UNL     1       6.943   5.137  17.620  0.00  0.00    +0.000 OA
ATOM     27  C   UNL     1       7.352   6.470  17.884  0.00  0.00    +0.000 C 
ENDBRANCH  21  26
ENDBRANCH   1  22
TORSDOF 3
ENDMDL
MODEL 2
REMARK VINA RESULT:      -7.0      3.916      7.079
REMARK  Name = 
REMARK  5 active torsions:
REMARK  status: ('A' for Active; 'I' for Inactive)
REMARK    1  A    between atoms: C_1  and  O_2
REMARK    2  A    between atoms: O_2  and  C_3
REMARK    3  A    between atoms: C_6  and  O_7
REMARK    4  A    between atoms: O_7  and  C_8
REMARK    5  A    between atoms: C_9  and  N_10
REMARK                            x       y       z     vdW  Elec       q    Type
REMARK                         _______ _______ _______ _____ _____    ______ ____
ROOT
ATOM      1  N   UNL     1       2.595   8.252  18.266  0.00  0.00    +0.000 N 
ATOM      2  C   UNL     1       2.814   6.902  18.159  0.00  0.00    +0.000 C 
ATOM      3  N   UNL     1       1.904   5.994  18.068  0.00  0.00    +0.000 NA
ATOM      4  C   UNL     1       2.271   4.694  18.055  0.00  0.00    +0.000 C 
ATOM      5  N   UNL     1       1.240   3.812  18.020  0.00  0.00    +0.000 N 
ATOM      6  N   UNL     1       3.472   4.253  18.117  0.00  0.00    +0.000 NA
ATOM      7  C   UNL     1       4.546   5.237  18.070  0.00  0.00    +0.000 C 
ATOM      8  C   UNL     1       5.525   4.911  19.220  0.00  0.00    +0.000 C 
ATOM      9  C   UNL     1       6.845   5.678  19.115  0.00  0.00    +0.000 C 
ATOM     10  C   UNL     1       7.511   5.485  17.756  0.00  0.00    +0.000 C 
ATOM     11  C   UNL     1       6.571   5.808  16.600  0.00  0.00    +0.000 C 
ATOM     12  C   UNL     1       5.251   5.047  16.711  0.00  0.00    +0.000 C 
ATOM     13  N   UNL     1       4.125   6.603  18.213  0.00  0.00    +0.000 N 
ATOM     14  H   UNL     1       3.408   8.834  18.229  0.00  0.00    +0.000 HD
ATOM     15  H   UNL     1       0.385   4.223  18.359  0.00  0.00    +0.000 HD
ATOM     16  H   UNL     1       1.482   2.928  18.446  0.00  0.00    +0.000 HD
ATOM     17  H   UNL     1       4.826   7.315  18.104  0.00  0.00    +0.000 HD
ENDROOT
BRANCH   1  22
ATOM     18  C   UNL     1      -0.596  10.214  18.164  0.00  0.00    +0.000 A 
ATOM     19  C   UNL     1      -0.942  10.235  19.507  0.00  0.00    +0.000 A 
ATOM     20  C   UNL     1      -0.109   9.634  20.454  0.00  0.00    +0.000 A 
ATOM     21  C   UNL     1       1.072   8.976  20.069  0.00  0.00    +0.000 A 
ATOM     22  C   UNL     1       1.432   8.921  18.707  0.00  0.00    +0.000 A 
ATOM     23  C   UNL     1       0.573   9.556  17.783  0.00  0.00    +0.000 A 
BRANCH  18  25
ATOM     24  C   UNL     1      -2.399  10.078  16.618  0.00  0.00    +0.000 C 
ATOM     25  O   UNL     1      -1.453  10.873  17.323  0.00  0.00    +0.000 OA
ENDBRANCH  18  25
BRANCH  21  26
ATOM     26  O   UNL     1       1.821   8.562  21.142  0.00  0.00    +0.000 OA
ATOM     27  C   UNL     1       1.499   9.048  22.437  0.00  0.00    +0.000 C 
ENDBRANCH  21  26
ENDBRANCH   1  22
TORSDOF 3
ENDMDL
MODEL 3
REMARK VINA RESULT:      -6.7      4.454      7.302
REMARK  Name = 
REMARK  5 active torsions:
REMARK  status: ('A' for Active; 'I' for Inactive)
REMARK    1  A    between atoms: C_1  and  O_2
REMARK    2  A    between atoms: O_2  and  C_3
REMARK    3  A    between atoms: C_6  and  O_7
REMARK    4  A    between atoms: O_7  and  C_8
REMARK    5  A    between atoms: C_9  and  N_10
REMARK                            x       y       z     vdW  Elec       q    Type
REMARK                         _______ _______ _______ _____ _____    ______ ____
ROOT
ATOM      1  N   UNL     1       1.994   8.332  19.242  0.00  0.00    +0.000 N 
ATOM      2  C   UNL     1       1.191   9.060  20.083  0.00  0.00    +0.000 C 
ATOM      3  N   UNL     1       0.938   8.781  21.315  0.00  0.00    +0.000 NA
ATOM      4  C   UNL     1       0.057   9.546  21.996  0.00  0.00    +0.000 C 
ATOM      5  N   UNL     1      -0.191   9.135  23.266  0.00  0.00    +0.000 N 
ATOM      6  N   UNL     1      -0.569  10.562  21.531  0.00  0.00    +0.000 NA
ATOM      7  C   UNL     1      -0.208  11.012  20.193  0.00  0.00    +0.000 C 
ATOM      8  C   UNL     1      -1.520  11.211  19.400  0.00  0.00    +0.000 C 
ATOM      9  C   UNL     1      -1.312  11.954  18.080  0.00  0.00    +0.000 C 
ATOM     10  C   UNL     1      -0.586  13.282  18.281  0.00  0.00    +0.000 C 
ATOM     11  C   UNL     1       0.718  13.117  19.053  0.00  0.00    +0.000 C 
ATOM     12  C   UNL     1       0.510  12.366  20.367  0.00  0.00    +0.000 C 
ATOM     13  N   UNL     1       0.629  10.109  19.454  0.00  0.00    +0.000 N 
ATOM     14  H   UNL     1       2.168   8.734  18.343  0.00  0.00    +0.000 HD
ATOM     15  H   UNL     1       0.027   8.161  23.394  0.00  0.00    +0.000 HD
ATOM     16  H   UNL     1      -1.113   9.407  23.579  0.00  0.00    +0.000 HD
ATOM     17  H   UNL     1       0.966  10.419  18.560  0.00  0.00    +0.000 HD
ENDROOT
BRANCH   1  22
ATOM     18  C   UNL     1       2.231   4.828  20.550  0.00  0.00    +0.000 A 
ATOM     19  C   UNL     1       3.046   4.239  19.595  0.00  0.00    +0.000 A 
ATOM     20  C   UNL     1       3.547   5.000  18.536  0.00  0.00    +0.000 A 
ATOM     21  C   UNL     1       3.219   6.360  18.401  0.00  0.00    +0.000 A 
ATOM     22  C   UNL     1       2.373   6.975  19.346  0.00  0.00    +0.000 A 
ATOM     23  C   UNL     1       1.901   6.176  20.411  0.00  0.00    +0.000 A 
BRANCH  18  25
ATOM     24  C   UNL     1       2.215   2.641  21.486  0.00  0.00    +0.000 C 
ATOM     25  O   UNL     1       1.833   4.009  21.574  0.00  0.00    +0.000 OA
ENDBRANCH  18  25
BRANCH  21  26
ATOM     26  O   UNL     1       3.904   6.971  17.380  0.00  0.00    +0.000 OA
ATOM     27  C   UNL     1       4.925   6.250  16.707  0.00  0.00    +0.000 C 
ENDBRANCH  21  26
ENDBRANCH   1  22
TORSDOF 3
ENDMDL
MODEL 4
REMARK VINA RESULT:      -6.7      3.986      7.812
REMARK  Name = 
REMARK  5 active torsions:
REMARK  status: ('A' for Active; 'I' for Inactive)
REMARK    1  A    between atoms: C_1  and  O_2
REMARK    2  A    between atoms: O_2  and  C_3
REMARK    3  A    between atoms: C_6  and  O_7
REMARK    4  A    between atoms: O_7  and  C_8
REMARK    5  A    between atoms: C_9  and  N_10
REMARK                            x       y       z     vdW  Elec       q    Type
REMARK                         _______ _______ _______ _____ _____    ______ ____
ROOT
ATOM      1  N   UNL     1       2.282   8.127  18.539  0.00  0.00    +0.000 N 
ATOM      2  C   UNL     1       2.791   6.879  18.797  0.00  0.00    +0.000 C 
ATOM      3  N   UNL     1       2.298   6.019  19.619  0.00  0.00    +0.000 NA
ATOM      4  C   UNL     1       2.959   4.860  19.833  0.00  0.00    +0.000 C 
ATOM      5  N   UNL     1       2.395   4.046  20.762  0.00  0.00    +0.000 N 
ATOM      6  N   UNL     1       4.059   4.511  19.278  0.00  0.00    +0.000 NA
ATOM      7  C   UNL     1       4.580   5.378  18.230  0.00  0.00    +0.000 C 
ATOM      8  C   UNL     1       6.076   5.624  18.532  0.00  0.00    +0.000 C 
ATOM      9  C   UNL     1       6.821   6.276  17.366  0.00  0.00    +0.000 C 
ATOM     10  C   UNL     1       6.645   5.492  16.068  0.00  0.00    +0.000 C 
ATOM     11  C   UNL     1       5.178   5.242  15.737  0.00  0.00    +0.000 C 
ATOM     12  C   UNL     1       4.434   4.599  16.907  0.00  0.00    +0.000 C 
ATOM     13  N   UNL     1       3.931   6.654  18.118  0.00  0.00    +0.000 N 
ATOM     14  H   UNL     1       2.724   8.638  17.801  0.00  0.00    +0.000 HD
ATOM     15  H   UNL     1       1.795   4.555  21.391  0.00  0.00    +0.000 HD
ATOM     16  H   UNL     1       3.079   3.456  21.215  0.00  0.00    +0.000 HD
ATOM     17  H   UNL     1       4.207   7.247  17.355  0.00  0.00    +0.000 HD
ENDROOT
BRANCH   1  22
ATOM     18  C   UNL     1       0.806   9.752  21.576  0.00  0.00    +0.000 A 
ATOM     19  C   UNL     1      -0.223  10.492  21.012  0.00  0.00    +0.000 A 
ATOM     20  C   UNL     1      -0.455  10.433  19.635  0.00  0.00    +0.000 A 
ATOM     21  C   UNL     1       0.357   9.652  18.795  0.00  0.00    +0.000 A 
ATOM     22  C   UNL     1       1.423   8.909  19.343  0.00  0.00    +0.000 A 
ATOM     23  C   UNL     1       1.614   8.982  20.740  0.00  0.00    +0.000 A 
BRANCH  18  25
ATOM     24  C   UNL     1      -0.274   9.665  23.694  0.00  0.00    +0.000 C 
ATOM     25  O   UNL     1       0.920   9.841  22.938  0.00  0.00    +0.000 OA
ENDBRANCH  18  25
BRANCH  21  26
ATOM     26  O   UNL     1      -0.101   9.615  17.501  0.00  0.00    +0.000 OA
ATOM     27  C   UNL     1      -1.460   9.930  17.242  0.00  0.00    +0.000 C 
ENDBRANCH  21  26
ENDBRANCH   1  22
TORSDOF 3
ENDMDL
MODEL 5
REMARK VINA RESULT:      -6.6      3.925      6.288
REMARK  Name = 
REMARK  5 active torsions:
REMARK  status: ('A' for Active; 'I' for Inactive)
REMARK    1  A    between atoms: C_1  and  O_2
REMARK    2  A    between atoms: O_2  and  C_3
REMARK    3  A    between atoms: C_6  and  O_7
REMARK    4  A    between atoms: O_7  and  C_8
REMARK    5  A    between atoms: C_9  and  N_10
REMARK                            x       y       z     vdW  Elec       q    Type
REMARK                         _______ _______ _______ _____ _____    ______ ____
ROOT
ATOM      1  N   UNL     1       2.213   8.076  17.903  0.00  0.00    +0.000 N 
ATOM      2  C   UNL     1       1.711   8.715  19.009  0.00  0.00    +0.000 C 
ATOM      3  N   UNL     1       1.864   8.340  20.232  0.00  0.00    +0.000 NA
ATOM      4  C   UNL     1       1.237   9.024  21.213  0.00  0.00    +0.000 C 
ATOM      5  N   UNL     1       1.409   8.516  22.460  0.00  0.00    +0.000 N 
ATOM      6  N   UNL     1       0.486  10.048  21.051  0.00  0.00    +0.000 NA
ATOM      7  C   UNL     1       0.398  10.603  19.706  0.00  0.00    +0.000 C 
ATOM      8  C   UNL     1      -1.099  10.812  19.386  0.00  0.00    +0.000 C 
ATOM      9  C   UNL     1      -1.329  11.655  18.130  0.00  0.00    +0.000 C 
ATOM     10  C   UNL     1      -0.591  12.989  18.195  0.00  0.00    +0.000 C 
ATOM     11  C   UNL     1       0.893  12.815  18.501  0.00  0.00    +0.000 C 
ATOM     12  C   UNL     1       1.120  11.966  19.750  0.00  0.00    +0.000 C 
ATOM     13  N   UNL     1       0.967   9.785  18.673  0.00  0.00    +0.000 N 
ATOM     14  H   UNL     1       2.089   8.547  17.029  0.00  0.00    +0.000 HD
ATOM     15  H   UNL     1       1.668   7.543  22.436  0.00  0.00    +0.000 HD
ATOM     16  H   UNL     1       0.632   8.733  23.068  0.00  0.00    +0.000 HD
ATOM     17  H   UNL     1       1.000  10.170  17.745  0.00  0.00    +0.000 HD
ENDROOT
BRANCH   1  22
ATOM     18  C   UNL     1       2.034   4.334  17.797  0.00  0.00    +0.000 A 
ATOM     19  C   UNL     1       3.347   4.011  17.485  0.00  0.00    +0.000 A 
ATOM     20  C   UNL     1       4.301   5.021  17.341  0.00  0.00    +0.000 A 
ATOM     21  C   UNL     1       3.953   6.375  17.481  0.00  0.00    +0.000 A 
ATOM     22  C   UNL     1       2.620   6.729  17.775  0.00  0.00    +0.000 A 
ATOM     23  C   UNL     1       1.689   5.678  17.930  0.00  0.00    +0.000 A 
BRANCH  18  25
ATOM     24  C   UNL     1       1.630   2.229  18.830  0.00  0.00    +0.000 C 
ATOM     25  O   UNL     1       1.188   3.270  17.965  0.00  0.00    +0.000 OA
ENDBRANCH  18  25
BRANCH  21  26
ATOM     26  O   UNL     1       5.041   7.210  17.435  0.00  0.00    +0.000 OA
ATOM     27  C   UNL     1       6.334   6.649  17.263  0.00  0.00    +0.000 C 
ENDBRANCH  21  26
ENDBRANCH   1  22
TORSDOF 3
ENDMDL
MODEL 6
REMARK VINA RESULT:      -6.6      3.238      7.167
REMARK  Name = 
REMARK  5 active torsions:
REMARK  status: ('A' for Active; 'I' for Inactive)
REMARK    1  A    between atoms: C_1  and  O_2
REMARK    2  A    between atoms: O_2  and  C_3
REMARK    3  A    between atoms: C_6  and  O_7
REMARK    4  A    between atoms: O_7  and  C_8
REMARK    5  A    between atoms: C_9  and  N_10
REMARK                            x       y       z     vdW  Elec       q    Type
REMARK                         _______ _______ _______ _____ _____    ______ ____
ROOT
ATOM      1  N   UNL     1       6.071   3.631  15.782  0.00  0.00    +0.000 N 
ATOM      2  C   UNL     1       6.578   4.008  14.564  0.00  0.00    +0.000 C 
ATOM      3  N   UNL     1       7.535   4.849  14.372  0.00  0.00    +0.000 NA
ATOM      4  C   UNL     1       7.870   5.187  13.107  0.00  0.00    +0.000 C 
ATOM      5  N   UNL     1       8.845   6.126  13.008  0.00  0.00    +0.000 N 
ATOM      6  N   UNL     1       7.324   4.735  12.041  0.00  0.00    +0.000 NA
ATOM      7  C   UNL     1       6.340   3.670  12.196  0.00  0.00    +0.000 C 
ATOM      8  C   UNL     1       5.099   4.060  11.363  0.00  0.00    +0.000 C 
ATOM      9  C   UNL     1       4.106   2.908  11.197  0.00  0.00    +0.000 C 
ATOM     10  C   UNL     1       4.773   1.656  10.635  0.00  0.00    +0.000 C 
ATOM     11  C   UNL     1       5.998   1.241  11.442  0.00  0.00    +0.000 C 
ATOM     12  C   UNL     1       6.984   2.395  11.613  0.00  0.00    +0.000 C 
ATOM     13  N   UNL     1       5.916   3.428  13.546  0.00  0.00    +0.000 N 
ATOM     14  H   UNL     1       5.395   2.894  15.768  0.00  0.00    +0.000 HD
ATOM     15  H   UNL     1       8.922   6.675  13.849  0.00  0.00    +0.000 HD
ATOM     16  H   UNL     1       8.768   6.664  12.157  0.00  0.00    +0.000 HD
ATOM     17  H   UNL     1       5.302   2.648  13.703  0.00  0.00    +0.000 HD
ENDROOT
BRANCH   1  22
ATOM     18  C   UNL     1       7.252   6.007  18.429  0.00  0.00    +0.000 A 
ATOM     19  C   UNL     1       6.326   5.771  19.434  0.00  0.00    +0.000 A 
ATOM     20  C   UNL     1       5.330   4.808  19.257  0.00  0.00    +0.000 A 
ATOM     21  C   UNL     1       5.228   4.080  18.059  0.00  0.00    +0.000 A 
ATOM     22  C   UNL     1       6.144   4.318  17.014  0.00  0.00    +0.000 A 
ATOM     23  C   UNL     1       7.146   5.288  17.239  0.00  0.00    +0.000 A 
BRANCH  18  25
ATOM     24  C   UNL     1       8.139   8.178  18.029  0.00  0.00    +0.000 C 
ATOM     25  O   UNL     1       8.217   6.935  18.719  0.00  0.00    +0.000 OA
ENDBRANCH  18  25
BRANCH  21  26
ATOM     26  O   UNL     1       4.276   3.093  18.118  0.00  0.00    +0.000 OA
ATOM     27  C   UNL     1       2.955   3.383  17.687  0.00  0.00    +0.000 C 
ENDBRANCH  21  26
ENDBRANCH   1  22
TORSDOF 3
ENDMDL
MODEL 7
REMARK VINA RESULT:      -6.6      3.842      7.395
REMARK  Name = 
REMARK  5 active torsions:
REMARK  status: ('A' for Active; 'I' for Inactive)
REMARK    1  A    between atoms: C_1  and  O_2
REMARK    2  A    between atoms: O_2  and  C_3
REMARK    3  A    between atoms: C_6  and  O_7
REMARK    4  A    between atoms: O_7  and  C_8
REMARK    5  A    between atoms: C_9  and  N_10
REMARK                            x       y       z     vdW  Elec       q    Type
REMARK                         _______ _______ _______ _____ _____    ______ ____
ROOT
ATOM      1  N   UNL     1       2.555   7.741  18.580  0.00  0.00    +0.000 N 
ATOM      2  C   UNL     1       2.934   6.477  18.958  0.00  0.00    +0.000 C 
ATOM      3  N   UNL     1       2.331   5.736  19.822  0.00  0.00    +0.000 NA
ATOM      4  C   UNL     1       2.871   4.544  20.157  0.00  0.00    +0.000 C 
ATOM      5  N   UNL     1       2.198   3.864  21.121  0.00  0.00    +0.000 N 
ATOM      6  N   UNL     1       3.954   4.052  19.681  0.00  0.00    +0.000 NA
ATOM      7  C   UNL     1       4.595   4.779  18.593  0.00  0.00    +0.000 C 
ATOM      8  C   UNL     1       6.094   4.912  18.943  0.00  0.00    +0.000 C 
ATOM      9  C   UNL     1       6.941   5.395  17.765  0.00  0.00    +0.000 C 
ATOM     10  C   UNL     1       6.742   4.527  16.526  0.00  0.00    +0.000 C 
ATOM     11  C   UNL     1       5.271   4.384  16.149  0.00  0.00    +0.000 C 
ATOM     12  C   UNL     1       4.426   3.910  17.330  0.00  0.00    +0.000 C 
ATOM     13  N   UNL     1       4.073   6.095  18.352  0.00  0.00    +0.000 N 
ATOM     14  H   UNL     1       3.071   8.147  17.825  0.00  0.00    +0.000 HD
ATOM     15  H   UNL     1       1.626   4.476  21.679  0.00  0.00    +0.000 HD
ATOM     16  H   UNL     1       2.806   3.254  21.649  0.00  0.00    +0.000 HD
ATOM     17  H   UNL     1       4.432   6.595  17.558  0.00  0.00    +0.000 HD
ENDROOT
BRANCH   1  22
ATOM     18  C   UNL     1       0.239   9.136  21.174  0.00  0.00    +0.000 A 
ATOM     19  C   UNL     1       0.139  10.457  20.763  0.00  0.00    +0.000 A 
ATOM     20  C   UNL     1       0.806  10.885  19.613  0.00  0.00    +0.000 A 
ATOM     21  C   UNL     1       1.607  10.003  18.868  0.00  0.00    +0.000 A 
ATOM     22  C   UNL     1       1.743   8.662  19.279  0.00  0.00    +0.000 A 
ATOM     23  C   UNL     1       1.039   8.264  20.438  0.00  0.00    +0.000 A 
BRANCH  18  25
ATOM     24  C   UNL     1      -0.635   9.813  23.281  0.00  0.00    +0.000 C 
ATOM     25  O   UNL     1      -0.491   8.806  22.285  0.00  0.00    +0.000 OA
ENDBRANCH  18  25
BRANCH  21  26
ATOM     26  O   UNL     1       2.075  10.565  17.705  0.00  0.00    +0.000 OA
ATOM     27  C   UNL     1       2.598  11.884  17.739  0.00  0.00    +0.000 C 
ENDBRANCH  21  26
ENDBRANCH   1  22
TORSDOF 3
ENDMDL
MODEL 8
REMARK VINA RESULT:      -6.6      3.511      7.019
REMARK  Name = 
REMARK  5 active torsions:
REMARK  status: ('A' for Active; 'I' for Inactive)
REMARK    1  A    between atoms: C_1  and  O_2
REMARK    2  A    between atoms: O_2  and  C_3
REMARK    3  A    between atoms: C_6  and  O_7
REMARK    4  A    between atoms: O_7  and  C_8
REMARK    5  A    between atoms: C_9  and  N_10
REMARK                            x       y       z     vdW  Elec       q    Type
REMARK                         _______ _______ _______ _____ _____    ______ ____
ROOT
ATOM      1  N   UNL     1       2.912   7.794  17.968  0.00  0.00    +0.000 N 
ATOM      2  C   UNL     1       3.027   6.435  17.815  0.00  0.00    +0.000 C 
ATOM      3  N   UNL     1       2.072   5.579  17.931  0.00  0.00    +0.000 NA
ATOM      4  C   UNL     1       2.354   4.261  17.838  0.00  0.00    +0.000 C 
ATOM      5  N   UNL     1       1.294   3.436  18.036  0.00  0.00    +0.000 N 
ATOM      6  N   UNL     1       3.512   3.756  17.630  0.00  0.00    +0.000 NA
ATOM      7  C   UNL     1       4.601   4.681  17.343  0.00  0.00    +0.000 C 
ATOM      8  C   UNL     1       5.793   4.290  18.245  0.00  0.00    +0.000 C 
ATOM      9  C   UNL     1       7.096   4.986  17.847  0.00  0.00    +0.000 C 
ATOM     10  C   UNL     1       7.430   4.773  16.373  0.00  0.00    +0.000 C 
ATOM     11  C   UNL     1       6.275   5.159  15.456  0.00  0.00    +0.000 C 
ATOM     12  C   UNL     1       4.973   4.470  15.861  0.00  0.00    +0.000 C 
ATOM     13  N   UNL     1       4.299   6.066  17.576  0.00  0.00    +0.000 N 
ATOM     14  H   UNL     1       3.726   8.332  17.749  0.00  0.00    +0.000 HD
ATOM     15  H   UNL     1       0.560   3.889  18.556  0.00  0.00    +0.000 HD
ATOM     16  H   UNL     1       1.577   2.536  18.397  0.00  0.00    +0.000 HD
ATOM     17  H   UNL     1       4.995   6.740  17.312  0.00  0.00    +0.000 HD
ENDROOT
BRANCH   1  22
ATOM     18  C   UNL     1       0.233  10.322  18.658  0.00  0.00    +0.000 A 
ATOM     19  C   UNL     1      -0.127   9.985  19.954  0.00  0.00    +0.000 A 
ATOM     20  C   UNL     1       0.532   8.947  20.617  0.00  0.00    +0.000 A 
ATOM     21  C   UNL     1       1.547   8.211  19.983  0.00  0.00    +0.000 A 
ATOM     22  C   UNL     1       1.915   8.519  18.658  0.00  0.00    +0.000 A 
ATOM     23  C   UNL     1       1.236   9.587  18.028  0.00  0.00    +0.000 A 
BRANCH  18  25
ATOM     24  C   UNL     1      -1.831  11.476  18.398  0.00  0.00    +0.000 C 
ATOM     25  O   UNL     1      -0.439  11.385  18.115  0.00  0.00    +0.000 OA
ENDBRANCH  18  25
BRANCH  21  26
ATOM     26  O   UNL     1       2.165   7.323  20.829  0.00  0.00    +0.000 OA
ATOM     27  C   UNL     1       1.563   6.058  21.061  0.00  0.00    +0.000 C 
ENDBRANCH  21  26
ENDBRANCH   1  22
TORSDOF 3
ENDMDL
MODEL 9
REMARK VINA RESULT:      -6.4      8.504     10.923
REMARK  Name = 
REMARK  5 active torsions:
REMARK  status: ('A' for Active; 'I' for Inactive)
REMARK    1  A    between atoms: C_1  and  O_2
REMARK    2  A    between atoms: O_2  and  C_3
REMARK    3  A    between atoms: C_6  and  O_7
REMARK    4  A    between atoms: O_7  and  C_8
REMARK    5  A    between atoms: C_9  and  N_10
REMARK                            x       y       z     vdW  Elec       q    Type
REMARK                         _______ _______ _______ _____ _____    ______ ____
ROOT
ATOM      1  N   UNL     1      -1.846  12.502  19.130  0.00  0.00    +0.000 N 
ATOM      2  C   UNL     1      -2.683  11.964  18.184  0.00  0.00    +0.000 C 
ATOM      3  N   UNL     1      -2.316  11.316  17.133  0.00  0.00    +0.000 NA
ATOM      4  C   UNL     1      -3.254  10.919  16.245  0.00  0.00    +0.000 C 
ATOM      5  N   UNL     1      -2.765  10.299  15.140  0.00  0.00    +0.000 N 
ATOM      6  N   UNL     1      -4.515  11.118  16.347  0.00  0.00    +0.000 NA
ATOM      7  C   UNL     1      -4.997  11.713  17.587  0.00  0.00    +0.000 C 
ATOM      8  C   UNL     1      -5.948  12.870  17.208  0.00  0.00    +0.000 C 
ATOM      9  C   UNL     1      -6.752  13.396  18.398  0.00  0.00    +0.000 C 
ATOM     10  C   UNL     1      -7.505  12.280  19.115  0.00  0.00    +0.000 C 
ATOM     11  C   UNL     1      -6.591  11.126  19.511  0.00  0.00    +0.000 C 
ATOM     12  C   UNL     1      -5.783  10.608  18.322  0.00  0.00    +0.000 C 
ATOM     13  N   UNL     1      -3.974  12.237  18.447  0.00  0.00    +0.000 N 
ATOM     14  H   UNL     1      -2.288  12.890  19.938  0.00  0.00    +0.000 HD
ATOM     15  H   UNL     1      -1.800  10.535  14.975  0.00  0.00    +0.000 HD
ATOM     16  H   UNL     1      -3.372  10.416  14.341  0.00  0.00    +0.000 HD
ATOM     17  H   UNL     1      -4.259  12.580  19.347  0.00  0.00    +0.000 HD
ENDROOT
BRANCH   1  22
ATOM     18  C   UNL     1       1.238  14.584  18.679  0.00  0.00    +0.000 A 
ATOM     19  C   UNL     1       2.230  13.620  18.786  0.00  0.00    +0.000 A 
ATOM     20  C   UNL     1       1.888  12.279  18.973  0.00  0.00    +0.000 A 
ATOM     21  C   UNL     1       0.544  11.882  19.083  0.00  0.00    +0.000 A 
ATOM     22  C   UNL     1      -0.481  12.846  19.001  0.00  0.00    +0.000 A 
ATOM     23  C   UNL     1      -0.095  14.188  18.795  0.00  0.00    +0.000 A 
BRANCH  18  25
ATOM     24  C   UNL     1       2.978  16.001  17.892  0.00  0.00    +0.000 C 
ATOM     25  O   UNL     1       1.676  15.861  18.448  0.00  0.00    +0.000 OA
ENDBRANCH  18  25
BRANCH  21  26
ATOM     26  O   UNL     1       0.398  10.517  19.133  0.00  0.00    +0.000 OA
ATOM     27  C   UNL     1       0.946   9.727  18.088  0.00  0.00    +0.000 C 
ENDBRANCH  21  26
ENDBRANCH   1  22
TORSDOF 3
ENDMDL
