MODEL 1
REMARK VINA RESULT:      -7.5      0.000      0.000
REMARK  Name = 
REMARK  4 active torsions:
REMARK  status: ('A' for Active; 'I' for Inactive)
REMARK    1  A    between atoms: C_4  and  C_5
REMARK    2  A    between atoms: C_5  and  P_6
REMARK    3  A    between atoms: P_6  and  O_8
REMARK    4  A    between atoms: P_6  and  O_9
REMARK                            x       y       z     vdW  Elec       q    Type
REMARK                         _______ _______ _______ _____ _____    ______ ____
ROOT
ATOM      1  O   UNL     1       2.735   8.305  17.919  0.00  0.00    +0.000 OA
ATOM      2  C   UNL     1       2.967   7.158  18.287  0.00  0.00    +0.000 A 
ATOM      3  C   UNL     1       4.031   6.362  17.663  0.00  0.00    +0.000 A 
ATOM      4  C   UNL     1       4.331   5.097  18.006  0.00  0.00    +0.000 A 
ATOM      5  C   UNL     1       3.534   4.459  19.069  0.00  0.00    +0.000 A 
ATOM      6  C   UNL     1       3.685   3.139  19.522  0.00  0.00    +0.000 A 
ATOM      7  F   UNL     1       4.572   2.308  18.956  0.00  0.00    +0.000 F 
ATOM      8  C   UNL     1       2.920   2.625  20.566  0.00  0.00    +0.000 A 
ATOM      9  C   UNL     1       1.972   3.430  21.179  0.00  0.00    +0.000 A 
ATOM     10  F   UNL     1       1.232   2.937  22.179  0.00  0.00    +0.000 F 
ATOM     11  C   UNL     1       1.775   4.736  20.759  0.00  0.00    +0.000 A 
ATOM     12  C   UNL     1       2.551   5.228  19.709  0.00  0.00    +0.000 A 
ATOM     13  O   UNL     1       2.279   6.558  19.325  0.00  0.00    +0.000 OA
ENDROOT
BRANCH   4  14
ATOM     14  C   UNL     1       5.531   4.430  17.384  0.00  0.00    +0.000 C 
BRANCH  14  15
ATOM     15  P   UNL     1       7.073   5.235  17.746  0.00  0.00    +0.000 P 
ATOM     16  O   UNL     1       7.230   5.871  19.086  0.00  0.00    +0.000 OA
BRANCH  15  17
ATOM     17  O   UNL     1       8.160   4.070  17.559  0.00  0.00    +0.000 OA
ATOM     18  H   UNL     1       7.848   3.217  17.919  0.00  0.00    +0.000 HD
ENDBRANCH  15  17
BRANCH  15  19
ATOM     19  O   UNL     1       7.465   6.233  16.557  0.00  0.00    +0.000 OA
ATOM     20  H   UNL     1       7.157   5.928  15.681  0.00  0.00    +0.000 HD
ENDBRANCH  15  19
ENDBRANCH  14  15
ENDBRANCH   4  14
TORSDOF 4
ENDMDL
MODEL 2
REMARK VINA RESULT:      -7.3      0.378      1.150
REMARK  Name = 
REMARK  4 active torsions:
REMARK  status: ('A' for Active; 'I' for Inactive)
REMARK    1  A    between atoms: C_4  and  C_5
REMARK    2  A    between atoms: C_5  and  P_6
REMARK    3  A    between atoms: P_6  and  O_8
REMARK    4  A    between atoms: P_6  and  O_9
REMARK                            x       y       z     vdW  Elec       q    Type
REMARK                         _______ _______ _______ _____ _____    ______ ____
ROOT
ATOM      1  O   UNL     1       2.775   8.442  17.894  0.00  0.00    +0.000 OA
ATOM      2  C   UNL     1       3.010   7.294  18.256  0.00  0.00    +0.000 A 
ATOM      3  C   UNL     1       4.071   6.502  17.622  0.00  0.00    +0.000 A 
ATOM      4  C   UNL     1       4.375   5.235  17.959  0.00  0.00    +0.000 A 
ATOM      5  C   UNL     1       3.585   4.593  19.024  0.00  0.00    +0.000 A 
ATOM      6  C   UNL     1       3.741   3.271  19.471  0.00  0.00    +0.000 A 
ATOM      7  F   UNL     1       4.625   2.443  18.897  0.00  0.00    +0.000 F 
ATOM      8  C   UNL     1       2.983   2.752  20.519  0.00  0.00    +0.000 A 
ATOM      9  C   UNL     1       2.037   3.554  21.140  0.00  0.00    +0.000 A 
ATOM     10  F   UNL     1       1.304   3.056  22.143  0.00  0.00    +0.000 F 
ATOM     11  C   UNL     1       1.837   4.861  20.726  0.00  0.00    +0.000 A 
ATOM     12  C   UNL     1       2.605   5.358  19.674  0.00  0.00    +0.000 A 
ATOM     13  O   UNL     1       2.330   6.689  19.296  0.00  0.00    +0.000 OA
ENDROOT
BRANCH   4  14
ATOM     14  C   UNL     1       5.572   4.572  17.327  0.00  0.00    +0.000 C 
BRANCH  14  15
ATOM     15  P   UNL     1       7.120   4.998  18.089  0.00  0.00    +0.000 P 
ATOM     16  O   UNL     1       8.304   4.143  17.787  0.00  0.00    +0.000 OA
BRANCH  15  17
ATOM     17  O   UNL     1       7.384   6.500  17.591  0.00  0.00    +0.000 OA
ATOM     18  H   UNL     1       7.875   6.525  16.748  0.00  0.00    +0.000 HD
ENDBRANCH  15  17
BRANCH  15  19
ATOM     19  O   UNL     1       6.917   5.212  19.662  0.00  0.00    +0.000 OA
ATOM     20  H   UNL     1       6.147   5.772  19.879  0.00  0.00    +0.000 HD
ENDBRANCH  15  19
ENDBRANCH  14  15
ENDBRANCH   4  14
TORSDOF 4
ENDMDL
MODEL 3
REMARK VINA RESULT:      -7.3      1.799      2.117
REMARK  Name = 
REMARK  4 active torsions:
REMARK  status: ('A' for Active; 'I' for Inactive)
REMARK    1  A    between atoms: C_4  and  C_5
REMARK    2  A    between atoms: C_5  and  P_6
REMARK    3  A    between atoms: P_6  and  O_8
REMARK    4  A    between atoms: P_6  and  O_9
REMARK                            x       y       z     vdW  Elec       q    Type
REMARK                         _______ _______ _______ _____ _____    ______ ____
ROOT
ATOM      1  O   UNL     1       2.638   8.622  18.249  0.00  0.00    +0.000 OA
ATOM      2  C   UNL     1       2.907   7.442  18.049  0.00  0.00    +0.000 A 
ATOM      3  C   UNL     1       4.184   7.048  17.441  0.00  0.00    +0.000 A 
ATOM      4  C   UNL     1       4.540   5.777  17.180  0.00  0.00    +0.000 A 
ATOM      5  C   UNL     1       3.582   4.708  17.514  0.00  0.00    +0.000 A 
ATOM      6  C   UNL     1       3.774   3.338  17.275  0.00  0.00    +0.000 A 
ATOM      7  F   UNL     1       4.870   2.889  16.648  0.00  0.00    +0.000 F 
ATOM      8  C   UNL     1       2.837   2.383  17.664  0.00  0.00    +0.000 A 
ATOM      9  C   UNL     1       1.672   2.787  18.299  0.00  0.00    +0.000 A 
ATOM     10  F   UNL     1       0.768   1.872  18.669  0.00  0.00    +0.000 F 
ATOM     11  C   UNL     1       1.431   4.130  18.545  0.00  0.00    +0.000 A 
ATOM     12  C   UNL     1       2.382   5.068  18.145  0.00  0.00    +0.000 A 
ATOM     13  O   UNL     1       2.057   6.414  18.411  0.00  0.00    +0.000 OA
ENDROOT
BRANCH   4  14
ATOM     14  C   UNL     1       5.931   5.490  16.677  0.00  0.00    +0.000 C 
BRANCH  14  15
ATOM     15  P   UNL     1       7.117   5.189  17.965  0.00  0.00    +0.000 P 
ATOM     16  O   UNL     1       8.203   4.202  17.695  0.00  0.00    +0.000 OA
BRANCH  15  17
ATOM     17  O   UNL     1       7.747   6.638  18.244  0.00  0.00    +0.000 OA
ATOM     18  H   UNL     1       8.437   6.611  18.934  0.00  0.00    +0.000 HD
ENDBRANCH  15  17
BRANCH  15  19
ATOM     19  O   UNL     1       6.365   4.894  19.347  0.00  0.00    +0.000 OA
ATOM     20  H   UNL     1       5.449   5.230  19.366  0.00  0.00    +0.000 HD
ENDBRANCH  15  19
ENDBRANCH  14  15
ENDBRANCH   4  14
TORSDOF 4
ENDMDL
MODEL 4
REMARK VINA RESULT:      -7.2      1.664      1.805
REMARK  Name = 
REMARK  4 active torsions:
REMARK  status: ('A' for Active; 'I' for Inactive)
REMARK    1  A    between atoms: C_4  and  C_5
REMARK    2  A    between atoms: C_5  and  P_6
REMARK    3  A    between atoms: P_6  and  O_8
REMARK    4  A    between atoms: P_6  and  O_9
REMARK                            x       y       z     vdW  Elec       q    Type
REMARK                         _______ _______ _______ _____ _____    ______ ____
ROOT
ATOM      1  O   UNL     1       2.630   8.290  17.565  0.00  0.00    +0.000 OA
ATOM      2  C   UNL     1       2.882   7.115  17.811  0.00  0.00    +0.000 A 
ATOM      3  C   UNL     1       4.264   6.662  18.009  0.00  0.00    +0.000 A 
ATOM      4  C   UNL     1       4.615   5.390  18.268  0.00  0.00    +0.000 A 
ATOM      5  C   UNL     1       3.546   4.378  18.346  0.00  0.00    +0.000 A 
ATOM      6  C   UNL     1       3.736   3.005  18.567  0.00  0.00    +0.000 A 
ATOM      7  F   UNL     1       4.966   2.483  18.676  0.00  0.00    +0.000 F 
ATOM      8  C   UNL     1       2.666   2.119  18.674  0.00  0.00    +0.000 A 
ATOM      9  C   UNL     1       1.370   2.596  18.549  0.00  0.00    +0.000 A 
ATOM     10  F   UNL     1       0.341   1.746  18.645  0.00  0.00    +0.000 F 
ATOM     11  C   UNL     1       1.131   3.941  18.316  0.00  0.00    +0.000 A 
ATOM     12  C   UNL     1       2.217   4.808  18.211  0.00  0.00    +0.000 A 
ATOM     13  O   UNL     1       1.896   6.157  17.954  0.00  0.00    +0.000 OA
ENDROOT
BRANCH   4  14
ATOM     14  C   UNL     1       6.054   5.072  18.584  0.00  0.00    +0.000 C 
BRANCH  14  15
ATOM     15  P   UNL     1       7.070   4.819  17.148  0.00  0.00    +0.000 P 
ATOM     16  O   UNL     1       7.506   6.022  16.382  0.00  0.00    +0.000 OA
BRANCH  15  17
ATOM     17  O   UNL     1       8.348   4.039  17.724  0.00  0.00    +0.000 OA
ATOM     18  H   UNL     1       8.207   3.729  18.638  0.00  0.00    +0.000 HD
ENDBRANCH  15  17
BRANCH  15  19
ATOM     19  O   UNL     1       6.415   3.707  16.201  0.00  0.00    +0.000 OA
ATOM     20  H   UNL     1       6.850   2.836  16.272  0.00  0.00    +0.000 HD
ENDBRANCH  15  19
ENDBRANCH  14  15
ENDBRANCH   4  14
TORSDOF 4
ENDMDL
MODEL 5
REMARK VINA RESULT:      -7.1      2.652      3.784
REMARK  Name = 
REMARK  4 active torsions:
REMARK  status: ('A' for Active; 'I' for Inactive)
REMARK    1  A    between atoms: C_4  and  C_5
REMARK    2  A    between atoms: C_5  and  P_6
REMARK    3  A    between atoms: P_6  and  O_8
REMARK    4  A    between atoms: P_6  and  O_9
REMARK                            x       y       z     vdW  Elec       q    Type
REMARK                         _______ _______ _______ _____ _____    ______ ____
ROOT
ATOM      1  O   UNL     1       4.128   2.450  20.363  0.00  0.00    +0.000 OA
ATOM      2  C   UNL     1       4.021   3.470  19.690  0.00  0.00    +0.000 A 
ATOM      3  C   UNL     1       4.739   3.617  18.418  0.00  0.00    +0.000 A 
ATOM      4  C   UNL     1       4.680   4.711  17.637  0.00  0.00    +0.000 A 
ATOM      5  C   UNL     1       3.852   5.843  18.090  0.00  0.00    +0.000 A 
ATOM      6  C   UNL     1       3.709   7.069  17.421  0.00  0.00    +0.000 A 
ATOM      7  F   UNL     1       4.390   7.329  16.296  0.00  0.00    +0.000 F 
ATOM      8  C   UNL     1       2.868   8.074  17.893  0.00  0.00    +0.000 A 
ATOM      9  C   UNL     1       2.152   7.871  19.064  0.00  0.00    +0.000 A 
ATOM     10  F   UNL     1       1.347   8.837  19.523  0.00  0.00    +0.000 F 
ATOM     11  C   UNL     1       2.269   6.683  19.768  0.00  0.00    +0.000 A 
ATOM     12  C   UNL     1       3.119   5.692  19.277  0.00  0.00    +0.000 A 
ATOM     13  O   UNL     1       3.202   4.521  20.058  0.00  0.00    +0.000 OA
ENDROOT
BRANCH   4  14
ATOM     14  C   UNL     1       5.356   4.691  16.290  0.00  0.00    +0.000 C 
BRANCH  14  15
ATOM     15  P   UNL     1       7.077   5.129  16.339  0.00  0.00    +0.000 P 
ATOM     16  O   UNL     1       8.009   4.215  17.061  0.00  0.00    +0.000 OA
BRANCH  15  17
ATOM     17  O   UNL     1       7.487   5.221  14.790  0.00  0.00    +0.000 OA
ATOM     18  H   UNL     1       8.233   4.630  14.573  0.00  0.00    +0.000 HD
ENDBRANCH  15  17
BRANCH  15  19
ATOM     19  O   UNL     1       7.244   6.651  16.806  0.00  0.00    +0.000 OA
ATOM     20  H   UNL     1       8.146   6.999  16.669  0.00  0.00    +0.000 HD
ENDBRANCH  15  19
ENDBRANCH  14  15
ENDBRANCH   4  14
TORSDOF 4
ENDMDL
MODEL 6
REMARK VINA RESULT:      -7.1      2.665      3.863
REMARK  Name = 
REMARK  4 active torsions:
REMARK  status: ('A' for Active; 'I' for Inactive)
REMARK    1  A    between atoms: C_4  and  C_5
REMARK    2  A    between atoms: C_5  and  P_6
REMARK    3  A    between atoms: P_6  and  O_8
REMARK    4  A    between atoms: P_6  and  O_9
REMARK                            x       y       z     vdW  Elec       q    Type
REMARK                         _______ _______ _______ _____ _____    ______ ____
ROOT
ATOM      1  O   UNL     1       4.645   2.222  20.109  0.00  0.00    +0.000 OA
ATOM      2  C   UNL     1       4.411   3.258  19.495  0.00  0.00    +0.000 A 
ATOM      3  C   UNL     1       4.984   3.495  18.165  0.00  0.00    +0.000 A 
ATOM      4  C   UNL     1       4.782   4.611  17.441  0.00  0.00    +0.000 A 
ATOM      5  C   UNL     1       3.940   5.672  18.023  0.00  0.00    +0.000 A 
ATOM      6  C   UNL     1       3.659   6.911  17.425  0.00  0.00    +0.000 A 
ATOM      7  F   UNL     1       4.205   7.254  16.250  0.00  0.00    +0.000 F 
ATOM      8  C   UNL     1       2.814   7.843  18.022  0.00  0.00    +0.000 A 
ATOM      9  C   UNL     1       2.235   7.554  19.248  0.00  0.00    +0.000 A 
ATOM     10  F   UNL     1       1.427   8.451  19.826  0.00  0.00    +0.000 F 
ATOM     11  C   UNL     1       2.493   6.350  19.885  0.00  0.00    +0.000 A 
ATOM     12  C   UNL     1       3.343   5.433  19.270  0.00  0.00    +0.000 A 
ATOM     13  O   UNL     1       3.573   4.241  19.988  0.00  0.00    +0.000 OA
ENDROOT
BRANCH   4  14
ATOM     14  C   UNL     1       5.316   4.683  16.033  0.00  0.00    +0.000 C 
BRANCH  14  15
ATOM     15  P   UNL     1       7.035   5.120  15.934  0.00  0.00    +0.000 P 
ATOM     16  O   UNL     1       7.635   5.290  14.579  0.00  0.00    +0.000 OA
BRANCH  15  17
ATOM     17  O   UNL     1       7.121   6.498  16.751  0.00  0.00    +0.000 OA
ATOM     18  H   UNL     1       7.806   6.469  17.447  0.00  0.00    +0.000 HD
ENDBRANCH  15  17
BRANCH  15  19
ATOM     19  O   UNL     1       7.904   4.144  16.858  0.00  0.00    +0.000 OA
ATOM     20  H   UNL     1       8.080   4.509  17.746  0.00  0.00    +0.000 HD
ENDBRANCH  15  19
ENDBRANCH  14  15
ENDBRANCH   4  14
TORSDOF 4
ENDMDL
MODEL 7
REMARK VINA RESULT:      -7.1      1.041      1.354
REMARK  Name = 
REMARK  4 active torsions:
REMARK  status: ('A' for Active; 'I' for Inactive)
REMARK    1  A    between atoms: C_4  and  C_5
REMARK    2  A    between atoms: C_5  and  P_6
REMARK    3  A    between atoms: P_6  and  O_8
REMARK    4  A    between atoms: P_6  and  O_9
REMARK                            x       y       z     vdW  Elec       q    Type
REMARK                         _______ _______ _______ _____ _____    ______ ____
ROOT
ATOM      1  O   UNL     1       2.271   8.292  17.760  0.00  0.00    +0.000 OA
ATOM      2  C   UNL     1       2.649   7.231  18.248  0.00  0.00    +0.000 A 
ATOM      3  C   UNL     1       4.009   6.731  18.014  0.00  0.00    +0.000 A 
ATOM      4  C   UNL     1       4.485   5.573  18.504  0.00  0.00    +0.000 A 
ATOM      5  C   UNL     1       3.583   4.742  19.321  0.00  0.00    +0.000 A 
ATOM      6  C   UNL     1       3.902   3.493  19.876  0.00  0.00    +0.000 A 
ATOM      7  F   UNL     1       5.089   2.914  19.647  0.00  0.00    +0.000 F 
ATOM      8  C   UNL     1       3.004   2.790  20.677  0.00  0.00    +0.000 A 
ATOM      9  C   UNL     1       1.752   3.328  20.934  0.00  0.00    +0.000 A 
ATOM     10  F   UNL     1       0.886   2.652  21.698  0.00  0.00    +0.000 F 
ATOM     11  C   UNL     1       1.385   4.552  20.397  0.00  0.00    +0.000 A 
ATOM     12  C   UNL     1       2.299   5.236  19.597  0.00  0.00    +0.000 A 
ATOM     13  O   UNL     1       1.846   6.464  19.071  0.00  0.00    +0.000 OA
ENDROOT
BRANCH   4  14
ATOM     14  C   UNL     1       5.940   5.231  18.305  0.00  0.00    +0.000 C 
BRANCH  14  15
ATOM     15  P   UNL     1       6.359   4.808  16.631  0.00  0.00    +0.000 P 
ATOM     16  O   UNL     1       6.178   5.853  15.581  0.00  0.00    +0.000 OA
BRANCH  15  17
ATOM     17  O   UNL     1       7.904   4.385  16.725  0.00  0.00    +0.000 OA
ATOM     18  H   UNL     1       8.341   4.399  15.852  0.00  0.00    +0.000 HD
ENDBRANCH  15  17
BRANCH  15  19
ATOM     19  O   UNL     1       5.670   3.422  16.225  0.00  0.00    +0.000 OA
ATOM     20  H   UNL     1       5.171   3.471  15.387  0.00  0.00    +0.000 HD
ENDBRANCH  15  19
ENDBRANCH  14  15
ENDBRANCH   4  14
TORSDOF 4
ENDMDL
MODEL 8
REMARK VINA RESULT:      -7.1      1.642      1.724
REMARK  Name = 
REMARK  4 active torsions:
REMARK  status: ('A' for Active; 'I' for Inactive)
REMARK    1  A    between atoms: C_4  and  C_5
REMARK    2  A    between atoms: C_5  and  P_6
REMARK    3  A    between atoms: P_6  and  O_8
REMARK    4  A    between atoms: P_6  and  O_9
REMARK                            x       y       z     vdW  Elec       q    Type
REMARK                         _______ _______ _______ _____ _____    ______ ____
ROOT
ATOM      1  O   UNL     1       2.829   8.287  17.331  0.00  0.00    +0.000 OA
ATOM      2  C   UNL     1       3.045   7.130  17.675  0.00  0.00    +0.000 A 
ATOM      3  C   UNL     1       4.403   6.679  18.004  0.00  0.00    +0.000 A 
ATOM      4  C   UNL     1       4.715   5.424  18.375  0.00  0.00    +0.000 A 
ATOM      5  C   UNL     1       3.629   4.431  18.445  0.00  0.00    +0.000 A 
ATOM      6  C   UNL     1       3.782   3.075  18.774  0.00  0.00    +0.000 A 
ATOM      7  F   UNL     1       4.993   2.550  19.008  0.00  0.00    +0.000 F 
ATOM      8  C   UNL     1       2.694   2.210  18.864  0.00  0.00    +0.000 A 
ATOM      9  C   UNL     1       1.417   2.689  18.613  0.00  0.00    +0.000 A 
ATOM     10  F   UNL     1       0.371   1.858  18.692  0.00  0.00    +0.000 F 
ATOM     11  C   UNL     1       1.215   4.017  18.270  0.00  0.00    +0.000 A 
ATOM     12  C   UNL     1       2.320   4.864  18.185  0.00  0.00    +0.000 A 
ATOM     13  O   UNL     1       2.037   6.195  17.812  0.00  0.00    +0.000 OA
ENDROOT
BRANCH   4  14
ATOM     14  C   UNL     1       6.123   5.115  18.816  0.00  0.00    +0.000 C 
BRANCH  14  15
ATOM     15  P   UNL     1       7.242   4.782  17.477  0.00  0.00    +0.000 P 
ATOM     16  O   UNL     1       8.523   4.086  17.796  0.00  0.00    +0.000 OA
BRANCH  15  17
ATOM     17  O   UNL     1       6.369   3.891  16.469  0.00  0.00    +0.000 OA
ATOM     18  H   UNL     1       6.332   4.281  15.574  0.00  0.00    +0.000 HD
ENDBRANCH  15  17
BRANCH  15  19
ATOM     19  O   UNL     1       7.477   6.109  16.613  0.00  0.00    +0.000 OA
ATOM     20  H   UNL     1       7.742   5.926  15.691  0.00  0.00    +0.000 HD
ENDBRANCH  15  19
ENDBRANCH  14  15
ENDBRANCH   4  14
TORSDOF 4
ENDMDL
MODEL 9
REMARK VINA RESULT:      -7.0      2.325      3.066
REMARK  Name = 
REMARK  4 active torsions:
REMARK  status: ('A' for Active; 'I' for Inactive)
REMARK    1  A    between atoms: C_4  and  C_5
REMARK    2  A    between atoms: C_5  and  P_6
REMARK    3  A    between atoms: P_6  and  O_8
REMARK    4  A    between atoms: P_6  and  O_9
REMARK                            x       y       z     vdW  Elec       q    Type
REMARK                         _______ _______ _______ _____ _____    ______ ____
ROOT
ATOM      1  O   UNL     1       7.310   5.619  19.925  0.00  0.00    +0.000 OA
ATOM      2  C   UNL     1       6.289   5.196  19.393  0.00  0.00    +0.000 A 
ATOM      3  C   UNL     1       6.305   4.693  18.014  0.00  0.00    +0.000 A 
ATOM      4  C   UNL     1       5.223   4.228  17.364  0.00  0.00    +0.000 A 
ATOM      5  C   UNL     1       3.933   4.232  18.075  0.00  0.00    +0.000 A 
ATOM      6  C   UNL     1       2.703   3.821  17.536  0.00  0.00    +0.000 A 
ATOM      7  F   UNL     1       2.602   3.426  16.259  0.00  0.00    +0.000 F 
ATOM      8  C   UNL     1       1.533   3.812  18.291  0.00  0.00    +0.000 A 
ATOM      9  C   UNL     1       1.569   4.228  19.614  0.00  0.00    +0.000 A 
ATOM     10  F   UNL     1       0.445   4.226  20.340  0.00  0.00    +0.000 F 
ATOM     11  C   UNL     1       2.756   4.656  20.187  0.00  0.00    +0.000 A 
ATOM     12  C   UNL     1       3.915   4.659  19.411  0.00  0.00    +0.000 A 
ATOM     13  O   UNL     1       5.078   5.127  20.057  0.00  0.00    +0.000 OA
ENDROOT
BRANCH   4  14
ATOM     14  C   UNL     1       5.392   3.616  15.996  0.00  0.00    +0.000 C 
BRANCH  14  15
ATOM     15  P   UNL     1       6.209   4.676  14.828  0.00  0.00    +0.000 P 
ATOM     16  O   UNL     1       7.686   4.846  14.954  0.00  0.00    +0.000 OA
BRANCH  15  17
ATOM     17  O   UNL     1       5.850   4.020  13.408  0.00  0.00    +0.000 OA
ATOM     18  H   UNL     1       6.573   4.128  12.761  0.00  0.00    +0.000 HD
ENDBRANCH  15  17
BRANCH  15  19
ATOM     19  O   UNL     1       5.448   6.081  14.733  0.00  0.00    +0.000 OA
ATOM     20  H   UNL     1       4.480   5.989  14.649  0.00  0.00    +0.000 HD
ENDBRANCH  15  19
ENDBRANCH  14  15
ENDBRANCH   4  14
TORSDOF 4
ENDMDL
