MODEL 1
REMARK VINA RESULT:      -6.2      0.000      0.000
REMARK  Name = 
REMARK  4 active torsions:
REMARK  status: ('A' for Active; 'I' for Inactive)
REMARK    1  A    between atoms: C_1  and  C_2
REMARK    2  A    between atoms: C_2  and  N_3
REMARK    3  A    between atoms: N_6  and  C_7
REMARK    4  A    between atoms: C_7  and  C_8
REMARK                            x       y       z     vdW  Elec       q    Type
REMARK                         _______ _______ _______ _____ _____    ______ ____
ROOT
ATOM      1  N   UNL     1       7.075   5.247  17.563  0.00  0.00    +0.000 NA
ATOM      2  C   UNL     1       6.308   5.244  18.826  0.00  0.00    +0.000 C 
ATOM      3  C   UNL     1       4.780   5.462  18.671  0.00  0.00    +0.000 C 
ATOM      4  N   UNL     1       4.119   4.559  17.698  0.00  0.00    +0.000 NA
ATOM      5  C   UNL     1       4.887   4.600  16.433  0.00  0.00    +0.000 C 
ATOM      6  C   UNL     1       6.405   4.344  16.597  0.00  0.00    +0.000 C 
ENDROOT
BRANCH   1   8
ATOM      7  C   UNL     1       7.805   7.627  17.933  0.00  0.00    +0.000 C 
ATOM      8  C   UNL     1       7.237   6.586  16.973  0.00  0.00    +0.000 C 
ENDBRANCH   1   8
BRANCH   4   9
ATOM      9  C   UNL     1       4.013   3.199  18.258  0.00  0.00    +0.000 C 
BRANCH   9  10
ATOM     10  C   UNL     1       3.074   3.072  19.431  0.00  0.00    +0.000 A 
ATOM     11  C   UNL     1       1.724   3.422  19.341  0.00  0.00    +0.000 A 
ATOM     12  C   UNL     1       0.908   3.313  20.464  0.00  0.00    +0.000 A 
ATOM     13  C   UNL     1       1.469   2.853  21.643  0.00  0.00    +0.000 A 
ATOM     14  N   UNL     1       2.766   2.497  21.768  0.00  0.00    +0.000 NA
ATOM     15  C   UNL     1       3.534   2.616  20.663  0.00  0.00    +0.000 A 
ENDBRANCH   9  10
ENDBRANCH   4   9
TORSDOF 3
ENDMDL
MODEL 2
REMARK VINA RESULT:      -6.1      1.786      6.095
REMARK  Name = 
REMARK  4 active torsions:
REMARK  status: ('A' for Active; 'I' for Inactive)
REMARK    1  A    between atoms: C_1  and  C_2
REMARK    2  A    between atoms: C_2  and  N_3
REMARK    3  A    between atoms: N_6  and  C_7
REMARK    4  A    between atoms: C_7  and  C_8
REMARK                            x       y       z     vdW  Elec       q    Type
REMARK                         _______ _______ _______ _____ _____    ______ ____
ROOT
ATOM      1  N   UNL     1       1.437   3.939  19.336  0.00  0.00    +0.000 NA
ATOM      2  C   UNL     1       2.612   4.719  19.776  0.00  0.00    +0.000 C 
ATOM      3  C   UNL     1       3.988   4.117  19.387  0.00  0.00    +0.000 C 
ATOM      4  N   UNL     1       4.136   3.783  17.950  0.00  0.00    +0.000 NA
ATOM      5  C   UNL     1       2.964   2.978  17.538  0.00  0.00    +0.000 C 
ATOM      6  C   UNL     1       1.596   3.608  17.899  0.00  0.00    +0.000 C 
ENDROOT
BRANCH   1   8
ATOM      7  C   UNL     1       1.502   2.856  21.608  0.00  0.00    +0.000 C 
ATOM      8  C   UNL     1       1.219   2.709  20.115  0.00  0.00    +0.000 C 
ENDBRANCH   1   8
BRANCH   4   9
ATOM      9  C   UNL     1       4.290   5.017  17.155  0.00  0.00    +0.000 C 
BRANCH   9  10
ATOM     10  C   UNL     1       5.330   4.939  16.067  0.00  0.00    +0.000 A 
ATOM     11  C   UNL     1       5.096   4.266  14.864  0.00  0.00    +0.000 A 
ATOM     12  C   UNL     1       6.103   4.200  13.905  0.00  0.00    +0.000 A 
ATOM     13  C   UNL     1       7.314   4.814  14.178  0.00  0.00    +0.000 A 
ATOM     14  N   UNL     1       7.575   5.482  15.323  0.00  0.00    +0.000 NA
ATOM     15  C   UNL     1       6.580   5.526  16.236  0.00  0.00    +0.000 A 
ENDBRANCH   9  10
ENDBRANCH   4   9
TORSDOF 3
ENDMDL
MODEL 3
REMARK VINA RESULT:      -6.1      1.399      5.865
REMARK  Name = 
REMARK  4 active torsions:
REMARK  status: ('A' for Active; 'I' for Inactive)
REMARK    1  A    between atoms: C_1  and  C_2
REMARK    2  A    between atoms: C_2  and  N_3
REMARK    3  A    between atoms: N_6  and  C_7
REMARK    4  A    between atoms: C_7  and  C_8
REMARK                            x       y       z     vdW  Elec       q    Type
REMARK                         _______ _______ _______ _____ _____    ______ ____
ROOT
ATOM      1  N   UNL     1       2.729   2.236  19.412  0.00  0.00    +0.000 NA
ATOM      2  C   UNL     1       2.713   2.198  17.935  0.00  0.00    +0.000 C 
ATOM      3  C   UNL     1       2.576   3.578  17.240  0.00  0.00    +0.000 C 
ATOM      4  N   UNL     1       3.552   4.600  17.690  0.00  0.00    +0.000 NA
ATOM      5  C   UNL     1       3.530   4.641  19.169  0.00  0.00    +0.000 C 
ATOM      6  C   UNL     1       3.705   3.263  19.851  0.00  0.00    +0.000 C 
ENDROOT
BRANCH   1   8
ATOM      7  C   UNL     1       1.442   2.727  21.519  0.00  0.00    +0.000 C 
ATOM      8  C   UNL     1       1.411   2.505  20.009  0.00  0.00    +0.000 C 
ENDBRANCH   1   8
BRANCH   4   9
ATOM      9  C   UNL     1       4.890   4.299  17.147  0.00  0.00    +0.000 C 
BRANCH   9  10
ATOM     10  C   UNL     1       5.940   5.338  17.448  0.00  0.00    +0.000 A 
ATOM     11  C   UNL     1       6.897   5.156  18.450  0.00  0.00    +0.000 A 
ATOM     12  C   UNL     1       7.825   6.161  18.706  0.00  0.00    +0.000 A 
ATOM     13  C   UNL     1       7.769   7.318  17.947  0.00  0.00    +0.000 A 
ATOM     14  N   UNL     1       6.867   7.528  16.964  0.00  0.00    +0.000 NA
ATOM     15  C   UNL     1       5.977   6.536  16.741  0.00  0.00    +0.000 A 
ENDBRANCH   9  10
ENDBRANCH   4   9
TORSDOF 3
ENDMDL
MODEL 4
REMARK VINA RESULT:      -5.9      1.534      2.248
REMARK  Name = 
REMARK  4 active torsions:
REMARK  status: ('A' for Active; 'I' for Inactive)
REMARK    1  A    between atoms: C_1  and  C_2
REMARK    2  A    between atoms: C_2  and  N_3
REMARK    3  A    between atoms: N_6  and  C_7
REMARK    4  A    between atoms: C_7  and  C_8
REMARK                            x       y       z     vdW  Elec       q    Type
REMARK                         _______ _______ _______ _____ _____    ______ ____
ROOT
ATOM      1  N   UNL     1       6.706   4.145  16.156  0.00  0.00    +0.000 NA
ATOM      2  C   UNL     1       7.246   4.917  17.294  0.00  0.00    +0.000 C 
ATOM      3  C   UNL     1       6.343   6.074  17.795  0.00  0.00    +0.000 C 
ATOM      4  N   UNL     1       4.942   5.687  18.090  0.00  0.00    +0.000 NA
ATOM      5  C   UNL     1       4.413   4.941  16.926  0.00  0.00    +0.000 C 
ATOM      6  C   UNL     1       5.305   3.765  16.459  0.00  0.00    +0.000 C 
ENDROOT
BRANCH   1   8
ATOM      7  C   UNL     1       6.218   4.076  13.687  0.00  0.00    +0.000 C 
ATOM      8  C   UNL     1       6.766   4.865  14.873  0.00  0.00    +0.000 C 
ENDBRANCH   1   8
BRANCH   4   9
ATOM      9  C   UNL     1       4.883   4.908  19.342  0.00  0.00    +0.000 C 
BRANCH   9  10
ATOM     10  C   UNL     1       3.514   4.386  19.694  0.00  0.00    +0.000 A 
ATOM     11  C   UNL     1       2.487   5.231  20.126  0.00  0.00    +0.000 A 
ATOM     12  C   UNL     1       1.250   4.691  20.466  0.00  0.00    +0.000 A 
ATOM     13  C   UNL     1       1.077   3.321  20.360  0.00  0.00    +0.000 A 
ATOM     14  N   UNL     1       2.040   2.474  19.939  0.00  0.00    +0.000 NA
ATOM     15  C   UNL     1       3.231   3.025  19.618  0.00  0.00    +0.000 A 
ENDBRANCH   9  10
ENDBRANCH   4   9
TORSDOF 3
ENDMDL
MODEL 5
REMARK VINA RESULT:      -5.8      0.837      1.284
REMARK  Name = 
REMARK  4 active torsions:
REMARK  status: ('A' for Active; 'I' for Inactive)
REMARK    1  A    between atoms: C_1  and  C_2
REMARK    2  A    between atoms: C_2  and  N_3
REMARK    3  A    between atoms: N_6  and  C_7
REMARK    4  A    between atoms: C_7  and  C_8
REMARK                            x       y       z     vdW  Elec       q    Type
REMARK                         _______ _______ _______ _____ _____    ______ ____
ROOT
ATOM      1  N   UNL     1       6.933   5.456  17.776  0.00  0.00    +0.000 NA
ATOM      2  C   UNL     1       5.939   5.427  18.869  0.00  0.00    +0.000 C 
ATOM      3  C   UNL     1       4.458   5.506  18.418  0.00  0.00    +0.000 C 
ATOM      4  N   UNL     1       4.069   4.519  17.382  0.00  0.00    +0.000 NA
ATOM      5  C   UNL     1       5.061   4.585  16.285  0.00  0.00    +0.000 C 
ATOM      6  C   UNL     1       6.535   4.467  16.745  0.00  0.00    +0.000 C 
ENDROOT
BRANCH   1   8
ATOM      7  C   UNL     1       7.944   7.752  17.986  0.00  0.00    +0.000 C 
ATOM      8  C   UNL     1       7.098   6.784  17.163  0.00  0.00    +0.000 C 
ENDBRANCH   1   8
BRANCH   4   9
ATOM      9  C   UNL     1       3.966   3.173  17.978  0.00  0.00    +0.000 C 
BRANCH   9  10
ATOM     10  C   UNL     1       3.021   3.074  19.148  0.00  0.00    +0.000 A 
ATOM     11  C   UNL     1       3.461   2.730  20.430  0.00  0.00    +0.000 A 
ATOM     12  C   UNL     1       2.541   2.625  21.468  0.00  0.00    +0.000 A 
ATOM     13  C   UNL     1       1.206   2.871  21.193  0.00  0.00    +0.000 A 
ATOM     14  N   UNL     1       0.743   3.214  19.972  0.00  0.00    +0.000 NA
ATOM     15  C   UNL     1       1.659   3.306  18.983  0.00  0.00    +0.000 A 
ENDBRANCH   9  10
ENDBRANCH   4   9
TORSDOF 3
ENDMDL
MODEL 6
REMARK VINA RESULT:      -5.8      1.477      2.400
REMARK  Name = 
REMARK  4 active torsions:
REMARK  status: ('A' for Active; 'I' for Inactive)
REMARK    1  A    between atoms: C_1  and  C_2
REMARK    2  A    between atoms: C_2  and  N_3
REMARK    3  A    between atoms: N_6  and  C_7
REMARK    4  A    between atoms: C_7  and  C_8
REMARK                            x       y       z     vdW  Elec       q    Type
REMARK                         _______ _______ _______ _____ _____    ______ ____
ROOT
ATOM      1  N   UNL     1       6.309   5.757  15.760  0.00  0.00    +0.000 NA
ATOM      2  C   UNL     1       4.952   5.231  16.018  0.00  0.00    +0.000 C 
ATOM      3  C   UNL     1       4.886   4.024  16.989  0.00  0.00    +0.000 C 
ATOM      4  N   UNL     1       5.583   4.225  18.282  0.00  0.00    +0.000 NA
ATOM      5  C   UNL     1       6.949   4.723  17.998  0.00  0.00    +0.000 C 
ATOM      6  C   UNL     1       6.999   5.952  17.058  0.00  0.00    +0.000 C 
ENDROOT
BRANCH   1   8
ATOM      7  C   UNL     1       6.316   4.161  13.813  0.00  0.00    +0.000 C 
ATOM      8  C   UNL     1       7.119   4.895  14.883  0.00  0.00    +0.000 C 
ENDBRANCH   1   8
BRANCH   4   9
ATOM      9  C   UNL     1       4.808   5.141  19.140  0.00  0.00    +0.000 C 
BRANCH   9  10
ATOM     10  C   UNL     1       3.561   4.540  19.737  0.00  0.00    +0.000 A 
ATOM     11  C   UNL     1       2.400   5.291  19.940  0.00  0.00    +0.000 A 
ATOM     12  C   UNL     1       1.286   4.692  20.522  0.00  0.00    +0.000 A 
ATOM     13  C   UNL     1       1.368   3.357  20.881  0.00  0.00    +0.000 A 
ATOM     14  N   UNL     1       2.468   2.596  20.694  0.00  0.00    +0.000 NA
ATOM     15  C   UNL     1       3.534   3.205  20.129  0.00  0.00    +0.000 A 
ENDBRANCH   9  10
ENDBRANCH   4   9
TORSDOF 3
ENDMDL
MODEL 7
REMARK VINA RESULT:      -5.8      1.960      6.165
REMARK  Name = 
REMARK  4 active torsions:
REMARK  status: ('A' for Active; 'I' for Inactive)
REMARK    1  A    between atoms: C_1  and  C_2
REMARK    2  A    between atoms: C_2  and  N_3
REMARK    3  A    between atoms: N_6  and  C_7
REMARK    4  A    between atoms: C_7  and  C_8
REMARK                            x       y       z     vdW  Elec       q    Type
REMARK                         _______ _______ _______ _____ _____    ______ ____
ROOT
ATOM      1  N   UNL     1       2.247   3.534  19.276  0.00  0.00    +0.000 NA
ATOM      2  C   UNL     1       2.087   4.470  18.144  0.00  0.00    +0.000 C 
ATOM      3  C   UNL     1       3.338   5.324  17.811  0.00  0.00    +0.000 C 
ATOM      4  N   UNL     1       4.589   4.549  17.629  0.00  0.00    +0.000 NA
ATOM      5  C   UNL     1       4.744   3.640  18.787  0.00  0.00    +0.000 C 
ATOM      6  C   UNL     1       3.501   2.767  19.086  0.00  0.00    +0.000 C 
ENDROOT
BRANCH   1   8
ATOM      7  C   UNL     1       2.081   3.242  21.771  0.00  0.00    +0.000 C 
ATOM      8  C   UNL     1       2.255   4.195  20.591  0.00  0.00    +0.000 C 
ENDBRANCH   1   8
BRANCH   4   9
ATOM      9  C   UNL     1       4.559   3.831  16.340  0.00  0.00    +0.000 C 
BRANCH   9  10
ATOM     10  C   UNL     1       5.616   4.263  15.355  0.00  0.00    +0.000 A 
ATOM     11  C   UNL     1       5.590   3.860  14.017  0.00  0.00    +0.000 A 
ATOM     12  C   UNL     1       6.607   4.264  13.157  0.00  0.00    +0.000 A 
ATOM     13  C   UNL     1       7.619   5.063  13.663  0.00  0.00    +0.000 A 
ATOM     14  N   UNL     1       7.674   5.481  14.946  0.00  0.00    +0.000 NA
ATOM     15  C   UNL     1       6.675   5.071  15.758  0.00  0.00    +0.000 A 
ENDBRANCH   9  10
ENDBRANCH   4   9
TORSDOF 3
ENDMDL
MODEL 8
REMARK VINA RESULT:      -5.8      1.199      1.792
REMARK  Name = 
REMARK  4 active torsions:
REMARK  status: ('A' for Active; 'I' for Inactive)
REMARK    1  A    between atoms: C_1  and  C_2
REMARK    2  A    between atoms: C_2  and  N_3
REMARK    3  A    between atoms: N_6  and  C_7
REMARK    4  A    between atoms: C_7  and  C_8
REMARK                            x       y       z     vdW  Elec       q    Type
REMARK                         _______ _______ _______ _____ _____    ______ ____
ROOT
ATOM      1  N   UNL     1       5.724   6.573  17.196  0.00  0.00    +0.000 NA
ATOM      2  C   UNL     1       5.216   5.850  16.012  0.00  0.00    +0.000 C 
ATOM      3  C   UNL     1       5.268   4.303  16.112  0.00  0.00    +0.000 C 
ATOM      4  N   UNL     1       4.644   3.737  17.332  0.00  0.00    +0.000 NA
ATOM      5  C   UNL     1       5.189   4.456  18.506  0.00  0.00    +0.000 C 
ATOM      6  C   UNL     1       5.097   5.999  18.411  0.00  0.00    +0.000 C 
ENDROOT
BRANCH   1   8
ATOM      7  C   UNL     1       7.820   7.899  17.625  0.00  0.00    +0.000 C 
ATOM      8  C   UNL     1       7.190   6.543  17.323  0.00  0.00    +0.000 C 
ENDBRANCH   1   8
BRANCH   4   9
ATOM      9  C   UNL     1       3.175   3.825  17.240  0.00  0.00    +0.000 C 
BRANCH   9  10
ATOM     10  C   UNL     1       2.446   3.564  18.534  0.00  0.00    +0.000 A 
ATOM     11  C   UNL     1       1.732   4.565  19.198  0.00  0.00    +0.000 A 
ATOM     12  C   UNL     1       1.102   4.276  20.405  0.00  0.00    +0.000 A 
ATOM     13  C   UNL     1       1.203   2.990  20.910  0.00  0.00    +0.000 A 
ATOM     14  N   UNL     1       1.875   1.994  20.294  0.00  0.00    +0.000 NA
ATOM     15  C   UNL     1       2.479   2.304  19.126  0.00  0.00    +0.000 A 
ENDBRANCH   9  10
ENDBRANCH   4   9
TORSDOF 3
ENDMDL
MODEL 9
REMARK VINA RESULT:      -5.7      1.666      5.865
REMARK  Name = 
REMARK  4 active torsions:
REMARK  status: ('A' for Active; 'I' for Inactive)
REMARK    1  A    between atoms: C_1  and  C_2
REMARK    2  A    between atoms: C_2  and  N_3
REMARK    3  A    between atoms: N_6  and  C_7
REMARK    4  A    between atoms: C_7  and  C_8
REMARK                            x       y       z     vdW  Elec       q    Type
REMARK                         _______ _______ _______ _____ _____    ______ ____
ROOT
ATOM      1  N   UNL     1       1.691   2.985  17.974  0.00  0.00    +0.000 NA
ATOM      2  C   UNL     1       2.112   4.401  17.920  0.00  0.00    +0.000 C 
ATOM      3  C   UNL     1       3.263   4.784  18.885  0.00  0.00    +0.000 C 
ATOM      4  N   UNL     1       4.463   3.916  18.799  0.00  0.00    +0.000 NA
ATOM      5  C   UNL     1       4.020   2.506  18.885  0.00  0.00    +0.000 C 
ATOM      6  C   UNL     1       2.896   2.126  17.890  0.00  0.00    +0.000 C 
ENDROOT
BRANCH   1   8
ATOM      7  C   UNL     1       0.781   3.790  20.179  0.00  0.00    +0.000 C 
ATOM      8  C   UNL     1       0.913   2.646  19.177  0.00  0.00    +0.000 C 
ENDBRANCH   1   8
BRANCH   4   9
ATOM      9  C   UNL     1       5.212   4.206  17.562  0.00  0.00    +0.000 C 
BRANCH   9  10
ATOM     10  C   UNL     1       6.143   5.388  17.652  0.00  0.00    +0.000 A 
ATOM     11  C   UNL     1       7.186   5.441  18.580  0.00  0.00    +0.000 A 
ATOM     12  C   UNL     1       7.998   6.570  18.639  0.00  0.00    +0.000 A 
ATOM     13  C   UNL     1       7.742   7.612  17.764  0.00  0.00    +0.000 A 
ATOM     14  N   UNL     1       6.751   7.595  16.847  0.00  0.00    +0.000 NA
ATOM     15  C   UNL     1       5.977   6.488  16.814  0.00  0.00    +0.000 A 
ENDBRANCH   9  10
ENDBRANCH   4   9
TORSDOF 3
ENDMDL
