MODEL 1
REMARK VINA RESULT:      -7.8      0.000      0.000
REMARK  Name = 
REMARK  8 active torsions:
REMARK  status: ('A' for Active; 'I' for Inactive)
REMARK    1  A    between atoms: C_1  and  C_2
REMARK    2  A    between atoms: C_2  and  N_3
REMARK    3  A    between atoms: N_6  and  C_7
REMARK    4  A    between atoms: C_7  and  C_8
REMARK    5  A    between atoms: N_11  and  C_12
REMARK    6  A    between atoms: C_12  and  C_13
REMARK    7  A    between atoms: C_18  and  C_19
REMARK    8  A    between atoms: C_23  and  O_24
REMARK                            x       y       z     vdW  Elec       q    Type
REMARK                         _______ _______ _______ _____ _____    ______ ____
ROOT
ATOM      1  C   UNL     1       1.994   2.346  19.002  0.00  0.00    +0.000 C 
ATOM      2  C   UNL     1       2.571   2.335  20.413  0.00  0.00    +0.000 C 
ATOM      3  C   UNL     1       1.576   3.195  21.172  0.00  0.00    +0.000 C 
ATOM      4  N   UNL     1       1.269   4.308  20.252  0.00  0.00    +0.000 NA
ATOM      5  C   UNL     1       1.241   3.682  18.912  0.00  0.00    +0.000 C 
ENDROOT
BRANCH   1   6
ATOM      6  C   UNL     1       3.059   2.172  17.922  0.00  0.00    +0.000 C 
BRANCH   6  10
ATOM      7  N   UNL     1       6.031   4.174  18.562  0.00  0.00    +0.000 N 
ATOM      8  C   UNL     1       4.821   3.883  17.982  0.00  0.00    +0.000 C 
ATOM      9  O   UNL     1       4.221   4.641  17.230  0.00  0.00    +0.000 OA
ATOM     10  N   UNL     1       4.363   2.647  18.353  0.00  0.00    +0.000 N 
ATOM     11  H   UNL     1       6.570   3.403  18.915  0.00  0.00    +0.000 HD
ATOM     12  H   UNL     1       4.766   2.237  19.180  0.00  0.00    +0.000 HD
BRANCH   7  14
ATOM     13  C   UNL     1       7.792   5.738  19.284  0.00  0.00    +0.000 C 
ATOM     14  C   UNL     1       6.724   5.409  18.255  0.00  0.00    +0.000 C 
ENDBRANCH   7  14
ENDBRANCH   6  10
ENDBRANCH   1   6
BRANCH   4  15
ATOM     15  C   UNL     1       2.315   5.350  20.346  0.00  0.00    +0.000 C 
BRANCH  15  16
ATOM     16  C   UNL     1       1.793   6.761  20.271  0.00  0.00    +0.000 A 
ATOM     17  C   UNL     1       1.045   7.325  21.305  0.00  0.00    +0.000 A 
ATOM     18  C   UNL     1       0.663   8.674  21.245  0.00  0.00    +0.000 A 
ATOM     19  C   UNL     1      -0.071   9.281  22.278  0.00  0.00    +0.000 A 
ATOM     20  C   UNL     1      -0.386  10.638  22.218  0.00  0.00    +0.000 A 
ATOM     21  C   UNL     1       0.025  11.403  21.125  0.00  0.00    +0.000 A 
ATOM     22  C   UNL     1      -0.262  12.872  21.054  0.00  0.00    +0.000 C 
ATOM     23  C   UNL     1       0.725  10.774  20.081  0.00  0.00    +0.000 A 
ATOM     24  C   UNL     1       1.054   9.426  20.117  0.00  0.00    +0.000 A 
ATOM     25  N   UNL     1       1.743   8.888  19.096  0.00  0.00    +0.000 NA
ATOM     26  C   UNL     1       2.085   7.593  19.205  0.00  0.00    +0.000 A 
BRANCH  26  27
ATOM     27  O   UNL     1       2.773   7.147  18.123  0.00  0.00    +0.000 OA
ATOM     28  H   UNL     1       2.086   7.262  17.441  0.00  0.00    +0.000 HD
ENDBRANCH  26  27
ENDBRANCH  15  16
ENDBRANCH   4  15
TORSDOF 6
ENDMDL
MODEL 2
REMARK VINA RESULT:      -7.7      0.915      1.075
REMARK  Name = 
REMARK  8 active torsions:
REMARK  status: ('A' for Active; 'I' for Inactive)
REMARK    1  A    between atoms: C_1  and  C_2
REMARK    2  A    between atoms: C_2  and  N_3
REMARK    3  A    between atoms: N_6  and  C_7
REMARK    4  A    between atoms: C_7  and  C_8
REMARK    5  A    between atoms: N_11  and  C_12
REMARK    6  A    between atoms: C_12  and  C_13
REMARK    7  A    between atoms: C_18  and  C_19
REMARK    8  A    between atoms: C_23  and  O_24
REMARK                            x       y       z     vdW  Elec       q    Type
REMARK                         _______ _______ _______ _____ _____    ______ ____
ROOT
ATOM      1  C   UNL     1       2.111   2.509  19.224  0.00  0.00    +0.000 C 
ATOM      2  C   UNL     1       2.831   2.533  20.567  0.00  0.00    +0.000 C 
ATOM      3  C   UNL     1       1.924   3.424  21.399  0.00  0.00    +0.000 C 
ATOM      4  N   UNL     1       1.530   4.512  20.483  0.00  0.00    +0.000 NA
ATOM      5  C   UNL     1       1.360   3.848  19.173  0.00  0.00    +0.000 C 
ENDROOT
BRANCH   1   6
ATOM      6  C   UNL     1       3.057   2.295  18.044  0.00  0.00    +0.000 C 
BRANCH   6  10
ATOM      7  N   UNL     1       6.284   3.980  18.078  0.00  0.00    +0.000 N 
ATOM      8  C   UNL     1       5.045   3.661  17.578  0.00  0.00    +0.000 C 
ATOM      9  O   UNL     1       4.562   4.163  16.571  0.00  0.00    +0.000 OA
ATOM     10  N   UNL     1       4.415   2.718  18.345  0.00  0.00    +0.000 N 
ATOM     11  H   UNL     1       6.706   3.328  18.715  0.00  0.00    +0.000 HD
ATOM     12  H   UNL     1       4.754   2.589  19.284  0.00  0.00    +0.000 HD
BRANCH   7  14
ATOM     13  C   UNL     1       7.173   6.277  18.054  0.00  0.00    +0.000 C 
ATOM     14  C   UNL     1       7.146   4.914  17.384  0.00  0.00    +0.000 C 
ENDBRANCH   7  14
ENDBRANCH   6  10
ENDBRANCH   1   6
BRANCH   4  15
ATOM     15  C   UNL     1       2.586   5.547  20.439  0.00  0.00    +0.000 C 
BRANCH  15  16
ATOM     16  C   UNL     1       2.122   6.884  19.925  0.00  0.00    +0.000 A 
ATOM     17  C   UNL     1       1.342   7.741  20.702  0.00  0.00    +0.000 A 
ATOM     18  C   UNL     1       1.014   9.022  20.229  0.00  0.00    +0.000 A 
ATOM     19  C   UNL     1       0.249   9.918  20.994  0.00  0.00    +0.000 A 
ATOM     20  C   UNL     1      -0.011  11.205  20.522  0.00  0.00    +0.000 A 
ATOM     21  C   UNL     1       0.486  11.608  19.282  0.00  0.00    +0.000 A 
ATOM     22  C   UNL     1       0.257  12.998  18.769  0.00  0.00    +0.000 C 
ATOM     23  C   UNL     1       1.217  10.688  18.511  0.00  0.00    +0.000 A 
ATOM     24  C   UNL     1       1.492   9.403  18.958  0.00  0.00    +0.000 A 
ATOM     25  N   UNL     1       2.214   8.576  18.182  0.00  0.00    +0.000 NA
ATOM     26  C   UNL     1       2.501   7.363  18.684  0.00  0.00    +0.000 A 
BRANCH  26  27
ATOM     27  O   UNL     1       3.229   6.607  17.823  0.00  0.00    +0.000 OA
ATOM     28  H   UNL     1       3.746   6.088  18.466  0.00  0.00    +0.000 HD
ENDBRANCH  26  27
ENDBRANCH  15  16
ENDBRANCH   4  15
TORSDOF 6
ENDMDL
MODEL 3
REMARK VINA RESULT:      -7.7      2.387      2.883
REMARK  Name = 
REMARK  8 active torsions:
REMARK  status: ('A' for Active; 'I' for Inactive)
REMARK    1  A    between atoms: C_1  and  C_2
REMARK    2  A    between atoms: C_2  and  N_3
REMARK    3  A    between atoms: N_6  and  C_7
REMARK    4  A    between atoms: C_7  and  C_8
REMARK    5  A    between atoms: N_11  and  C_12
REMARK    6  A    between atoms: C_12  and  C_13
REMARK    7  A    between atoms: C_18  and  C_19
REMARK    8  A    between atoms: C_23  and  O_24
REMARK                            x       y       z     vdW  Elec       q    Type
REMARK                         _______ _______ _______ _____ _____    ______ ____
ROOT
ATOM      1  C   UNL     1       4.026   4.066  17.913  0.00  0.00    +0.000 C 
ATOM      2  C   UNL     1       3.825   3.840  19.407  0.00  0.00    +0.000 C 
ATOM      3  C   UNL     1       2.413   4.358  19.620  0.00  0.00    +0.000 C 
ATOM      4  N   UNL     1       2.338   5.582  18.799  0.00  0.00    +0.000 NA
ATOM      5  C   UNL     1       3.119   5.260  17.584  0.00  0.00    +0.000 C 
ENDROOT
BRANCH   1   6
ATOM      6  C   UNL     1       5.489   4.290  17.536  0.00  0.00    +0.000 C 
BRANCH   6  10
ATOM      7  N   UNL     1       6.316   3.345  14.119  0.00  0.00    +0.000 N 
ATOM      8  C   UNL     1       5.846   4.173  15.108  0.00  0.00    +0.000 C 
ATOM      9  O   UNL     1       5.461   5.320  14.917  0.00  0.00    +0.000 OA
ATOM     10  N   UNL     1       5.865   3.564  16.335  0.00  0.00    +0.000 N 
ATOM     11  H   UNL     1       6.330   2.359  14.312  0.00  0.00    +0.000 HD
ATOM     12  H   UNL     1       6.457   2.755  16.436  0.00  0.00    +0.000 HD
BRANCH   7  14
ATOM     13  C   UNL     1       5.105   3.277  11.975  0.00  0.00    +0.000 C 
ATOM     14  C   UNL     1       6.324   3.771  12.735  0.00  0.00    +0.000 C 
ENDBRANCH   7  14
ENDBRANCH   6  10
ENDBRANCH   1   6
BRANCH   4  15
ATOM     15  C   UNL     1       2.920   6.725  19.535  0.00  0.00    +0.000 C 
BRANCH  15  16
ATOM     16  C   UNL     1       1.932   7.808  19.881  0.00  0.00    +0.000 A 
ATOM     17  C   UNL     1       1.389   7.927  21.161  0.00  0.00    +0.000 A 
ATOM     18  C   UNL     1       0.550   9.009  21.474  0.00  0.00    +0.000 A 
ATOM     19  C   UNL     1       0.004   9.173  22.758  0.00  0.00    +0.000 A 
ATOM     20  C   UNL     1      -0.779  10.288  23.055  0.00  0.00    +0.000 A 
ATOM     21  C   UNL     1      -1.027  11.249  22.074  0.00  0.00    +0.000 A 
ATOM     22  C   UNL     1      -1.829  12.479  22.377  0.00  0.00    +0.000 C 
ATOM     23  C   UNL     1      -0.506  11.053  20.783  0.00  0.00    +0.000 A 
ATOM     24  C   UNL     1       0.278   9.953  20.461  0.00  0.00    +0.000 A 
ATOM     25  N   UNL     1       0.763   9.833  19.214  0.00  0.00    +0.000 NA
ATOM     26  C   UNL     1       1.563   8.780  18.969  0.00  0.00    +0.000 A 
BRANCH  26  27
ATOM     27  O   UNL     1       1.996   8.749  17.682  0.00  0.00    +0.000 OA
ATOM     28  H   UNL     1       1.199   8.384  17.256  0.00  0.00    +0.000 HD
ENDBRANCH  26  27
ENDBRANCH  15  16
ENDBRANCH   4  15
TORSDOF 6
ENDMDL
MODEL 4
REMARK VINA RESULT:      -7.6      3.350      4.898
REMARK  Name = 
REMARK  8 active torsions:
REMARK  status: ('A' for Active; 'I' for Inactive)
REMARK    1  A    between atoms: C_1  and  C_2
REMARK    2  A    between atoms: C_2  and  N_3
REMARK    3  A    between atoms: N_6  and  C_7
REMARK    4  A    between atoms: C_7  and  C_8
REMARK    5  A    between atoms: N_11  and  C_12
REMARK    6  A    between atoms: C_12  and  C_13
REMARK    7  A    between atoms: C_18  and  C_19
REMARK    8  A    between atoms: C_23  and  O_24
REMARK                            x       y       z     vdW  Elec       q    Type
REMARK                         _______ _______ _______ _____ _____    ______ ____
ROOT
ATOM      1  C   UNL     1       7.081   4.821  16.294  0.00  0.00    +0.000 C 
ATOM      2  C   UNL     1       6.887   6.210  16.891  0.00  0.00    +0.000 C 
ATOM      3  C   UNL     1       6.149   5.902  18.183  0.00  0.00    +0.000 C 
ATOM      4  N   UNL     1       5.178   4.854  17.814  0.00  0.00    +0.000 NA
ATOM      5  C   UNL     1       5.901   4.005  16.842  0.00  0.00    +0.000 C 
ENDROOT
BRANCH   1   6
ATOM      6  C   UNL     1       7.157   4.835  14.769  0.00  0.00    +0.000 C 
BRANCH   6  10
ATOM      7  N   UNL     1       4.698   3.373  12.518  0.00  0.00    +0.000 N 
ATOM      8  C   UNL     1       5.934   3.848  12.881  0.00  0.00    +0.000 C 
ATOM      9  O   UNL     1       6.920   3.816  12.155  0.00  0.00    +0.000 OA
ATOM     10  N   UNL     1       5.932   4.355  14.152  0.00  0.00    +0.000 N 
ATOM     11  H   UNL     1       3.906   3.698  13.045  0.00  0.00    +0.000 HD
ATOM     12  H   UNL     1       5.176   4.076  14.757  0.00  0.00    +0.000 HD
BRANCH   7  14
ATOM     13  C   UNL     1       3.364   3.600  10.459  0.00  0.00    +0.000 C 
ATOM     14  C   UNL     1       4.464   2.848  11.189  0.00  0.00    +0.000 C 
ENDBRANCH   7  14
ENDBRANCH   6  10
ENDBRANCH   1   6
BRANCH   4  15
ATOM     15  C   UNL     1       3.972   5.466  17.215  0.00  0.00    +0.000 C 
BRANCH  15  16
ATOM     16  C   UNL     1       3.252   6.431  18.119  0.00  0.00    +0.000 A 
ATOM     17  C   UNL     1       2.874   7.703  17.686  0.00  0.00    +0.000 A 
ATOM     18  C   UNL     1       2.116   8.537  18.523  0.00  0.00    +0.000 A 
ATOM     19  C   UNL     1       1.699   9.814  18.111  0.00  0.00    +0.000 A 
ATOM     20  C   UNL     1       0.897  10.596  18.942  0.00  0.00    +0.000 A 
ATOM     21  C   UNL     1       0.505  10.114  20.191  0.00  0.00    +0.000 A 
ATOM     22  C   UNL     1      -0.392  10.915  21.086  0.00  0.00    +0.000 C 
ATOM     23  C   UNL     1       0.960   8.851  20.605  0.00  0.00    +0.000 A 
ATOM     24  C   UNL     1       1.757   8.051  19.798  0.00  0.00    +0.000 A 
ATOM     25  N   UNL     1       2.143   6.843  20.243  0.00  0.00    +0.000 NA
ATOM     26  C   UNL     1       2.867   6.084  19.402  0.00  0.00    +0.000 A 
BRANCH  26  27
ATOM     27  O   UNL     1       3.207   4.889  19.947  0.00  0.00    +0.000 OA
ATOM     28  H   UNL     1       4.172   4.923  19.812  0.00  0.00    +0.000 HD
ENDBRANCH  26  27
ENDBRANCH  15  16
ENDBRANCH   4  15
TORSDOF 6
ENDMDL
MODEL 5
REMARK VINA RESULT:      -7.5      1.878      4.029
REMARK  Name = 
REMARK  8 active torsions:
REMARK  status: ('A' for Active; 'I' for Inactive)
REMARK    1  A    between atoms: C_1  and  C_2
REMARK    2  A    between atoms: C_2  and  N_3
REMARK    3  A    between atoms: N_6  and  C_7
REMARK    4  A    between atoms: C_7  and  C_8
REMARK    5  A    between atoms: N_11  and  C_12
REMARK    6  A    between atoms: C_12  and  C_13
REMARK    7  A    between atoms: C_18  and  C_19
REMARK    8  A    between atoms: C_23  and  O_24
REMARK                            x       y       z     vdW  Elec       q    Type
REMARK                         _______ _______ _______ _____ _____    ______ ____
ROOT
ATOM      1  C   UNL     1       6.932   6.038  16.831  0.00  0.00    +0.000 C 
ATOM      2  C   UNL     1       6.035   5.271  15.866  0.00  0.00    +0.000 C 
ATOM      3  C   UNL     1       5.072   6.350  15.401  0.00  0.00    +0.000 C 
ATOM      4  N   UNL     1       4.760   7.121  16.620  0.00  0.00    +0.000 NA
ATOM      5  C   UNL     1       6.037   7.167  17.364  0.00  0.00    +0.000 C 
ENDROOT
BRANCH   1   6
ATOM      6  C   UNL     1       7.519   5.154  17.929  0.00  0.00    +0.000 C 
BRANCH   6  10
ATOM      7  N   UNL     1       5.020   2.809  19.156  0.00  0.00    +0.000 N 
ATOM      8  C   UNL     1       5.726   3.986  19.135  0.00  0.00    +0.000 C 
ATOM      9  O   UNL     1       5.502   4.933  19.879  0.00  0.00    +0.000 OA
ATOM     10  N   UNL     1       6.706   3.976  18.180  0.00  0.00    +0.000 N 
ATOM     11  H   UNL     1       5.449   2.006  18.729  0.00  0.00    +0.000 HD
ATOM     12  H   UNL     1       6.623   3.293  17.444  0.00  0.00    +0.000 HD
BRANCH   7  14
ATOM     13  C   UNL     1       2.627   2.326  19.485  0.00  0.00    +0.000 C 
ATOM     14  C   UNL     1       3.976   2.585  20.134  0.00  0.00    +0.000 C 
ENDBRANCH   7  14
ENDBRANCH   6  10
ENDBRANCH   1   6
BRANCH   4  15
ATOM     15  C   UNL     1       3.699   6.441  17.395  0.00  0.00    +0.000 C 
BRANCH  15  16
ATOM     16  C   UNL     1       2.884   7.358  18.268  0.00  0.00    +0.000 A 
ATOM     17  C   UNL     1       2.390   8.576  17.797  0.00  0.00    +0.000 A 
ATOM     18  C   UNL     1       1.550   9.357  18.606  0.00  0.00    +0.000 A 
ATOM     19  C   UNL     1       1.016  10.576  18.156  0.00  0.00    +0.000 A 
ATOM     20  C   UNL     1       0.137  11.301  18.959  0.00  0.00    +0.000 A 
ATOM     21  C   UNL     1      -0.216  10.819  20.221  0.00  0.00    +0.000 A 
ATOM     22  C   UNL     1      -1.192  11.556  21.088  0.00  0.00    +0.000 C 
ATOM     23  C   UNL     1       0.354   9.617  20.673  0.00  0.00    +0.000 A 
ATOM     24  C   UNL     1       1.230   8.874  19.893  0.00  0.00    +0.000 A 
ATOM     25  N   UNL     1       1.727   7.722  20.374  0.00  0.00    +0.000 NA
ATOM     26  C   UNL     1       2.525   7.012  19.558  0.00  0.00    +0.000 A 
BRANCH  26  27
ATOM     27  O   UNL     1       2.975   5.871  20.140  0.00  0.00    +0.000 OA
ATOM     28  H   UNL     1       3.573   6.258  20.805  0.00  0.00    +0.000 HD
ENDBRANCH  26  27
ENDBRANCH  15  16
ENDBRANCH   4  15
TORSDOF 6
ENDMDL
MODEL 6
REMARK VINA RESULT:      -7.4      1.742      3.841
REMARK  Name = 
REMARK  8 active torsions:
REMARK  status: ('A' for Active; 'I' for Inactive)
REMARK    1  A    between atoms: C_1  and  C_2
REMARK    2  A    between atoms: C_2  and  N_3
REMARK    3  A    between atoms: N_6  and  C_7
REMARK    4  A    between atoms: C_7  and  C_8
REMARK    5  A    between atoms: N_11  and  C_12
REMARK    6  A    between atoms: C_12  and  C_13
REMARK    7  A    between atoms: C_18  and  C_19
REMARK    8  A    between atoms: C_23  and  O_24
REMARK                            x       y       z     vdW  Elec       q    Type
REMARK                         _______ _______ _______ _____ _____    ______ ____
ROOT
ATOM      1  C   UNL     1       6.334   5.360  16.968  0.00  0.00    +0.000 C 
ATOM      2  C   UNL     1       5.420   5.351  15.748  0.00  0.00    +0.000 C 
ATOM      3  C   UNL     1       4.915   6.784  15.717  0.00  0.00    +0.000 C 
ATOM      4  N   UNL     1       4.652   7.115  17.131  0.00  0.00    +0.000 NA
ATOM      5  C   UNL     1       5.743   6.449  17.876  0.00  0.00    +0.000 C 
ENDROOT
BRANCH   1   6
ATOM      6  C   UNL     1       6.439   3.995  17.643  0.00  0.00    +0.000 C 
BRANCH   6  10
ATOM      7  N   UNL     1       3.745   3.152  19.941  0.00  0.00    +0.000 N 
ATOM      8  C   UNL     1       4.375   3.215  18.723  0.00  0.00    +0.000 C 
ATOM      9  O   UNL     1       3.926   2.727  17.693  0.00  0.00    +0.000 OA
ATOM     10  N   UNL     1       5.567   3.884  18.800  0.00  0.00    +0.000 N 
ATOM     11  H   UNL     1       4.031   3.812  20.643  0.00  0.00    +0.000 HD
ATOM     12  H   UNL     1       5.978   3.985  19.714  0.00  0.00    +0.000 HD
BRANCH   7  14
ATOM     13  C   UNL     1       1.801   2.829  21.420  0.00  0.00    +0.000 C 
ATOM     14  C   UNL     1       2.439   2.540  20.072  0.00  0.00    +0.000 C 
ENDBRANCH   7  14
ENDBRANCH   6  10
ENDBRANCH   1   6
BRANCH   4  15
ATOM     15  C   UNL     1       3.323   6.604  17.535  0.00  0.00    +0.000 C 
BRANCH  15  16
ATOM     16  C   UNL     1       2.575   7.504  18.483  0.00  0.00    +0.000 A 
ATOM     17  C   UNL     1       2.010   8.709  18.062  0.00  0.00    +0.000 A 
ATOM     18  C   UNL     1       1.233   9.472  18.949  0.00  0.00    +0.000 A 
ATOM     19  C   UNL     1       0.631  10.677  18.553  0.00  0.00    +0.000 A 
ATOM     20  C   UNL     1      -0.184  11.383  19.438  0.00  0.00    +0.000 A 
ATOM     21  C   UNL     1      -0.402  10.895  20.727  0.00  0.00    +0.000 A 
ATOM     22  C   UNL     1      -1.306  11.611  21.685  0.00  0.00    +0.000 C 
ATOM     23  C   UNL     1       0.237   9.708  21.122  0.00  0.00    +0.000 A 
ATOM     24  C   UNL     1       1.051   8.985  20.260  0.00  0.00    +0.000 A 
ATOM     25  N   UNL     1       1.618   7.845  20.691  0.00  0.00    +0.000 NA
ATOM     26  C   UNL     1       2.350   7.153  19.802  0.00  0.00    +0.000 A 
BRANCH  26  27
ATOM     27  O   UNL     1       2.880   6.023  20.337  0.00  0.00    +0.000 OA
ATOM     28  H   UNL     1       2.383   5.996  21.174  0.00  0.00    +0.000 HD
ENDBRANCH  26  27
ENDBRANCH  15  16
ENDBRANCH   4  15
TORSDOF 6
ENDMDL
MODEL 7
REMARK VINA RESULT:      -7.4      2.112      2.809
REMARK  Name = 
REMARK  8 active torsions:
REMARK  status: ('A' for Active; 'I' for Inactive)
REMARK    1  A    between atoms: C_1  and  C_2
REMARK    2  A    between atoms: C_2  and  N_3
REMARK    3  A    between atoms: N_6  and  C_7
REMARK    4  A    between atoms: C_7  and  C_8
REMARK    5  A    between atoms: N_11  and  C_12
REMARK    6  A    between atoms: C_12  and  C_13
REMARK    7  A    between atoms: C_18  and  C_19
REMARK    8  A    between atoms: C_23  and  O_24
REMARK                            x       y       z     vdW  Elec       q    Type
REMARK                         _______ _______ _______ _____ _____    ______ ____
ROOT
ATOM      1  C   UNL     1       4.884   4.335  18.057  0.00  0.00    +0.000 C 
ATOM      2  C   UNL     1       5.015   5.028  19.408  0.00  0.00    +0.000 C 
ATOM      3  C   UNL     1       3.563   5.272  19.784  0.00  0.00    +0.000 C 
ATOM      4  N   UNL     1       2.921   5.699  18.525  0.00  0.00    +0.000 NA
ATOM      5  C   UNL     1       3.564   4.871  17.482  0.00  0.00    +0.000 C 
ENDROOT
BRANCH   1   6
ATOM      6  C   UNL     1       6.087   4.573  17.146  0.00  0.00    +0.000 C 
BRANCH   6  10
ATOM      7  N   UNL     1       7.960   7.545  18.100  0.00  0.00    +0.000 N 
ATOM      8  C   UNL     1       7.040   6.825  17.378  0.00  0.00    +0.000 C 
ATOM      9  O   UNL     1       6.305   7.310  16.527  0.00  0.00    +0.000 OA
ATOM     10  N   UNL     1       7.041   5.501  17.727  0.00  0.00    +0.000 N 
ATOM     11  H   UNL     1       8.699   7.032  18.547  0.00  0.00    +0.000 HD
ATOM     12  H   UNL     1       7.456   5.261  18.614  0.00  0.00    +0.000 HD
BRANCH   7  14
ATOM     13  C   UNL     1       8.964   9.628  18.948  0.00  0.00    +0.000 C 
ATOM     14  C   UNL     1       8.165   8.955  17.844  0.00  0.00    +0.000 C 
ENDBRANCH   7  14
ENDBRANCH   6  10
ENDBRANCH   1   6
BRANCH   4  15
ATOM     15  C   UNL     1       3.154   7.142  18.299  0.00  0.00    +0.000 C 
BRANCH  15  16
ATOM     16  C   UNL     1       2.169   8.046  18.993  0.00  0.00    +0.000 A 
ATOM     17  C   UNL     1       1.785   7.836  20.318  0.00  0.00    +0.000 A 
ATOM     18  C   UNL     1       0.944   8.757  20.964  0.00  0.00    +0.000 A 
ATOM     19  C   UNL     1       0.556   8.590  22.303  0.00  0.00    +0.000 A 
ATOM     20  C   UNL     1      -0.232   9.551  22.935  0.00  0.00    +0.000 A 
ATOM     21  C   UNL     1      -0.644  10.686  22.236  0.00  0.00    +0.000 A 
ATOM     22  C   UNL     1      -1.456  11.756  22.902  0.00  0.00    +0.000 C 
ATOM     23  C   UNL     1      -0.280  10.822  20.885  0.00  0.00    +0.000 A 
ATOM     24  C   UNL     1       0.506   9.881  20.233  0.00  0.00    +0.000 A 
ATOM     25  N   UNL     1       0.837  10.078  18.945  0.00  0.00    +0.000 NA
ATOM     26  C   UNL     1       1.646   9.168  18.377  0.00  0.00    +0.000 A 
BRANCH  26  27
ATOM     27  O   UNL     1       1.916   9.457  17.078  0.00  0.00    +0.000 OA
ATOM     28  H   UNL     1       1.012   9.649  16.768  0.00  0.00    +0.000 HD
ENDBRANCH  26  27
ENDBRANCH  15  16
ENDBRANCH   4  15
TORSDOF 6
ENDMDL
MODEL 8
REMARK VINA RESULT:      -7.4      1.403      1.543
REMARK  Name = 
REMARK  8 active torsions:
REMARK  status: ('A' for Active; 'I' for Inactive)
REMARK    1  A    between atoms: C_1  and  C_2
REMARK    2  A    between atoms: C_2  and  N_3
REMARK    3  A    between atoms: N_6  and  C_7
REMARK    4  A    between atoms: C_7  and  C_8
REMARK    5  A    between atoms: N_11  and  C_12
REMARK    6  A    between atoms: C_12  and  C_13
REMARK    7  A    between atoms: C_18  and  C_19
REMARK    8  A    between atoms: C_23  and  O_24
REMARK                            x       y       z     vdW  Elec       q    Type
REMARK                         _______ _______ _______ _____ _____    ______ ____
ROOT
ATOM      1  C   UNL     1       2.942   3.184  19.513  0.00  0.00    +0.000 C 
ATOM      2  C   UNL     1       2.452   3.672  20.872  0.00  0.00    +0.000 C 
ATOM      3  C   UNL     1       1.282   4.561  20.488  0.00  0.00    +0.000 C 
ATOM      4  N   UNL     1       1.749   5.297  19.298  0.00  0.00    +0.000 NA
ATOM      5  C   UNL     1       2.551   4.309  18.544  0.00  0.00    +0.000 C 
ENDROOT
BRANCH   1   6
ATOM      6  C   UNL     1       4.434   2.860  19.500  0.00  0.00    +0.000 C 
BRANCH   6  10
ATOM      7  N   UNL     1       6.640   5.035  17.588  0.00  0.00    +0.000 N 
ATOM      8  C   UNL     1       6.017   4.569  18.719  0.00  0.00    +0.000 C 
ATOM      9  O   UNL     1       6.226   5.003  19.845  0.00  0.00    +0.000 OA
ATOM     10  N   UNL     1       5.140   3.556  18.437  0.00  0.00    +0.000 N 
ATOM     11  H   UNL     1       6.205   4.831  16.705  0.00  0.00    +0.000 HD
ATOM     12  H   UNL     1       5.253   3.083  17.555  0.00  0.00    +0.000 HD
BRANCH   7  14
ATOM     13  C   UNL     1       6.889   7.473  17.336  0.00  0.00    +0.000 C 
ATOM     14  C   UNL     1       7.563   6.149  17.653  0.00  0.00    +0.000 C 
ENDBRANCH   7  14
ENDBRANCH   6  10
ENDBRANCH   1   6
BRANCH   4  15
ATOM     15  C   UNL     1       2.563   6.463  19.707  0.00  0.00    +0.000 C 
BRANCH  15  16
ATOM     16  C   UNL     1       1.761   7.696  20.031  0.00  0.00    +0.000 A 
ATOM     17  C   UNL     1       1.134   7.862  21.267  0.00  0.00    +0.000 A 
ATOM     18  C   UNL     1       0.481   9.066  21.572  0.00  0.00    +0.000 A 
ATOM     19  C   UNL     1      -0.141   9.276  22.813  0.00  0.00    +0.000 A 
ATOM     20  C   UNL     1      -0.731  10.505  23.109  0.00  0.00    +0.000 A 
ATOM     21  C   UNL     1      -0.709  11.535  22.167  0.00  0.00    +0.000 A 
ATOM     22  C   UNL     1      -1.298  12.879  22.473  0.00  0.00    +0.000 C 
ATOM     23  C   UNL     1      -0.117  11.298  20.915  0.00  0.00    +0.000 A 
ATOM     24  C   UNL     1       0.479  10.086  20.596  0.00  0.00    +0.000 A 
ATOM     25  N   UNL     1       1.046   9.928  19.388  0.00  0.00    +0.000 NA
ATOM     26  C   UNL     1       1.660   8.756  19.149  0.00  0.00    +0.000 A 
BRANCH  26  27
ATOM     27  O   UNL     1       2.196   8.698  17.903  0.00  0.00    +0.000 OA
ATOM     28  H   UNL     1       3.125   8.894  18.122  0.00  0.00    +0.000 HD
ENDBRANCH  26  27
ENDBRANCH  15  16
ENDBRANCH   4  15
TORSDOF 6
ENDMDL
MODEL 9
REMARK VINA RESULT:      -7.3      1.442      1.815
REMARK  Name = 
REMARK  8 active torsions:
REMARK  status: ('A' for Active; 'I' for Inactive)
REMARK    1  A    between atoms: C_1  and  C_2
REMARK    2  A    between atoms: C_2  and  N_3
REMARK    3  A    between atoms: N_6  and  C_7
REMARK    4  A    between atoms: C_7  and  C_8
REMARK    5  A    between atoms: N_11  and  C_12
REMARK    6  A    between atoms: C_12  and  C_13
REMARK    7  A    between atoms: C_18  and  C_19
REMARK    8  A    between atoms: C_23  and  O_24
REMARK                            x       y       z     vdW  Elec       q    Type
REMARK                         _______ _______ _______ _____ _____    ______ ____
ROOT
ATOM      1  C   UNL     1       3.344   3.520  18.252  0.00  0.00    +0.000 C 
ATOM      2  C   UNL     1       2.401   3.641  19.443  0.00  0.00    +0.000 C 
ATOM      3  C   UNL     1       1.419   4.697  18.966  0.00  0.00    +0.000 C 
ATOM      4  N   UNL     1       2.255   5.699  18.277  0.00  0.00    +0.000 NA
ATOM      5  C   UNL     1       3.290   4.901  17.584  0.00  0.00    +0.000 C 
ENDROOT
BRANCH   1   6
ATOM      6  C   UNL     1       4.754   3.089  18.650  0.00  0.00    +0.000 C 
BRANCH   6  10
ATOM      7  N   UNL     1       7.053   5.864  19.160  0.00  0.00    +0.000 N 
ATOM      8  C   UNL     1       6.505   4.804  18.482  0.00  0.00    +0.000 C 
ATOM      9  O   UNL     1       6.846   4.458  17.358  0.00  0.00    +0.000 OA
ATOM     10  N   UNL     1       5.526   4.184  19.212  0.00  0.00    +0.000 N 
ATOM     11  H   UNL     1       6.924   5.891  20.156  0.00  0.00    +0.000 HD
ATOM     12  H   UNL     1       5.123   4.704  19.975  0.00  0.00    +0.000 HD
BRANCH   7  14
ATOM     13  C   UNL     1       7.665   7.775  17.730  0.00  0.00    +0.000 C 
ATOM     14  C   UNL     1       8.150   6.622  18.593  0.00  0.00    +0.000 C 
ENDBRANCH   7  14
ENDBRANCH   6  10
ENDBRANCH   1   6
BRANCH   4  15
ATOM     15  C   UNL     1       2.850   6.629  19.262  0.00  0.00    +0.000 C 
BRANCH  15  16
ATOM     16  C   UNL     1       1.945   7.760  19.672  0.00  0.00    +0.000 A 
ATOM     17  C   UNL     1       1.406   7.843  20.956  0.00  0.00    +0.000 A 
ATOM     18  C   UNL     1       0.649   8.964  21.334  0.00  0.00    +0.000 A 
ATOM     19  C   UNL     1       0.111   9.090  22.625  0.00  0.00    +0.000 A 
ATOM     20  C   UNL     1      -0.587  10.242  22.989  0.00  0.00    +0.000 A 
ATOM     21  C   UNL     1      -0.756  11.277  22.068  0.00  0.00    +0.000 A 
ATOM     22  C   UNL     1      -1.465  12.543  22.445  0.00  0.00    +0.000 C 
ATOM     23  C   UNL     1      -0.245  11.120  20.768  0.00  0.00    +0.000 A 
ATOM     24  C   UNL     1       0.455   9.985  20.380  0.00  0.00    +0.000 A 
ATOM     25  N   UNL     1       0.936   9.904  19.128  0.00  0.00    +0.000 NA
ATOM     26  C   UNL     1       1.655   8.811  18.820  0.00  0.00    +0.000 A 
BRANCH  26  27
ATOM     27  O   UNL     1       2.091   8.825  17.535  0.00  0.00    +0.000 OA
ATOM     28  H   UNL     1       1.422   8.241  17.134  0.00  0.00    +0.000 HD
ENDBRANCH  26  27
ENDBRANCH  15  16
ENDBRANCH   4  15
TORSDOF 6
ENDMDL
