MODEL 1
REMARK VINA RESULT:      -8.5      0.000      0.000
REMARK  Name = 
REMARK  4 active torsions:
REMARK  status: ('A' for Active; 'I' for Inactive)
REMARK    1  A    between atoms: C_2  and  C_28
REMARK    2  A    between atoms: N_3  and  C_4
REMARK    3  A    between atoms: C_6  and  C_7
REMARK    4  A    between atoms: C_10  and  C_11
REMARK                            x       y       z     vdW  Elec       q    Type
REMARK                         _______ _______ _______ _____ _____    ______ ____
ROOT
ATOM      1  C   UNL     1       1.227  10.908  18.560  0.00  0.00    +0.000 C 
ATOM      2  C   UNL     1       1.876   9.531  18.590  0.00  0.00    +0.000 C 
ATOM      3  C   UNL     1       1.304   8.694  19.749  0.00  0.00    +0.000 C 
ATOM      4  C   UNL     1       1.446   9.445  21.091  0.00  0.00    +0.000 C 
ATOM      5  N   UNL     1       0.897  10.816  21.024  0.00  0.00    +0.000 N 
ATOM      6  C   UNL     1      -0.172  11.140  21.846  0.00  0.00    +0.000 C 
ATOM      7  O   UNL     1      -0.786  10.239  22.425  0.00  0.00    +0.000 OA
ATOM      8  N   UNL     1      -0.542  12.454  22.026  0.00  0.00    +0.000 N 
ATOM      9  C   UNL     1       0.129  13.673  21.564  0.00  0.00    +0.000 C 
ATOM     10  C   UNL     1       0.073  14.843  22.538  0.00  0.00    +0.000 C 
ATOM     11  O   UNL     1      -1.244  15.061  23.041  0.00  0.00    +0.000 OA
ATOM     12  C   UNL     1      -1.718  13.873  23.691  0.00  0.00    +0.000 C 
ATOM     13  C   UNL     1      -1.831  12.728  22.683  0.00  0.00    +0.000 C 
ATOM     14  C   UNL     1       1.433  11.606  19.901  0.00  0.00    +0.000 C 
ENDROOT
BRANCH   3  15
ATOM     15  C   UNL     1       1.928   7.312  19.740  0.00  0.00    +0.000 A 
ATOM     16  C   UNL     1       2.806   6.901  18.728  0.00  0.00    +0.000 A 
ATOM     17  C   UNL     1       3.299   5.595  18.705  0.00  0.00    +0.000 A 
ATOM     18  C   UNL     1       2.927   4.674  19.694  0.00  0.00    +0.000 A 
ATOM     19  C   UNL     1       2.053   5.087  20.710  0.00  0.00    +0.000 A 
ATOM     20  C   UNL     1       1.559   6.390  20.731  0.00  0.00    +0.000 A 
BRANCH  18  21
ATOM     21  C   UNL     1       3.441   3.258  19.678  0.00  0.00    +0.000 C 
ATOM     22  F   UNL     1       3.398   2.648  20.896  0.00  0.00    +0.000 F 
ATOM     23  F   UNL     1       2.731   2.456  18.836  0.00  0.00    +0.000 F 
ATOM     24  F   UNL     1       4.736   3.176  19.268  0.00  0.00    +0.000 F 
ENDBRANCH  18  21
ENDBRANCH   3  15
BRANCH   1  27
ATOM     25  O   UNL     1      -0.588  13.075  18.140  0.00  0.00    +0.000 OA
ATOM     26  C   UNL     1      -0.997  11.921  18.096  0.00  0.00    +0.000 C 
ATOM     27  N   UNL     1      -0.207  10.824  18.302  0.00  0.00    +0.000 N 
ATOM     28  H   UNL     1      -0.579   9.901  18.110  0.00  0.00    +0.000 HD
BRANCH  26  29
ATOM     29  C   UNL     1      -2.414  11.622  17.758  0.00  0.00    +0.000 A 
ATOM     30  C   UNL     1      -3.384  11.854  18.736  0.00  0.00    +0.000 A 
ATOM     31  C   UNL     1      -4.730  11.635  18.448  0.00  0.00    +0.000 A 
ATOM     32  C   UNL     1      -5.107  11.171  17.185  0.00  0.00    +0.000 A 
ATOM     33  C   UNL     1      -4.140  10.913  16.214  0.00  0.00    +0.000 A 
ATOM     34  C   UNL     1      -2.791  11.136  16.500  0.00  0.00    +0.000 A 
ENDBRANCH  26  29
ENDBRANCH   1  27
TORSDOF 4
ENDMDL
MODEL 2
REMARK VINA RESULT:      -8.4      2.579      4.040
REMARK  Name = 
REMARK  4 active torsions:
REMARK  status: ('A' for Active; 'I' for Inactive)
REMARK    1  A    between atoms: C_2  and  C_28
REMARK    2  A    between atoms: N_3  and  C_4
REMARK    3  A    between atoms: C_6  and  C_7
REMARK    4  A    between atoms: C_10  and  C_11
REMARK                            x       y       z     vdW  Elec       q    Type
REMARK                         _______ _______ _______ _____ _____    ______ ____
ROOT
ATOM      1  C   UNL     1      -1.527  12.046  18.526  0.00  0.00    +0.000 C 
ATOM      2  C   UNL     1      -0.808  10.706  18.472  0.00  0.00    +0.000 C 
ATOM      3  C   UNL     1       0.397  10.704  19.431  0.00  0.00    +0.000 C 
ATOM      4  C   UNL     1       1.337  11.894  19.133  0.00  0.00    +0.000 C 
ATOM      5  N   UNL     1       0.612  13.182  19.095  0.00  0.00    +0.000 N 
ATOM      6  C   UNL     1       0.946  14.155  20.024  0.00  0.00    +0.000 C 
ATOM      7  O   UNL     1       1.650  13.852  20.993  0.00  0.00    +0.000 OA
ATOM      8  N   UNL     1       0.508  15.451  19.868  0.00  0.00    +0.000 N 
ATOM      9  C   UNL     1      -0.199  16.056  18.734  0.00  0.00    +0.000 C 
ATOM     10  C   UNL     1       0.203  17.491  18.420  0.00  0.00    +0.000 C 
ATOM     11  O   UNL     1       0.232  18.309  19.589  0.00  0.00    +0.000 OA
ATOM     12  C   UNL     1       1.144  17.754  20.547  0.00  0.00    +0.000 C 
ATOM     13  C   UNL     1       0.660  16.377  21.004  0.00  0.00    +0.000 C 
ATOM     14  C   UNL     1      -0.551  13.171  18.191  0.00  0.00    +0.000 C 
ENDROOT
BRANCH   3  15
ATOM     15  C   UNL     1       1.078   9.350  19.398  0.00  0.00    +0.000 A 
ATOM     16  C   UNL     1       1.173   8.540  20.537  0.00  0.00    +0.000 A 
ATOM     17  C   UNL     1       1.876   7.335  20.494  0.00  0.00    +0.000 A 
ATOM     18  C   UNL     1       2.497   6.914  19.309  0.00  0.00    +0.000 A 
ATOM     19  C   UNL     1       2.397   7.722  18.168  0.00  0.00    +0.000 A 
ATOM     20  C   UNL     1       1.697   8.926  18.212  0.00  0.00    +0.000 A 
BRANCH  18  21
ATOM     21  C   UNL     1       3.270   5.622  19.247  0.00  0.00    +0.000 C 
ATOM     22  F   UNL     1       2.761   4.642  20.045  0.00  0.00    +0.000 F 
ATOM     23  F   UNL     1       3.305   5.098  17.990  0.00  0.00    +0.000 F 
ATOM     24  F   UNL     1       4.569   5.771  19.626  0.00  0.00    +0.000 F 
ENDBRANCH  18  21
ENDBRANCH   3  15
BRANCH   1  27
ATOM     25  O   UNL     1      -4.282  12.396  19.202  0.00  0.00    +0.000 OA
ATOM     26  C   UNL     1      -3.429  12.443  20.081  0.00  0.00    +0.000 C 
ATOM     27  N   UNL     1      -2.088  12.305  19.849  0.00  0.00    +0.000 N 
ATOM     28  H   UNL     1      -1.455  12.212  20.635  0.00  0.00    +0.000 HD
BRANCH  26  29
ATOM     29  C   UNL     1      -3.807  12.611  21.508  0.00  0.00    +0.000 A 
ATOM     30  C   UNL     1      -5.129  12.958  21.800  0.00  0.00    +0.000 A 
ATOM     31  C   UNL     1      -5.541  13.078  23.126  0.00  0.00    +0.000 A 
ATOM     32  C   UNL     1      -4.628  12.864  24.162  0.00  0.00    +0.000 A 
ATOM     33  C   UNL     1      -3.303  12.542  23.876  0.00  0.00    +0.000 A 
ATOM     34  C   UNL     1      -2.889  12.417  22.548  0.00  0.00    +0.000 A 
ENDBRANCH  26  29
ENDBRANCH   1  27
TORSDOF 4
ENDMDL
MODEL 3
REMARK VINA RESULT:      -8.4      1.688      2.591
REMARK  Name = 
REMARK  4 active torsions:
REMARK  status: ('A' for Active; 'I' for Inactive)
REMARK    1  A    between atoms: C_2  and  C_28
REMARK    2  A    between atoms: N_3  and  C_4
REMARK    3  A    between atoms: C_6  and  C_7
REMARK    4  A    between atoms: C_10  and  C_11
REMARK                            x       y       z     vdW  Elec       q    Type
REMARK                         _______ _______ _______ _____ _____    ______ ____
ROOT
ATOM      1  C   UNL     1      -0.574  12.843  18.821  0.00  0.00    +0.000 C 
ATOM      2  C   UNL     1       0.215  11.569  18.551  0.00  0.00    +0.000 C 
ATOM      3  C   UNL     1       0.243  10.679  19.807  0.00  0.00    +0.000 C 
ATOM      4  C   UNL     1       0.782  11.463  21.024  0.00  0.00    +0.000 C 
ATOM      5  N   UNL     1       0.070  12.743  21.222  0.00  0.00    +0.000 N 
ATOM      6  C   UNL     1      -0.640  12.930  22.398  0.00  0.00    +0.000 C 
ATOM      7  O   UNL     1      -0.862  11.961  23.131  0.00  0.00    +0.000 OA
ATOM      8  N   UNL     1      -1.086  14.182  22.755  0.00  0.00    +0.000 N 
ATOM      9  C   UNL     1      -0.810  15.475  22.122  0.00  0.00    +0.000 C 
ATOM     10  C   UNL     1      -0.648  16.641  23.089  0.00  0.00    +0.000 C 
ATOM     11  O   UNL     1      -1.692  16.683  24.060  0.00  0.00    +0.000 OA
ATOM     12  C   UNL     1      -1.721  15.451  24.794  0.00  0.00    +0.000 C 
ATOM     13  C   UNL     1      -2.054  14.285  23.861  0.00  0.00    +0.000 C 
ATOM     14  C   UNL     1       0.031  13.583  20.011  0.00  0.00    +0.000 C 
ENDROOT
BRANCH   3  15
ATOM     15  C   UNL     1       0.995   9.397  19.510  0.00  0.00    +0.000 A 
ATOM     16  C   UNL     1       1.267   8.449  20.506  0.00  0.00    +0.000 A 
ATOM     17  C   UNL     1       2.032   7.317  20.218  0.00  0.00    +0.000 A 
ATOM     18  C   UNL     1       2.539   7.109  18.928  0.00  0.00    +0.000 A 
ATOM     19  C   UNL     1       2.263   8.054  17.930  0.00  0.00    +0.000 A 
ATOM     20  C   UNL     1       1.501   9.184  18.219  0.00  0.00    +0.000 A 
BRANCH  18  21
ATOM     21  C   UNL     1       3.376   5.899  18.601  0.00  0.00    +0.000 C 
ATOM     22  F   UNL     1       2.652   4.750  18.482  0.00  0.00    +0.000 F 
ATOM     23  F   UNL     1       4.052   6.036  17.426  0.00  0.00    +0.000 F 
ATOM     24  F   UNL     1       4.321   5.646  19.548  0.00  0.00    +0.000 F 
ENDBRANCH  18  21
ENDBRANCH   3  15
BRANCH   1  27
ATOM     25  O   UNL     1      -2.527  11.716  17.065  0.00  0.00    +0.000 OA
ATOM     26  C   UNL     1      -2.835  11.999  18.217  0.00  0.00    +0.000 C 
ATOM     27  N   UNL     1      -1.974  12.557  19.121  0.00  0.00    +0.000 N 
ATOM     28  H   UNL     1      -2.253  12.632  20.092  0.00  0.00    +0.000 HD
BRANCH  26  29
ATOM     29  C   UNL     1      -4.194  11.703  18.742  0.00  0.00    +0.000 A 
ATOM     30  C   UNL     1      -4.616  12.379  19.890  0.00  0.00    +0.000 A 
ATOM     31  C   UNL     1      -5.900  12.170  20.389  0.00  0.00    +0.000 A 
ATOM     32  C   UNL     1      -6.759  11.273  19.750  0.00  0.00    +0.000 A 
ATOM     33  C   UNL     1      -6.334  10.577  18.620  0.00  0.00    +0.000 A 
ATOM     34  C   UNL     1      -5.050  10.788  18.115  0.00  0.00    +0.000 A 
ENDBRANCH  26  29
ENDBRANCH   1  27
TORSDOF 4
ENDMDL
MODEL 4
REMARK VINA RESULT:      -8.4      2.597      3.994
REMARK  Name = 
REMARK  4 active torsions:
REMARK  status: ('A' for Active; 'I' for Inactive)
REMARK    1  A    between atoms: C_2  and  C_28
REMARK    2  A    between atoms: N_3  and  C_4
REMARK    3  A    between atoms: C_6  and  C_7
REMARK    4  A    between atoms: C_10  and  C_11
REMARK                            x       y       z     vdW  Elec       q    Type
REMARK                         _______ _______ _______ _____ _____    ______ ____
ROOT
ATOM      1  C   UNL     1      -1.581  11.963  18.594  0.00  0.00    +0.000 C 
ATOM      2  C   UNL     1      -0.805  10.653  18.594  0.00  0.00    +0.000 C 
ATOM      3  C   UNL     1       0.389  10.736  19.562  0.00  0.00    +0.000 C 
ATOM      4  C   UNL     1       1.281  11.954  19.231  0.00  0.00    +0.000 C 
ATOM      5  N   UNL     1       0.502  13.207  19.141  0.00  0.00    +0.000 N 
ATOM      6  C   UNL     1       0.785  14.226  20.038  0.00  0.00    +0.000 C 
ATOM      7  O   UNL     1       1.492  13.987  21.023  0.00  0.00    +0.000 OA
ATOM      8  N   UNL     1       0.295  15.495  19.832  0.00  0.00    +0.000 N 
ATOM      9  C   UNL     1      -0.426  16.030  18.672  0.00  0.00    +0.000 C 
ATOM     10  C   UNL     1      -0.082  17.469  18.311  0.00  0.00    +0.000 C 
ATOM     11  O   UNL     1      -0.100  18.328  19.450  0.00  0.00    +0.000 OA
ATOM     12  C   UNL     1       0.825  17.846  20.435  0.00  0.00    +0.000 C 
ATOM     13  C   UNL     1       0.395  16.466  20.936  0.00  0.00    +0.000 C 
ATOM     14  C   UNL     1      -0.650  13.115  18.227  0.00  0.00    +0.000 C 
ENDROOT
BRANCH   3  15
ATOM     15  C   UNL     1       1.127   9.412  19.583  0.00  0.00    +0.000 A 
ATOM     16  C   UNL     1       1.812   8.927  18.461  0.00  0.00    +0.000 A 
ATOM     17  C   UNL     1       2.411   7.667  18.486  0.00  0.00    +0.000 A 
ATOM     18  C   UNL     1       2.342   6.867  19.636  0.00  0.00    +0.000 A 
ATOM     19  C   UNL     1       1.662   7.355  20.760  0.00  0.00    +0.000 A 
ATOM     20  C   UNL     1       1.061   8.611  20.733  0.00  0.00    +0.000 A 
BRANCH  18  21
ATOM     21  C   UNL     1       2.974   5.500  19.678  0.00  0.00    +0.000 C 
ATOM     22  F   UNL     1       4.336   5.526  19.628  0.00  0.00    +0.000 F 
ATOM     23  F   UNL     1       2.657   4.815  20.812  0.00  0.00    +0.000 F 
ATOM     24  F   UNL     1       2.580   4.709  18.642  0.00  0.00    +0.000 F 
ENDBRANCH  18  21
ENDBRANCH   3  15
BRANCH   1  27
ATOM     25  O   UNL     1      -4.340  12.394  19.201  0.00  0.00    +0.000 OA
ATOM     26  C   UNL     1      -3.507  12.421  20.100  0.00  0.00    +0.000 C 
ATOM     27  N   UNL     1      -2.166  12.243  19.902  0.00  0.00    +0.000 N 
ATOM     28  H   UNL     1      -1.555  12.136  20.703  0.00  0.00    +0.000 HD
BRANCH  26  29
ATOM     29  C   UNL     1      -3.915  12.606  21.518  0.00  0.00    +0.000 A 
ATOM     30  C   UNL     1      -5.246  12.941  21.779  0.00  0.00    +0.000 A 
ATOM     31  C   UNL     1      -5.685  13.075  23.095  0.00  0.00    +0.000 A 
ATOM     32  C   UNL     1      -4.790  12.889  24.152  0.00  0.00    +0.000 A 
ATOM     33  C   UNL     1      -3.455  12.580  23.895  0.00  0.00    +0.000 A 
ATOM     34  C   UNL     1      -3.014  12.440  22.578  0.00  0.00    +0.000 A 
ENDBRANCH  26  29
ENDBRANCH   1  27
TORSDOF 4
ENDMDL
MODEL 5
REMARK VINA RESULT:      -8.4      0.140      1.078
REMARK  Name = 
REMARK  4 active torsions:
REMARK  status: ('A' for Active; 'I' for Inactive)
REMARK    1  A    between atoms: C_2  and  C_28
REMARK    2  A    between atoms: N_3  and  C_4
REMARK    3  A    between atoms: C_6  and  C_7
REMARK    4  A    between atoms: C_10  and  C_11
REMARK                            x       y       z     vdW  Elec       q    Type
REMARK                         _______ _______ _______ _____ _____    ______ ____
ROOT
ATOM      1  C   UNL     1       1.147  11.009  18.578  0.00  0.00    +0.000 C 
ATOM      2  C   UNL     1       1.790   9.629  18.594  0.00  0.00    +0.000 C 
ATOM      3  C   UNL     1       1.251   8.800  19.775  0.00  0.00    +0.000 C 
ATOM      4  C   UNL     1       1.438   9.557  21.108  0.00  0.00    +0.000 C 
ATOM      5  N   UNL     1       0.892  10.930  21.051  0.00  0.00    +0.000 N 
ATOM      6  C   UNL     1      -0.150  11.263  21.904  0.00  0.00    +0.000 C 
ATOM      7  O   UNL     1      -0.750  10.366  22.506  0.00  0.00    +0.000 OA
ATOM      8  N   UNL     1      -0.510  12.578  22.089  0.00  0.00    +0.000 N 
ATOM      9  C   UNL     1       0.152  13.793  21.601  0.00  0.00    +0.000 C 
ATOM     10  C   UNL     1       0.130  14.968  22.570  0.00  0.00    +0.000 C 
ATOM     11  O   UNL     1      -1.170  15.193  23.113  0.00  0.00    +0.000 OA
ATOM     12  C   UNL     1      -1.628  14.010  23.782  0.00  0.00    +0.000 C 
ATOM     13  C   UNL     1      -1.777  12.860  22.784  0.00  0.00    +0.000 C 
ATOM     14  C   UNL     1       1.397  11.712  19.909  0.00  0.00    +0.000 C 
ENDROOT
BRANCH   3  15
ATOM     15  C   UNL     1       1.869   7.416  19.753  0.00  0.00    +0.000 A 
ATOM     16  C   UNL     1       2.715   6.997  18.717  0.00  0.00    +0.000 A 
ATOM     17  C   UNL     1       3.202   5.689  18.685  0.00  0.00    +0.000 A 
ATOM     18  C   UNL     1       2.856   4.774  19.689  0.00  0.00    +0.000 A 
ATOM     19  C   UNL     1       2.015   5.195  20.728  0.00  0.00    +0.000 A 
ATOM     20  C   UNL     1       1.527   6.499  20.759  0.00  0.00    +0.000 A 
BRANCH  18  21
ATOM     21  C   UNL     1       3.364   3.355  19.664  0.00  0.00    +0.000 C 
ATOM     22  F   UNL     1       2.674   2.543  18.815  0.00  0.00    +0.000 F 
ATOM     23  F   UNL     1       4.668   3.277  19.277  0.00  0.00    +0.000 F 
ATOM     24  F   UNL     1       3.300   2.756  20.885  0.00  0.00    +0.000 F 
ENDBRANCH  18  21
ENDBRANCH   3  15
BRANCH   1  27
ATOM     25  O   UNL     1      -0.669  13.181  18.184  0.00  0.00    +0.000 OA
ATOM     26  C   UNL     1      -1.086  12.028  18.167  0.00  0.00    +0.000 C 
ATOM     27  N   UNL     1      -0.295  10.929  18.364  0.00  0.00    +0.000 N 
ATOM     28  H   UNL     1      -0.677  10.006  18.196  0.00  0.00    +0.000 HD
BRANCH  26  29
ATOM     29  C   UNL     1      -2.513  11.733  17.877  0.00  0.00    +0.000 A 
ATOM     30  C   UNL     1      -2.837  11.245  16.608  0.00  0.00    +0.000 A 
ATOM     31  C   UNL     1      -4.155  10.907  16.307  0.00  0.00    +0.000 A 
ATOM     32  C   UNL     1      -5.155  11.070  17.270  0.00  0.00    +0.000 A 
ATOM     33  C   UNL     1      -4.840  11.580  18.529  0.00  0.00    +0.000 A 
ATOM     34  C   UNL     1      -3.520  11.915  18.834  0.00  0.00    +0.000 A 
ENDBRANCH  26  29
ENDBRANCH   1  27
TORSDOF 4
ENDMDL
MODEL 6
REMARK VINA RESULT:      -8.4      2.578      3.952
REMARK  Name = 
REMARK  4 active torsions:
REMARK  status: ('A' for Active; 'I' for Inactive)
REMARK    1  A    between atoms: C_2  and  C_28
REMARK    2  A    between atoms: N_3  and  C_4
REMARK    3  A    between atoms: C_6  and  C_7
REMARK    4  A    between atoms: C_10  and  C_11
REMARK                            x       y       z     vdW  Elec       q    Type
REMARK                         _______ _______ _______ _____ _____    ______ ____
ROOT
ATOM      1  C   UNL     1      -1.573  11.961  18.573  0.00  0.00    +0.000 C 
ATOM      2  C   UNL     1      -0.795  10.652  18.572  0.00  0.00    +0.000 C 
ATOM      3  C   UNL     1       0.395  10.734  19.545  0.00  0.00    +0.000 C 
ATOM      4  C   UNL     1       1.286  11.954  19.221  0.00  0.00    +0.000 C 
ATOM      5  N   UNL     1       0.506  13.207  19.132  0.00  0.00    +0.000 N 
ATOM      6  C   UNL     1       0.784  14.223  20.033  0.00  0.00    +0.000 C 
ATOM      7  O   UNL     1       1.487  13.982  21.020  0.00  0.00    +0.000 OA
ATOM      8  N   UNL     1       0.293  15.493  19.829  0.00  0.00    +0.000 N 
ATOM      9  C   UNL     1      -0.424  16.029  18.667  0.00  0.00    +0.000 C 
ATOM     10  C   UNL     1      -0.080  17.470  18.312  0.00  0.00    +0.000 C 
ATOM     11  O   UNL     1      -0.104  18.326  19.454  0.00  0.00    +0.000 OA
ATOM     12  C   UNL     1       0.818  17.842  20.441  0.00  0.00    +0.000 C 
ATOM     13  C   UNL     1       0.388  16.460  20.936  0.00  0.00    +0.000 C 
ATOM     14  C   UNL     1      -0.642  13.116  18.213  0.00  0.00    +0.000 C 
ENDROOT
BRANCH   3  15
ATOM     15  C   UNL     1       1.134   9.411  19.565  0.00  0.00    +0.000 A 
ATOM     16  C   UNL     1       1.805   8.919  18.437  0.00  0.00    +0.000 A 
ATOM     17  C   UNL     1       2.406   7.660  18.463  0.00  0.00    +0.000 A 
ATOM     18  C   UNL     1       2.352   6.868  19.619  0.00  0.00    +0.000 A 
ATOM     19  C   UNL     1       1.686   7.362  20.749  0.00  0.00    +0.000 A 
ATOM     20  C   UNL     1       1.084   8.618  20.721  0.00  0.00    +0.000 A 
BRANCH  18  21
ATOM     21  C   UNL     1       2.987   5.501  19.662  0.00  0.00    +0.000 C 
ATOM     22  F   UNL     1       2.645   4.775  20.763  0.00  0.00    +0.000 F 
ATOM     23  F   UNL     1       2.643   4.735  18.589  0.00  0.00    +0.000 F 
ATOM     24  F   UNL     1       4.347   5.557  19.661  0.00  0.00    +0.000 F 
ENDBRANCH  18  21
ENDBRANCH   3  15
BRANCH   1  27
ATOM     25  O   UNL     1      -4.334  12.402  19.167  0.00  0.00    +0.000 OA
ATOM     26  C   UNL     1      -3.505  12.420  20.071  0.00  0.00    +0.000 C 
ATOM     27  N   UNL     1      -2.164  12.237  19.879  0.00  0.00    +0.000 N 
ATOM     28  H   UNL     1      -1.558  12.122  20.683  0.00  0.00    +0.000 HD
BRANCH  26  29
ATOM     29  C   UNL     1      -3.920  12.599  21.487  0.00  0.00    +0.000 A 
ATOM     30  C   UNL     1      -2.967  12.370  22.484  0.00  0.00    +0.000 A 
ATOM     31  C   UNL     1      -3.296  12.573  23.823  0.00  0.00    +0.000 A 
ATOM     32  C   UNL     1      -4.584  12.992  24.169  0.00  0.00    +0.000 A 
ATOM     33  C   UNL     1      -5.545  13.197  23.180  0.00  0.00    +0.000 A 
ATOM     34  C   UNL     1      -5.216  12.998  21.838  0.00  0.00    +0.000 A 
ENDBRANCH  26  29
ENDBRANCH   1  27
TORSDOF 4
ENDMDL
MODEL 7
REMARK VINA RESULT:      -8.4      1.941      3.144
REMARK  Name = 
REMARK  4 active torsions:
REMARK  status: ('A' for Active; 'I' for Inactive)
REMARK    1  A    between atoms: C_2  and  C_28
REMARK    2  A    between atoms: N_3  and  C_4
REMARK    3  A    between atoms: C_6  and  C_7
REMARK    4  A    between atoms: C_10  and  C_11
REMARK                            x       y       z     vdW  Elec       q    Type
REMARK                         _______ _______ _______ _____ _____    ______ ____
ROOT
ATOM      1  C   UNL     1      -1.090  13.087  19.105  0.00  0.00    +0.000 C 
ATOM      2  C   UNL     1      -0.241  11.874  18.748  0.00  0.00    +0.000 C 
ATOM      3  C   UNL     1      -0.142  10.917  19.950  0.00  0.00    +0.000 C 
ATOM      4  C   UNL     1       0.379  11.658  21.201  0.00  0.00    +0.000 C 
ATOM      5  N   UNL     1      -0.394  12.886  21.484  0.00  0.00    +0.000 N 
ATOM      6  C   UNL     1      -1.090  12.968  22.681  0.00  0.00    +0.000 C 
ATOM      7  O   UNL     1      -1.247  11.948  23.361  0.00  0.00    +0.000 OA
ATOM      8  N   UNL     1      -1.593  14.172  23.117  0.00  0.00    +0.000 N 
ATOM      9  C   UNL     1      -1.397  15.512  22.555  0.00  0.00    +0.000 C 
ATOM     10  C   UNL     1      -1.276  16.628  23.585  0.00  0.00    +0.000 C 
ATOM     11  O   UNL     1      -2.302  16.559  24.574  0.00  0.00    +0.000 OA
ATOM     12  C   UNL     1      -2.252  15.288  25.236  0.00  0.00    +0.000 C 
ATOM     13  C   UNL     1      -2.543  14.161  24.243  0.00  0.00    +0.000 C 
ATOM     14  C   UNL     1      -0.501  13.789  20.325  0.00  0.00    +0.000 C 
ENDROOT
BRANCH   3  15
ATOM     15  C   UNL     1       0.669   9.695  19.568  0.00  0.00    +0.000 A 
ATOM     16  C   UNL     1       1.068   8.743  20.515  0.00  0.00    +0.000 A 
ATOM     17  C   UNL     1       1.884   7.672  20.145  0.00  0.00    +0.000 A 
ATOM     18  C   UNL     1       2.315   7.530  18.818  0.00  0.00    +0.000 A 
ATOM     19  C   UNL     1       1.911   8.479  17.869  0.00  0.00    +0.000 A 
ATOM     20  C   UNL     1       1.099   9.549  18.240  0.00  0.00    +0.000 A 
BRANCH  18  21
ATOM     21  C   UNL     1       3.204   6.386  18.403  0.00  0.00    +0.000 C 
ATOM     22  F   UNL     1       4.102   6.718  17.433  0.00  0.00    +0.000 F 
ATOM     23  F   UNL     1       3.940   5.897  19.439  0.00  0.00    +0.000 F 
ATOM     24  F   UNL     1       2.501   5.329  17.912  0.00  0.00    +0.000 F 
ENDBRANCH  18  21
ENDBRANCH   3  15
BRANCH   1  27
ATOM     25  O   UNL     1      -2.956  11.784  17.375  0.00  0.00    +0.000 OA
ATOM     26  C   UNL     1      -3.285  12.073  18.521  0.00  0.00    +0.000 C 
ATOM     27  N   UNL     1      -2.467  12.712  19.411  0.00  0.00    +0.000 N 
ATOM     28  H   UNL     1      -2.752  12.790  20.380  0.00  0.00    +0.000 HD
BRANCH  26  29
ATOM     29  C   UNL     1      -4.620  11.694  19.052  0.00  0.00    +0.000 A 
ATOM     30  C   UNL     1      -5.343  10.710  18.373  0.00  0.00    +0.000 A 
ATOM     31  C   UNL     1      -6.577  10.288  18.863  0.00  0.00    +0.000 A 
ATOM     32  C   UNL     1      -7.098  10.861  20.026  0.00  0.00    +0.000 A 
ATOM     33  C   UNL     1      -6.394  11.861  20.693  0.00  0.00    +0.000 A 
ATOM     34  C   UNL     1      -5.154  12.282  20.207  0.00  0.00    +0.000 A 
ENDBRANCH  26  29
ENDBRANCH   1  27
TORSDOF 4
ENDMDL
MODEL 8
REMARK VINA RESULT:      -8.4      0.194      1.353
REMARK  Name = 
REMARK  4 active torsions:
REMARK  status: ('A' for Active; 'I' for Inactive)
REMARK    1  A    between atoms: C_2  and  C_28
REMARK    2  A    between atoms: N_3  and  C_4
REMARK    3  A    between atoms: C_6  and  C_7
REMARK    4  A    between atoms: C_10  and  C_11
REMARK                            x       y       z     vdW  Elec       q    Type
REMARK                         _______ _______ _______ _____ _____    ______ ____
ROOT
ATOM      1  C   UNL     1       1.195  10.869  18.509  0.00  0.00    +0.000 C 
ATOM      2  C   UNL     1       1.801   9.472  18.526  0.00  0.00    +0.000 C 
ATOM      3  C   UNL     1       1.248   8.662  19.713  0.00  0.00    +0.000 C 
ATOM      4  C   UNL     1       1.463   9.419  21.042  0.00  0.00    +0.000 C 
ATOM      5  N   UNL     1       0.954  10.805  20.984  0.00  0.00    +0.000 N 
ATOM      6  C   UNL     1      -0.073  11.169  21.842  0.00  0.00    +0.000 C 
ATOM      7  O   UNL     1      -0.692  10.291  22.451  0.00  0.00    +0.000 OA
ATOM      8  N   UNL     1      -0.396  12.494  22.024  0.00  0.00    +0.000 N 
ATOM      9  C   UNL     1       0.295  13.689  21.528  0.00  0.00    +0.000 C 
ATOM     10  C   UNL     1       0.311  14.867  22.493  0.00  0.00    +0.000 C 
ATOM     11  O   UNL     1      -0.979  15.130  23.043  0.00  0.00    +0.000 OA
ATOM     12  C   UNL     1      -1.464  13.962  23.720  0.00  0.00    +0.000 C 
ATOM     13  C   UNL     1      -1.650  12.813  22.727  0.00  0.00    +0.000 C 
ATOM     14  C   UNL     1       1.472  11.570  19.835  0.00  0.00    +0.000 C 
ENDROOT
BRANCH   3  15
ATOM     15  C   UNL     1       1.828   7.262  19.693  0.00  0.00    +0.000 A 
ATOM     16  C   UNL     1       1.564   6.335  20.710  0.00  0.00    +0.000 A 
ATOM     17  C   UNL     1       2.179   5.082  20.704  0.00  0.00    +0.000 A 
ATOM     18  C   UNL     1       3.068   4.728  19.679  0.00  0.00    +0.000 A 
ATOM     19  C   UNL     1       3.327   5.653  18.658  0.00  0.00    +0.000 A 
ATOM     20  C   UNL     1       2.715   6.904  18.666  0.00  0.00    +0.000 A 
BRANCH  18  21
ATOM     21  C   UNL     1       3.748   3.383  19.663  0.00  0.00    +0.000 C 
ATOM     22  F   UNL     1       5.097   3.457  19.479  0.00  0.00    +0.000 F 
ATOM     23  F   UNL     1       3.568   2.695  20.824  0.00  0.00    +0.000 F 
ATOM     24  F   UNL     1       3.282   2.574  18.672  0.00  0.00    +0.000 F 
ENDBRANCH  18  21
ENDBRANCH   3  15
BRANCH   1  27
ATOM     25  O   UNL     1      -0.565  13.088  18.122  0.00  0.00    +0.000 OA
ATOM     26  C   UNL     1      -1.012  11.946  18.111  0.00  0.00    +0.000 C 
ATOM     27  N   UNL     1      -0.250  10.827  18.305  0.00  0.00    +0.000 N 
ATOM     28  H   UNL     1      -0.658   9.914  18.141  0.00  0.00    +0.000 HD
BRANCH  26  29
ATOM     29  C   UNL     1      -2.449  11.688  17.830  0.00  0.00    +0.000 A 
ATOM     30  C   UNL     1      -2.790  11.168  16.579  0.00  0.00    +0.000 A 
ATOM     31  C   UNL     1      -4.119  10.864  16.289  0.00  0.00    +0.000 A 
ATOM     32  C   UNL     1      -5.111  11.094  17.245  0.00  0.00    +0.000 A 
ATOM     33  C   UNL     1      -4.779  11.637  18.486  0.00  0.00    +0.000 A 
ATOM     34  C   UNL     1      -3.448  11.938  18.780  0.00  0.00    +0.000 A 
ENDBRANCH  26  29
ENDBRANCH   1  27
TORSDOF 4
ENDMDL
MODEL 9
REMARK VINA RESULT:      -8.2      1.880      2.942
REMARK  Name = 
REMARK  4 active torsions:
REMARK  status: ('A' for Active; 'I' for Inactive)
REMARK    1  A    between atoms: C_2  and  C_28
REMARK    2  A    between atoms: N_3  and  C_4
REMARK    3  A    between atoms: C_6  and  C_7
REMARK    4  A    between atoms: C_10  and  C_11
REMARK                            x       y       z     vdW  Elec       q    Type
REMARK                         _______ _______ _______ _____ _____    ______ ____
ROOT
ATOM      1  C   UNL     1      -0.909  13.239  19.072  0.00  0.00    +0.000 C 
ATOM      2  C   UNL     1      -0.047  12.033  18.724  0.00  0.00    +0.000 C 
ATOM      3  C   UNL     1       0.030  11.067  19.921  0.00  0.00    +0.000 C 
ATOM      4  C   UNL     1       0.520  11.801  21.189  0.00  0.00    +0.000 C 
ATOM      5  N   UNL     1      -0.266  13.022  21.465  0.00  0.00    +0.000 N 
ATOM      6  C   UNL     1      -0.988  13.090  22.647  0.00  0.00    +0.000 C 
ATOM      7  O   UNL     1      -1.155  12.065  23.314  0.00  0.00    +0.000 OA
ATOM      8  N   UNL     1      -1.507  14.289  23.081  0.00  0.00    +0.000 N 
ATOM      9  C   UNL     1      -1.305  15.634  22.533  0.00  0.00    +0.000 C 
ATOM     10  C   UNL     1      -1.214  16.742  23.575  0.00  0.00    +0.000 C 
ATOM     11  O   UNL     1      -2.260  16.660  24.541  0.00  0.00    +0.000 OA
ATOM     12  C   UNL     1      -2.219  15.384  25.194  0.00  0.00    +0.000 C 
ATOM     13  C   UNL     1      -2.481  14.264  24.185  0.00  0.00    +0.000 C 
ATOM     14  C   UNL     1      -0.352  13.934  20.310  0.00  0.00    +0.000 C 
ENDROOT
BRANCH   3  15
ATOM     15  C   UNL     1       0.856   9.853  19.546  0.00  0.00    +0.000 A 
ATOM     16  C   UNL     1       1.311   9.639  18.238  0.00  0.00    +0.000 A 
ATOM     17  C   UNL     1       1.999   8.470  17.908  0.00  0.00    +0.000 A 
ATOM     18  C   UNL     1       2.251   7.492  18.880  0.00  0.00    +0.000 A 
ATOM     19  C   UNL     1       1.802   7.708  20.191  0.00  0.00    +0.000 A 
ATOM     20  C   UNL     1       1.112   8.874  20.519  0.00  0.00    +0.000 A 
BRANCH  18  21
ATOM     21  C   UNL     1       2.984   6.220  18.540  0.00  0.00    +0.000 C 
ATOM     22  F   UNL     1       2.182   5.253  18.012  0.00  0.00    +0.000 F 
ATOM     23  F   UNL     1       3.975   6.420  17.627  0.00  0.00    +0.000 F 
ATOM     24  F   UNL     1       3.582   5.656  19.625  0.00  0.00    +0.000 F 
ENDBRANCH  18  21
ENDBRANCH   3  15
BRANCH   1  27
ATOM     25  O   UNL     1      -2.676  11.792  17.353  0.00  0.00    +0.000 OA
ATOM     26  C   UNL     1      -3.059  12.144  18.463  0.00  0.00    +0.000 C 
ATOM     27  N   UNL     1      -2.291  12.854  19.344  0.00  0.00    +0.000 N 
ATOM     28  H   UNL     1      -2.619  12.987  20.294  0.00  0.00    +0.000 HD
BRANCH  26  29
ATOM     29  C   UNL     1      -4.408  11.771  18.963  0.00  0.00    +0.000 A 
ATOM     30  C   UNL     1      -5.140  10.828  18.236  0.00  0.00    +0.000 A 
ATOM     31  C   UNL     1      -6.388  10.411  18.694  0.00  0.00    +0.000 A 
ATOM     32  C   UNL     1      -6.915  10.948  19.871  0.00  0.00    +0.000 A 
ATOM     33  C   UNL     1      -6.200  11.908  20.586  0.00  0.00    +0.000 A 
ATOM     34  C   UNL     1      -4.947  12.324  20.132  0.00  0.00    +0.000 A 
ENDBRANCH  26  29
ENDBRANCH   1  27
TORSDOF 4
ENDMDL
