MODEL 1
REMARK VINA RESULT:      -7.7      0.000      0.000
REMARK  Name = 
REMARK  6 active torsions:
REMARK  status: ('A' for Active; 'I' for Inactive)
REMARK    1  A    between atoms: C_1  and  O_2
REMARK    2  A    between atoms: O_2  and  C_3
REMARK    3  A    between atoms: C_6  and  C_7
REMARK    4  A    between atoms: N_12  and  C_13
REMARK    5  A    between atoms: C_13  and  C_14
REMARK    6  A    between atoms: C_14  and  C_15
REMARK                            x       y       z     vdW  Elec       q    Type
REMARK                         _______ _______ _______ _____ _____    ______ ____
ROOT
ATOM      1  C   UNL     1       2.710   6.108  19.807  0.00  0.00    +0.000 C 
ATOM      2  O   UNL     1       2.241   5.440  20.730  0.00  0.00    +0.000 OA
ATOM      3  N   UNL     1       3.664   5.597  18.933  0.00  0.00    +0.000 N 
ATOM      4  C   UNL     1       3.930   4.156  18.945  0.00  0.00    +0.000 C 
ATOM      5  C   UNL     1       3.846   3.593  17.510  0.00  0.00    +0.000 C 
ATOM      6  N   UNL     1       4.702   4.289  16.512  0.00  0.00    +0.000 NA
ATOM      7  C   UNL     1       4.429   5.747  16.587  0.00  0.00    +0.000 C 
ATOM      8  C   UNL     1       4.531   6.340  18.011  0.00  0.00    +0.000 C 
ENDROOT
BRANCH   1  12
ATOM      9  C   UNL     1       1.022  10.033  19.307  0.00  0.00    +0.000 A 
ATOM     10  C   UNL     1       0.952   9.370  20.535  0.00  0.00    +0.000 A 
ATOM     11  C   UNL     1       1.527   8.106  20.696  0.00  0.00    +0.000 A 
ATOM     12  C   UNL     1       2.159   7.478  19.619  0.00  0.00    +0.000 A 
ATOM     13  C   UNL     1       2.145   8.104  18.368  0.00  0.00    +0.000 A 
ATOM     14  C   UNL     1       1.616   9.391  18.221  0.00  0.00    +0.000 A 
BRANCH   9  16
ATOM     15  C   UNL     1       1.312  12.377  19.380  0.00  0.00    +0.000 C 
ATOM     16  O   UNL     1       0.433  11.265  19.263  0.00  0.00    +0.000 OA
ENDBRANCH   9  16
ENDBRANCH   1  12
BRANCH   6  17
ATOM     17  C   UNL     1       6.143   4.025  16.706  0.00  0.00    +0.000 C 
BRANCH  17  18
ATOM     18  C   UNL     1       7.059   5.027  15.994  0.00  0.00    +0.000 C 
BRANCH  18  19
ATOM     19  C   UNL     1       7.085   4.761  14.512  0.00  0.00    +0.000 A 
ATOM     20  C   UNL     1       6.275   3.778  13.952  0.00  0.00    +0.000 A 
ATOM     21  C   UNL     1       6.331   3.568  12.577  0.00  0.00    +0.000 A 
ATOM     22  C   UNL     1       7.187   4.344  11.802  0.00  0.00    +0.000 A 
ATOM     23  C   UNL     1       7.946   5.311  12.436  0.00  0.00    +0.000 A 
ATOM     24  N   UNL     1       7.909   5.539  13.767  0.00  0.00    +0.000 NA
ENDBRANCH  18  19
ENDBRANCH  17  18
ENDBRANCH   6  17
TORSDOF 5
ENDMDL
MODEL 2
REMARK VINA RESULT:      -7.5      0.560      1.133
REMARK  Name = 
REMARK  6 active torsions:
REMARK  status: ('A' for Active; 'I' for Inactive)
REMARK    1  A    between atoms: C_1  and  O_2
REMARK    2  A    between atoms: O_2  and  C_3
REMARK    3  A    between atoms: C_6  and  C_7
REMARK    4  A    between atoms: N_12  and  C_13
REMARK    5  A    between atoms: C_13  and  C_14
REMARK    6  A    between atoms: C_14  and  C_15
REMARK                            x       y       z     vdW  Elec       q    Type
REMARK                         _______ _______ _______ _____ _____    ______ ____
ROOT
ATOM      1  C   UNL     1       2.400   5.784  20.045  0.00  0.00    +0.000 C 
ATOM      2  O   UNL     1       1.861   4.966  20.792  0.00  0.00    +0.000 OA
ATOM      3  N   UNL     1       3.410   5.425  19.159  0.00  0.00    +0.000 N 
ATOM      4  C   UNL     1       3.663   4.002  18.919  0.00  0.00    +0.000 C 
ATOM      5  C   UNL     1       3.678   3.718  17.401  0.00  0.00    +0.000 C 
ATOM      6  N   UNL     1       4.609   4.570  16.613  0.00  0.00    +0.000 NA
ATOM      7  C   UNL     1       4.342   5.994  16.941  0.00  0.00    +0.000 C 
ATOM      8  C   UNL     1       4.347   6.308  18.455  0.00  0.00    +0.000 C 
ENDROOT
BRANCH   1  12
ATOM      9  C   UNL     1       0.978   9.843  20.101  0.00  0.00    +0.000 A 
ATOM     10  C   UNL     1       1.483   9.274  18.929  0.00  0.00    +0.000 A 
ATOM     11  C   UNL     1       1.918   7.944  18.913  0.00  0.00    +0.000 A 
ATOM     12  C   UNL     1       1.875   7.177  20.080  0.00  0.00    +0.000 A 
ATOM     13  C   UNL     1       1.456   7.779  21.271  0.00  0.00    +0.000 A 
ATOM     14  C   UNL     1       0.973   9.092  21.275  0.00  0.00    +0.000 A 
BRANCH   9  16
ATOM     15  C   UNL     1       0.174  11.573  18.706  0.00  0.00    +0.000 C 
ATOM     16  O   UNL     1       0.575  11.145  20.001  0.00  0.00    +0.000 OA
ENDBRANCH   9  16
ENDBRANCH   1  12
BRANCH   6  17
ATOM     17  C   UNL     1       6.030   4.244  16.853  0.00  0.00    +0.000 C 
BRANCH  17  18
ATOM     18  C   UNL     1       7.011   5.148  16.096  0.00  0.00    +0.000 C 
BRANCH  18  19
ATOM     19  C   UNL     1       7.020   4.808  14.629  0.00  0.00    +0.000 A 
ATOM     20  C   UNL     1       6.179   3.823  14.123  0.00  0.00    +0.000 A 
ATOM     21  C   UNL     1       6.220   3.544  12.760  0.00  0.00    +0.000 A 
ATOM     22  C   UNL     1       7.093   4.256  11.943  0.00  0.00    +0.000 A 
ATOM     23  C   UNL     1       7.883   5.231  12.524  0.00  0.00    +0.000 A 
ATOM     24  N   UNL     1       7.861   5.525  13.843  0.00  0.00    +0.000 NA
ENDBRANCH  18  19
ENDBRANCH  17  18
ENDBRANCH   6  17
TORSDOF 5
ENDMDL
MODEL 3
REMARK VINA RESULT:      -7.4      3.504      8.441
REMARK  Name = 
REMARK  6 active torsions:
REMARK  status: ('A' for Active; 'I' for Inactive)
REMARK    1  A    between atoms: C_1  and  O_2
REMARK    2  A    between atoms: O_2  and  C_3
REMARK    3  A    between atoms: C_6  and  C_7
REMARK    4  A    between atoms: N_12  and  C_13
REMARK    5  A    between atoms: C_13  and  C_14
REMARK    6  A    between atoms: C_14  and  C_15
REMARK                            x       y       z     vdW  Elec       q    Type
REMARK                         _______ _______ _______ _____ _____    ______ ____
ROOT
ATOM      1  C   UNL     1       3.415   5.667  19.062  0.00  0.00    +0.000 C 
ATOM      2  O   UNL     1       3.470   4.866  19.997  0.00  0.00    +0.000 OA
ATOM      3  N   UNL     1       2.474   6.690  19.018  0.00  0.00    +0.000 N 
ATOM      4  C   UNL     1       1.699   6.986  20.225  0.00  0.00    +0.000 C 
ATOM      5  C   UNL     1       1.772   8.496  20.541  0.00  0.00    +0.000 C 
ATOM      6  N   UNL     1       1.382   9.392  19.420  0.00  0.00    +0.000 NA
ATOM      7  C   UNL     1       2.158   9.006  18.213  0.00  0.00    +0.000 C 
ATOM      8  C   UNL     1       2.081   7.503  17.861  0.00  0.00    +0.000 C 
ENDROOT
BRANCH   1  12
ATOM      9  C   UNL     1       6.402   5.399  15.978  0.00  0.00    +0.000 A 
ATOM     10  C   UNL     1       6.525   6.321  17.022  0.00  0.00    +0.000 A 
ATOM     11  C   UNL     1       5.563   6.382  18.035  0.00  0.00    +0.000 A 
ATOM     12  C   UNL     1       4.451   5.536  18.001  0.00  0.00    +0.000 A 
ATOM     13  C   UNL     1       4.284   4.682  16.906  0.00  0.00    +0.000 A 
ATOM     14  C   UNL     1       5.273   4.584  15.921  0.00  0.00    +0.000 A 
BRANCH   9  16
ATOM     15  C   UNL     1       7.137   4.724  13.836  0.00  0.00    +0.000 C 
ATOM     16  O   UNL     1       7.402   5.421  15.047  0.00  0.00    +0.000 OA
ENDBRANCH   9  16
ENDBRANCH   1  12
BRANCH   6  17
ATOM     17  C   UNL     1      -0.066   9.357  19.132  0.00  0.00    +0.000 C 
BRANCH  17  18
ATOM     18  C   UNL     1      -0.739  10.735  19.162  0.00  0.00    +0.000 C 
BRANCH  18  19
ATOM     19  C   UNL     1      -1.903  10.776  18.207  0.00  0.00    +0.000 A 
ATOM     20  C   UNL     1      -1.866  10.066  17.011  0.00  0.00    +0.000 A 
ATOM     21  C   UNL     1      -2.966  10.133  16.160  0.00  0.00    +0.000 A 
ATOM     22  C   UNL     1      -4.068  10.899  16.526  0.00  0.00    +0.000 A 
ATOM     23  C   UNL     1      -4.028  11.561  17.739  0.00  0.00    +0.000 A 
ATOM     24  N   UNL     1      -2.977  11.511  18.587  0.00  0.00    +0.000 NA
ENDBRANCH  18  19
ENDBRANCH  17  18
ENDBRANCH   6  17
TORSDOF 5
ENDMDL
MODEL 4
REMARK VINA RESULT:      -7.4      3.625      8.503
REMARK  Name = 
REMARK  6 active torsions:
REMARK  status: ('A' for Active; 'I' for Inactive)
REMARK    1  A    between atoms: C_1  and  O_2
REMARK    2  A    between atoms: O_2  and  C_3
REMARK    3  A    between atoms: C_6  and  C_7
REMARK    4  A    between atoms: N_12  and  C_13
REMARK    5  A    between atoms: C_13  and  C_14
REMARK    6  A    between atoms: C_14  and  C_15
REMARK                            x       y       z     vdW  Elec       q    Type
REMARK                         _______ _______ _______ _____ _____    ______ ____
ROOT
ATOM      1  C   UNL     1       3.287   6.112  18.979  0.00  0.00    +0.000 C 
ATOM      2  O   UNL     1       3.456   5.377  19.954  0.00  0.00    +0.000 OA
ATOM      3  N   UNL     1       2.325   7.117  18.968  0.00  0.00    +0.000 N 
ATOM      4  C   UNL     1       1.676   7.484  20.229  0.00  0.00    +0.000 C 
ATOM      5  C   UNL     1       1.751   9.012  20.435  0.00  0.00    +0.000 C 
ATOM      6  N   UNL     1       1.227   9.825  19.304  0.00  0.00    +0.000 NA
ATOM      7  C   UNL     1       1.879   9.368  18.050  0.00  0.00    +0.000 C 
ATOM      8  C   UNL     1       1.796   7.843  17.809  0.00  0.00    +0.000 C 
ENDROOT
BRANCH   1  12
ATOM      9  C   UNL     1       5.974   5.467  15.683  0.00  0.00    +0.000 A 
ATOM     10  C   UNL     1       4.997   4.523  16.011  0.00  0.00    +0.000 A 
ATOM     11  C   UNL     1       4.110   4.753  17.067  0.00  0.00    +0.000 A 
ATOM     12  C   UNL     1       4.208   5.923  17.825  0.00  0.00    +0.000 A 
ATOM     13  C   UNL     1       5.246   6.821  17.553  0.00  0.00    +0.000 A 
ATOM     14  C   UNL     1       6.100   6.615  16.465  0.00  0.00    +0.000 A 
BRANCH   9  16
ATOM     15  C   UNL     1       6.335   4.068  13.813  0.00  0.00    +0.000 C 
ATOM     16  O   UNL     1       6.782   5.143  14.630  0.00  0.00    +0.000 OA
ENDBRANCH   9  16
ENDBRANCH   1  12
BRANCH   6  17
ATOM     17  C   UNL     1      -0.243   9.751  19.175  0.00  0.00    +0.000 C 
BRANCH  17  18
ATOM     18  C   UNL     1      -0.914  11.108  18.930  0.00  0.00    +0.000 C 
BRANCH  18  19
ATOM     19  C   UNL     1      -2.044  10.969  17.944  0.00  0.00    +0.000 A 
ATOM     20  C   UNL     1      -1.898  10.190  16.801  0.00  0.00    +0.000 A 
ATOM     21  C   UNL     1      -2.970  10.090  15.919  0.00  0.00    +0.000 A 
ATOM     22  C   UNL     1      -4.154  10.763  16.203  0.00  0.00    +0.000 A 
ATOM     23  C   UNL     1      -4.221  11.502  17.369  0.00  0.00    +0.000 A 
ATOM     24  N   UNL     1      -3.198  11.614  18.246  0.00  0.00    +0.000 NA
ENDBRANCH  18  19
ENDBRANCH  17  18
ENDBRANCH   6  17
TORSDOF 5
ENDMDL
MODEL 5
REMARK VINA RESULT:      -7.4      4.195     10.182
REMARK  Name = 
REMARK  6 active torsions:
REMARK  status: ('A' for Active; 'I' for Inactive)
REMARK    1  A    between atoms: C_1  and  O_2
REMARK    2  A    between atoms: O_2  and  C_3
REMARK    3  A    between atoms: C_6  and  C_7
REMARK    4  A    between atoms: N_12  and  C_13
REMARK    5  A    between atoms: C_13  and  C_14
REMARK    6  A    between atoms: C_14  and  C_15
REMARK                            x       y       z     vdW  Elec       q    Type
REMARK                         _______ _______ _______ _____ _____    ______ ____
ROOT
ATOM      1  C   UNL     1       2.393   7.998  18.288  0.00  0.00    +0.000 C 
ATOM      2  O   UNL     1       2.648   8.529  17.206  0.00  0.00    +0.000 OA
ATOM      3  N   UNL     1       1.714   8.668  19.300  0.00  0.00    +0.000 N 
ATOM      4  C   UNL     1       1.059   9.940  18.986  0.00  0.00    +0.000 C 
ATOM      5  C   UNL     1      -0.408   9.910  19.465  0.00  0.00    +0.000 C 
ATOM      6  N   UNL     1      -0.594   9.550  20.897  0.00  0.00    +0.000 NA
ATOM      7  C   UNL     1       0.138   8.286  21.166  0.00  0.00    +0.000 C 
ATOM      8  C   UNL     1       1.618   8.300  20.717  0.00  0.00    +0.000 C 
ENDROOT
BRANCH   1  12
ATOM      9  C   UNL     1       3.619   3.894  18.689  0.00  0.00    +0.000 A 
ATOM     10  C   UNL     1       4.488   4.940  19.010  0.00  0.00    +0.000 A 
ATOM     11  C   UNL     1       4.073   6.271  18.903  0.00  0.00    +0.000 A 
ATOM     12  C   UNL     1       2.786   6.571  18.447  0.00  0.00    +0.000 A 
ATOM     13  C   UNL     1       1.952   5.525  18.039  0.00  0.00    +0.000 A 
ATOM     14  C   UNL     1       2.350   4.193  18.195  0.00  0.00    +0.000 A 
BRANCH   9  16
ATOM     15  C   UNL     1       3.342   1.582  18.291  0.00  0.00    +0.000 C 
ATOM     16  O   UNL     1       4.127   2.635  18.837  0.00  0.00    +0.000 OA
ENDBRANCH   9  16
ENDBRANCH   1  12
BRANCH   6  17
ATOM     17  C   UNL     1      -0.143  10.612  21.820  0.00  0.00    +0.000 C 
BRANCH  17  18
ATOM     18  C   UNL     1      -0.999  10.739  23.086  0.00  0.00    +0.000 C 
BRANCH  18  19
ATOM     19  C   UNL     1      -1.538  12.138  23.223  0.00  0.00    +0.000 A 
ATOM     20  C   UNL     1      -2.906  12.366  23.330  0.00  0.00    +0.000 A 
ATOM     21  C   UNL     1      -3.357  13.676  23.456  0.00  0.00    +0.000 A 
ATOM     22  C   UNL     1      -2.436  14.718  23.476  0.00  0.00    +0.000 A 
ATOM     23  C   UNL     1      -1.093  14.403  23.381  0.00  0.00    +0.000 A 
ATOM     24  N   UNL     1      -0.625  13.140  23.261  0.00  0.00    +0.000 NA
ENDBRANCH  18  19
ENDBRANCH  17  18
ENDBRANCH   6  17
TORSDOF 5
ENDMDL
MODEL 6
REMARK VINA RESULT:      -7.3      3.853      9.757
REMARK  Name = 
REMARK  6 active torsions:
REMARK  status: ('A' for Active; 'I' for Inactive)
REMARK    1  A    between atoms: C_1  and  O_2
REMARK    2  A    between atoms: O_2  and  C_3
REMARK    3  A    between atoms: C_6  and  C_7
REMARK    4  A    between atoms: N_12  and  C_13
REMARK    5  A    between atoms: C_13  and  C_14
REMARK    6  A    between atoms: C_14  and  C_15
REMARK                            x       y       z     vdW  Elec       q    Type
REMARK                         _______ _______ _______ _____ _____    ______ ____
ROOT
ATOM      1  C   UNL     1       2.262   8.159  18.202  0.00  0.00    +0.000 C 
ATOM      2  O   UNL     1       2.454   8.859  17.207  0.00  0.00    +0.000 OA
ATOM      3  N   UNL     1       1.657   8.657  19.352  0.00  0.00    +0.000 N 
ATOM      4  C   UNL     1       0.999   9.965  19.291  0.00  0.00    +0.000 C 
ATOM      5  C   UNL     1      -0.435   9.860  19.854  0.00  0.00    +0.000 C 
ATOM      6  N   UNL     1      -0.534   9.271  21.216  0.00  0.00    +0.000 NA
ATOM      7  C   UNL     1       0.198   7.979  21.229  0.00  0.00    +0.000 C 
ATOM      8  C   UNL     1       1.646   8.062  20.693  0.00  0.00    +0.000 C 
ENDROOT
BRANCH   1  12
ATOM      9  C   UNL     1       3.429   4.037  17.821  0.00  0.00    +0.000 A 
ATOM     10  C   UNL     1       4.382   5.059  17.811  0.00  0.00    +0.000 A 
ATOM     11  C   UNL     1       3.996   6.395  17.963  0.00  0.00    +0.000 A 
ATOM     12  C   UNL     1       2.645   6.724  18.102  0.00  0.00    +0.000 A 
ATOM     13  C   UNL     1       1.688   5.707  18.017  0.00  0.00    +0.000 A 
ATOM     14  C   UNL     1       2.079   4.368  17.917  0.00  0.00    +0.000 A 
BRANCH   9  16
ATOM     15  C   UNL     1       3.274   1.762  18.443  0.00  0.00    +0.000 C 
ATOM     16  O   UNL     1       3.918   2.770  17.672  0.00  0.00    +0.000 OA
ENDBRANCH   9  16
ENDBRANCH   1  12
BRANCH   6  17
ATOM     17  C   UNL     1      -0.012  10.167  22.269  0.00  0.00    +0.000 C 
BRANCH  17  18
ATOM     18  C   UNL     1      -1.084  11.046  22.925  0.00  0.00    +0.000 C 
BRANCH  18  19
ATOM     19  C   UNL     1      -0.770  12.505  22.721  0.00  0.00    +0.000 A 
ATOM     20  C   UNL     1      -1.481  13.486  23.404  0.00  0.00    +0.000 A 
ATOM     21  C   UNL     1      -1.155  14.822  23.184  0.00  0.00    +0.000 A 
ATOM     22  C   UNL     1      -0.131  15.139  22.298  0.00  0.00    +0.000 A 
ATOM     23  C   UNL     1       0.536  14.101  21.674  0.00  0.00    +0.000 A 
ATOM     24  N   UNL     1       0.244  12.796  21.870  0.00  0.00    +0.000 NA
ENDBRANCH  18  19
ENDBRANCH  17  18
ENDBRANCH   6  17
TORSDOF 5
ENDMDL
MODEL 7
REMARK VINA RESULT:      -7.2      3.267      5.366
REMARK  Name = 
REMARK  6 active torsions:
REMARK  status: ('A' for Active; 'I' for Inactive)
REMARK    1  A    between atoms: C_1  and  O_2
REMARK    2  A    between atoms: O_2  and  C_3
REMARK    3  A    between atoms: C_6  and  C_7
REMARK    4  A    between atoms: N_12  and  C_13
REMARK    5  A    between atoms: C_13  and  C_14
REMARK    6  A    between atoms: C_14  and  C_15
REMARK                            x       y       z     vdW  Elec       q    Type
REMARK                         _______ _______ _______ _____ _____    ______ ____
ROOT
ATOM      1  C   UNL     1       1.862   8.929  18.412  0.00  0.00    +0.000 C 
ATOM      2  O   UNL     1       1.907   9.809  17.551  0.00  0.00    +0.000 OA
ATOM      3  N   UNL     1       2.438   7.677  18.222  0.00  0.00    +0.000 N 
ATOM      4  C   UNL     1       3.341   7.482  17.085  0.00  0.00    +0.000 C 
ATOM      5  C   UNL     1       4.666   6.852  17.565  0.00  0.00    +0.000 C 
ATOM      6  N   UNL     1       4.516   5.598  18.352  0.00  0.00    +0.000 NA
ATOM      7  C   UNL     1       3.549   5.842  19.453  0.00  0.00    +0.000 C 
ATOM      8  C   UNL     1       2.203   6.451  18.994  0.00  0.00    +0.000 C 
ENDROOT
BRANCH   1  12
ATOM      9  C   UNL     1       0.032  10.061  22.137  0.00  0.00    +0.000 A 
ATOM     10  C   UNL     1      -0.251  10.752  20.956  0.00  0.00    +0.000 A 
ATOM     11  C   UNL     1       0.327  10.360  19.744  0.00  0.00    +0.000 A 
ATOM     12  C   UNL     1       1.218   9.284  19.706  0.00  0.00    +0.000 A 
ATOM     13  C   UNL     1       1.571   8.655  20.905  0.00  0.00    +0.000 A 
ATOM     14  C   UNL     1       0.952   9.014  22.108  0.00  0.00    +0.000 A 
BRANCH   9  16
ATOM     15  C   UNL     1      -1.551  11.555  23.056  0.00  0.00    +0.000 C 
ATOM     16  O   UNL     1      -0.593  10.524  23.260  0.00  0.00    +0.000 OA
ENDBRANCH   9  16
ENDBRANCH   1  12
BRANCH   6  17
ATOM     17  C   UNL     1       4.079   4.451  17.529  0.00  0.00    +0.000 C 
BRANCH  17  18
ATOM     18  C   UNL     1       4.218   3.094  18.230  0.00  0.00    +0.000 C 
BRANCH  18  19
ATOM     19  C   UNL     1       3.145   2.925  19.273  0.00  0.00    +0.000 A 
ATOM     20  C   UNL     1       1.801   2.925  18.916  0.00  0.00    +0.000 A 
ATOM     21  C   UNL     1       0.844   2.764  19.914  0.00  0.00    +0.000 A 
ATOM     22  C   UNL     1       1.253   2.603  21.233  0.00  0.00    +0.000 A 
ATOM     23  C   UNL     1       2.610   2.599  21.500  0.00  0.00    +0.000 A 
ATOM     24  N   UNL     1       3.561   2.749  20.551  0.00  0.00    +0.000 NA
ENDBRANCH  18  19
ENDBRANCH  17  18
ENDBRANCH   6  17
TORSDOF 5
ENDMDL
MODEL 8
REMARK VINA RESULT:      -7.2      1.826      2.834
REMARK  Name = 
REMARK  6 active torsions:
REMARK  status: ('A' for Active; 'I' for Inactive)
REMARK    1  A    between atoms: C_1  and  O_2
REMARK    2  A    between atoms: O_2  and  C_3
REMARK    3  A    between atoms: C_6  and  C_7
REMARK    4  A    between atoms: N_12  and  C_13
REMARK    5  A    between atoms: C_13  and  C_14
REMARK    6  A    between atoms: C_14  and  C_15
REMARK                            x       y       z     vdW  Elec       q    Type
REMARK                         _______ _______ _______ _____ _____    ______ ____
ROOT
ATOM      1  C   UNL     1       2.175   5.972  20.070  0.00  0.00    +0.000 C 
ATOM      2  O   UNL     1       1.574   5.307  20.915  0.00  0.00    +0.000 OA
ATOM      3  N   UNL     1       3.112   5.406  19.211  0.00  0.00    +0.000 N 
ATOM      4  C   UNL     1       3.201   3.947  19.130  0.00  0.00    +0.000 C 
ATOM      5  C   UNL     1       3.137   3.496  17.654  0.00  0.00    +0.000 C 
ATOM      6  N   UNL     1       4.129   4.145  16.756  0.00  0.00    +0.000 NA
ATOM      7  C   UNL     1       4.030   5.618  16.926  0.00  0.00    +0.000 C 
ATOM      8  C   UNL     1       4.116   6.096  18.394  0.00  0.00    +0.000 C 
ENDROOT
BRANCH   1  12
ATOM      9  C   UNL     1       1.012  10.104  19.788  0.00  0.00    +0.000 A 
ATOM     10  C   UNL     1       0.914   9.409  20.997  0.00  0.00    +0.000 A 
ATOM     11  C   UNL     1       1.321   8.074  21.086  0.00  0.00    +0.000 A 
ATOM     12  C   UNL     1       1.806   7.410  19.956  0.00  0.00    +0.000 A 
ATOM     13  C   UNL     1       1.814   8.081  18.728  0.00  0.00    +0.000 A 
ATOM     14  C   UNL     1       1.457   9.431  18.651  0.00  0.00    +0.000 A 
BRANCH   9  16
ATOM     15  C   UNL     1      -0.434  11.746  18.894  0.00  0.00    +0.000 C 
ATOM     16  O   UNL     1       0.594  11.404  19.816  0.00  0.00    +0.000 OA
ENDBRANCH   9  16
ENDBRANCH   1  12
BRANCH   6  17
ATOM     17  C   UNL     1       5.513   3.691  17.005  0.00  0.00    +0.000 C 
BRANCH  17  18
ATOM     18  C   UNL     1       6.575   4.482  16.230  0.00  0.00    +0.000 C 
BRANCH  18  19
ATOM     19  C   UNL     1       7.180   5.550  17.102  0.00  0.00    +0.000 A 
ATOM     20  C   UNL     1       7.615   5.255  18.389  0.00  0.00    +0.000 A 
ATOM     21  C   UNL     1       8.169   6.275  19.158  0.00  0.00    +0.000 A 
ATOM     22  C   UNL     1       8.277   7.554  18.621  0.00  0.00    +0.000 A 
ATOM     23  C   UNL     1       7.835   7.758  17.327  0.00  0.00    +0.000 A 
ATOM     24  N   UNL     1       7.297   6.787  16.557  0.00  0.00    +0.000 NA
ENDBRANCH  18  19
ENDBRANCH  17  18
ENDBRANCH   6  17
TORSDOF 5
ENDMDL
MODEL 9
REMARK VINA RESULT:      -7.2      0.677      1.037
REMARK  Name = 
REMARK  6 active torsions:
REMARK  status: ('A' for Active; 'I' for Inactive)
REMARK    1  A    between atoms: C_1  and  O_2
REMARK    2  A    between atoms: O_2  and  C_3
REMARK    3  A    between atoms: C_6  and  C_7
REMARK    4  A    between atoms: N_12  and  C_13
REMARK    5  A    between atoms: C_13  and  C_14
REMARK    6  A    between atoms: C_14  and  C_15
REMARK                            x       y       z     vdW  Elec       q    Type
REMARK                         _______ _______ _______ _____ _____    ______ ____
ROOT
ATOM      1  C   UNL     1       2.514   5.867  19.783  0.00  0.00    +0.000 C 
ATOM      2  O   UNL     1       1.945   5.082  20.543  0.00  0.00    +0.000 OA
ATOM      3  N   UNL     1       3.528   5.460  18.921  0.00  0.00    +0.000 N 
ATOM      4  C   UNL     1       3.749   4.026  18.721  0.00  0.00    +0.000 C 
ATOM      5  C   UNL     1       3.778   3.702  17.212  0.00  0.00    +0.000 C 
ATOM      6  N   UNL     1       4.740   4.510  16.415  0.00  0.00    +0.000 NA
ATOM      7  C   UNL     1       4.504   5.948  16.703  0.00  0.00    +0.000 C 
ATOM      8  C   UNL     1       4.495   6.302  18.208  0.00  0.00    +0.000 C 
ENDROOT
BRANCH   1  12
ATOM      9  C   UNL     1       1.001   9.893  19.804  0.00  0.00    +0.000 A 
ATOM     10  C   UNL     1       0.984   9.111  20.962  0.00  0.00    +0.000 A 
ATOM     11  C   UNL     1       1.503   7.813  20.953  0.00  0.00    +0.000 A 
ATOM     12  C   UNL     1       2.024   7.272  19.774  0.00  0.00    +0.000 A 
ATOM     13  C   UNL     1       1.953   8.024  18.596  0.00  0.00    +0.000 A 
ATOM     14  C   UNL     1       1.481   9.341  18.618  0.00  0.00    +0.000 A 
BRANCH   9  16
ATOM     15  C   UNL     1       0.916  12.103  18.970  0.00  0.00    +0.000 C 
ATOM     16  O   UNL     1       0.475  11.148  19.928  0.00  0.00    +0.000 OA
ENDBRANCH   9  16
ENDBRANCH   1  12
BRANCH   6  17
ATOM     17  C   UNL     1       6.149   4.156  16.684  0.00  0.00    +0.000 C 
BRANCH  17  18
ATOM     18  C   UNL     1       7.162   5.000  15.901  0.00  0.00    +0.000 C 
BRANCH  18  19
ATOM     19  C   UNL     1       7.079   4.696  14.429  0.00  0.00    +0.000 A 
ATOM     20  C   UNL     1       7.818   5.432  13.508  0.00  0.00    +0.000 A 
ATOM     21  C   UNL     1       7.710   5.113  12.157  0.00  0.00    +0.000 A 
ATOM     22  C   UNL     1       6.876   4.071  11.765  0.00  0.00    +0.000 A 
ATOM     23  C   UNL     1       6.189   3.380  12.747  0.00  0.00    +0.000 A 
ATOM     24  N   UNL     1       6.277   3.665  14.065  0.00  0.00    +0.000 NA
ENDBRANCH  18  19
ENDBRANCH  17  18
ENDBRANCH   6  17
TORSDOF 5
ENDMDL
