MODEL 1
REMARK VINA RESULT:      -7.8      0.000      0.000
REMARK  Name = 
REMARK  9 active torsions:
REMARK  status: ('A' for Active; 'I' for Inactive)
REMARK    1  A    between atoms: C_1  and  C_2
REMARK    2  A    between atoms: C_2  and  C_3
REMARK    3  A    between atoms: C_2  and  O_4
REMARK    4  A    between atoms: C_2  and  C_22
REMARK    5  A    between atoms: O_4  and  C_5
REMARK    6  A    between atoms: C_8  and  C_9
REMARK    7  A    between atoms: C_9  and  N_10
REMARK    8  A    between atoms: C_11  and  C_13
REMARK    9  A    between atoms: C_22  and  O_24
REMARK                            x       y       z     vdW  Elec       q    Type
REMARK                         _______ _______ _______ _____ _____    ______ ____
ROOT
ATOM      1  C   UNL     1       2.905   6.098  19.143  0.00  0.00    +0.000 A 
ATOM      2  C   UNL     1       3.101   6.862  17.990  0.00  0.00    +0.000 A 
ATOM      3  C   UNL     1       2.610   8.170  17.903  0.00  0.00    +0.000 A 
ATOM      4  C   UNL     1       1.916   8.736  18.977  0.00  0.00    +0.000 A 
ATOM      5  C   UNL     1       1.684   7.954  20.112  0.00  0.00    +0.000 A 
ATOM      6  C   UNL     1       2.157   6.640  20.184  0.00  0.00    +0.000 A 
ENDROOT
BRANCH   1   7
ATOM      7  O   UNL     1       3.470   4.857  19.114  0.00  0.00    +0.000 OA
BRANCH   7   9
ATOM      8  C   UNL     1       2.246   3.333  20.690  0.00  0.00    +0.000 C 
ATOM      9  C   UNL     1       2.692   3.644  19.254  0.00  0.00    +0.000 C 
ATOM     10  C   UNL     1       1.555   3.608  18.230  0.00  0.00    +0.000 C 
BRANCH   9  11
ATOM     11  C   UNL     1       3.660   2.503  18.859  0.00  0.00    +0.000 C 
ATOM     12  O   UNL     1       3.361   1.553  18.148  0.00  0.00    +0.000 OA
BRANCH  11  13
ATOM     13  O   UNL     1       4.905   2.640  19.381  0.00  0.00    +0.000 OA
ATOM     14  H   UNL     1       4.826   2.869  20.333  0.00  0.00    +0.000 HD
ENDBRANCH  11  13
ENDBRANCH   9  11
ENDBRANCH   7   9
ENDBRANCH   1   7
BRANCH   4  15
ATOM     15  C   UNL     1       1.369  10.136  18.898  0.00  0.00    +0.000 C 
BRANCH  15  16
ATOM     16  N   UNL     1       0.216  10.186  18.026  0.00  0.00    +0.000 N 
ATOM     17  C   UNL     1      -1.025  10.495  18.532  0.00  0.00    +0.000 C 
ATOM     18  O   UNL     1      -1.227  10.733  19.717  0.00  0.00    +0.000 OA
ATOM     19  H   UNL     1       0.379  10.205  17.028  0.00  0.00    +0.000 HD
BRANCH  17  20
ATOM     20  C   UNL     1      -2.141  10.555  17.554  0.00  0.00    +0.000 A 
ATOM     21  C   UNL     1      -2.038   9.801  16.377  0.00  0.00    +0.000 A 
ATOM     22  C   UNL     1      -3.053   9.848  15.420  0.00  0.00    +0.000 A 
ATOM     23  C   UNL     1      -4.167  10.659  15.631  0.00  0.00    +0.000 A 
ATOM     24  C   UNL     1      -4.261  11.421  16.795  0.00  0.00    +0.000 A 
ATOM     25 CL   UNL     1      -5.625  12.441  17.037  0.00  0.00    +0.000 Cl
ATOM     26  C   UNL     1      -3.255  11.376  17.760  0.00  0.00    +0.000 A 
ENDBRANCH  17  20
ENDBRANCH  15  16
ENDBRANCH   4  15
TORSDOF 7
ENDMDL
MODEL 2
REMARK VINA RESULT:      -7.7      0.616      1.479
REMARK  Name = 
REMARK  9 active torsions:
REMARK  status: ('A' for Active; 'I' for Inactive)
REMARK    1  A    between atoms: C_1  and  C_2
REMARK    2  A    between atoms: C_2  and  C_3
REMARK    3  A    between atoms: C_2  and  O_4
REMARK    4  A    between atoms: C_2  and  C_22
REMARK    5  A    between atoms: O_4  and  C_5
REMARK    6  A    between atoms: C_8  and  C_9
REMARK    7  A    between atoms: C_9  and  N_10
REMARK    8  A    between atoms: C_11  and  C_13
REMARK    9  A    between atoms: C_22  and  O_24
REMARK                            x       y       z     vdW  Elec       q    Type
REMARK                         _______ _______ _______ _____ _____    ______ ____
ROOT
ATOM      1  C   UNL     1       3.066   6.035  18.971  0.00  0.00    +0.000 A 
ATOM      2  C   UNL     1       2.276   6.459  20.043  0.00  0.00    +0.000 A 
ATOM      3  C   UNL     1       1.708   7.738  20.055  0.00  0.00    +0.000 A 
ATOM      4  C   UNL     1       1.920   8.615  18.986  0.00  0.00    +0.000 A 
ATOM      5  C   UNL     1       2.747   8.204  17.937  0.00  0.00    +0.000 A 
ATOM      6  C   UNL     1       3.331   6.933  17.941  0.00  0.00    +0.000 A 
ENDROOT
BRANCH   1   7
ATOM      7  O   UNL     1       3.524   4.754  19.064  0.00  0.00    +0.000 OA
BRANCH   7   9
ATOM      8  C   UNL     1       1.577   3.704  17.876  0.00  0.00    +0.000 C 
ATOM      9  C   UNL     1       3.084   3.703  18.171  0.00  0.00    +0.000 C 
ATOM     10  C   UNL     1       3.961   3.655  16.917  0.00  0.00    +0.000 C 
BRANCH   9  11
ATOM     11  C   UNL     1       3.360   2.388  18.938  0.00  0.00    +0.000 C 
ATOM     12  O   UNL     1       4.338   2.189  19.647  0.00  0.00    +0.000 OA
BRANCH  11  13
ATOM     13  O   UNL     1       2.407   1.440  18.754  0.00  0.00    +0.000 OA
ATOM     14  H   UNL     1       2.519   0.741  19.435  0.00  0.00    +0.000 HD
ENDBRANCH  11  13
ENDBRANCH   9  11
ENDBRANCH   7   9
ENDBRANCH   1   7
BRANCH   4  15
ATOM     15  C   UNL     1       1.329   9.998  18.987  0.00  0.00    +0.000 C 
BRANCH  15  16
ATOM     16  N   UNL     1       0.175  10.062  18.117  0.00  0.00    +0.000 N 
ATOM     17  C   UNL     1      -1.024  10.546  18.587  0.00  0.00    +0.000 C 
ATOM     18  O   UNL     1      -1.187  10.934  19.738  0.00  0.00    +0.000 OA
ATOM     19  H   UNL     1       0.326   9.953  17.123  0.00  0.00    +0.000 HD
BRANCH  17  20
ATOM     20  C   UNL     1      -2.142  10.604  17.610  0.00  0.00    +0.000 A 
ATOM     21  C   UNL     1      -2.027   9.870  16.422  0.00  0.00    +0.000 A 
ATOM     22  C   UNL     1      -3.044   9.916  15.467  0.00  0.00    +0.000 A 
ATOM     23  C   UNL     1      -4.170  10.707  15.690  0.00  0.00    +0.000 A 
ATOM     24  C   UNL     1      -4.274  11.450  16.866  0.00  0.00    +0.000 A 
ATOM     25 CL   UNL     1      -5.653  12.445  17.123  0.00  0.00    +0.000 Cl
ATOM     26  C   UNL     1      -3.267  11.405  17.829  0.00  0.00    +0.000 A 
ENDBRANCH  17  20
ENDBRANCH  15  16
ENDBRANCH   4  15
TORSDOF 7
ENDMDL
MODEL 3
REMARK VINA RESULT:      -7.6      1.025      1.804
REMARK  Name = 
REMARK  9 active torsions:
REMARK  status: ('A' for Active; 'I' for Inactive)
REMARK    1  A    between atoms: C_1  and  C_2
REMARK    2  A    between atoms: C_2  and  C_3
REMARK    3  A    between atoms: C_2  and  O_4
REMARK    4  A    between atoms: C_2  and  C_22
REMARK    5  A    between atoms: O_4  and  C_5
REMARK    6  A    between atoms: C_8  and  C_9
REMARK    7  A    between atoms: C_9  and  N_10
REMARK    8  A    between atoms: C_11  and  C_13
REMARK    9  A    between atoms: C_22  and  O_24
REMARK                            x       y       z     vdW  Elec       q    Type
REMARK                         _______ _______ _______ _____ _____    ______ ____
ROOT
ATOM      1  C   UNL     1       2.893   6.063  19.208  0.00  0.00    +0.000 A 
ATOM      2  C   UNL     1       2.174   6.663  20.246  0.00  0.00    +0.000 A 
ATOM      3  C   UNL     1       1.693   7.971  20.123  0.00  0.00    +0.000 A 
ATOM      4  C   UNL     1       1.923   8.701  18.952  0.00  0.00    +0.000 A 
ATOM      5  C   UNL     1       2.680   8.114  17.934  0.00  0.00    +0.000 A 
ATOM      6  C   UNL     1       3.178   6.814  18.072  0.00  0.00    +0.000 A 
ENDROOT
BRANCH   1   7
ATOM      7  O   UNL     1       3.267   4.771  19.439  0.00  0.00    +0.000 OA
BRANCH   7   9
ATOM      8  C   UNL     1       1.368   3.975  18.003  0.00  0.00    +0.000 C 
ATOM      9  C   UNL     1       2.460   3.642  19.029  0.00  0.00    +0.000 C 
ATOM     10  C   UNL     1       3.346   2.460  18.629  0.00  0.00    +0.000 C 
BRANCH   9  11
ATOM     11  C   UNL     1       1.713   3.202  20.310  0.00  0.00    +0.000 C 
ATOM     12  O   UNL     1       2.237   3.061  21.407  0.00  0.00    +0.000 OA
BRANCH  11  13
ATOM     13  O   UNL     1       0.389   2.973  20.117  0.00  0.00    +0.000 OA
ATOM     14  H   UNL     1       0.091   2.282  20.748  0.00  0.00    +0.000 HD
ENDBRANCH  11  13
ENDBRANCH   9  11
ENDBRANCH   7   9
ENDBRANCH   1   7
BRANCH   4  15
ATOM     15  C   UNL     1       1.425  10.113  18.807  0.00  0.00    +0.000 C 
BRANCH  15  16
ATOM     16  N   UNL     1       0.254  10.159  17.959  0.00  0.00    +0.000 N 
ATOM     17  C   UNL     1      -0.971  10.497  18.485  0.00  0.00    +0.000 C 
ATOM     18  O   UNL     1      -1.144  10.766  19.668  0.00  0.00    +0.000 OA
ATOM     19  H   UNL     1       0.395  10.152  16.957  0.00  0.00    +0.000 HD
BRANCH  17  20
ATOM     20  C   UNL     1      -2.108  10.549  17.530  0.00  0.00    +0.000 A 
ATOM     21  C   UNL     1      -2.025   9.794  16.353  0.00  0.00    +0.000 A 
ATOM     22  C   UNL     1      -3.060   9.834  15.417  0.00  0.00    +0.000 A 
ATOM     23  C   UNL     1      -4.175  10.639  15.650  0.00  0.00    +0.000 A 
ATOM     24  C   UNL     1      -4.248  11.402  16.815  0.00  0.00    +0.000 A 
ATOM     25 CL   UNL     1      -5.613  12.415  17.084  0.00  0.00    +0.000 Cl
ATOM     26  C   UNL     1      -3.222  11.364  17.758  0.00  0.00    +0.000 A 
ENDBRANCH  17  20
ENDBRANCH  15  16
ENDBRANCH   4  15
TORSDOF 7
ENDMDL
MODEL 4
REMARK VINA RESULT:      -7.6      0.949      1.117
REMARK  Name = 
REMARK  9 active torsions:
REMARK  status: ('A' for Active; 'I' for Inactive)
REMARK    1  A    between atoms: C_1  and  C_2
REMARK    2  A    between atoms: C_2  and  C_3
REMARK    3  A    between atoms: C_2  and  O_4
REMARK    4  A    between atoms: C_2  and  C_22
REMARK    5  A    between atoms: O_4  and  C_5
REMARK    6  A    between atoms: C_8  and  C_9
REMARK    7  A    between atoms: C_9  and  N_10
REMARK    8  A    between atoms: C_11  and  C_13
REMARK    9  A    between atoms: C_22  and  O_24
REMARK                            x       y       z     vdW  Elec       q    Type
REMARK                         _______ _______ _______ _____ _____    ______ ____
ROOT
ATOM      1  C   UNL     1       2.638   5.795  19.307  0.00  0.00    +0.000 A 
ATOM      2  C   UNL     1       2.709   6.439  18.069  0.00  0.00    +0.000 A 
ATOM      3  C   UNL     1       2.303   7.771  17.928  0.00  0.00    +0.000 A 
ATOM      4  C   UNL     1       1.822   8.483  19.031  0.00  0.00    +0.000 A 
ATOM      5  C   UNL     1       1.711   7.823  20.258  0.00  0.00    +0.000 A 
ATOM      6  C   UNL     1       2.096   6.485  20.388  0.00  0.00    +0.000 A 
ENDROOT
BRANCH   1   7
ATOM      7  O   UNL     1       3.103   4.513  19.317  0.00  0.00    +0.000 OA
BRANCH   7   9
ATOM      8  C   UNL     1       0.884   3.765  20.222  0.00  0.00    +0.000 C 
ATOM      9  C   UNL     1       2.274   3.387  19.690  0.00  0.00    +0.000 C 
ATOM     10  C   UNL     1       2.246   2.340  18.573  0.00  0.00    +0.000 C 
BRANCH   9  11
ATOM     11  C   UNL     1       3.012   2.726  20.878  0.00  0.00    +0.000 C 
ATOM     12  O   UNL     1       2.606   2.720  22.033  0.00  0.00    +0.000 OA
BRANCH  11  13
ATOM     13  O   UNL     1       4.184   2.137  20.531  0.00  0.00    +0.000 OA
ATOM     14  H   UNL     1       4.814   2.218  21.280  0.00  0.00    +0.000 HD
ENDBRANCH  11  13
ENDBRANCH   9  11
ENDBRANCH   7   9
ENDBRANCH   1   7
BRANCH   4  15
ATOM     15  C   UNL     1       1.369   9.911  18.896  0.00  0.00    +0.000 C 
BRANCH  15  16
ATOM     16  N   UNL     1       0.209  10.002  18.037  0.00  0.00    +0.000 N 
ATOM     17  C   UNL     1      -0.992  10.452  18.536  0.00  0.00    +0.000 C 
ATOM     18  O   UNL     1      -1.151  10.788  19.703  0.00  0.00    +0.000 OA
ATOM     19  H   UNL     1       0.354   9.937  17.038  0.00  0.00    +0.000 HD
BRANCH  17  20
ATOM     20  C   UNL     1      -2.117  10.541  17.570  0.00  0.00    +0.000 A 
ATOM     21  C   UNL     1      -2.016   9.836  16.363  0.00  0.00    +0.000 A 
ATOM     22  C   UNL     1      -3.040   9.912  15.417  0.00  0.00    +0.000 A 
ATOM     23  C   UNL     1      -4.160  10.703  15.669  0.00  0.00    +0.000 A 
ATOM     24  C   UNL     1      -4.250  11.417  16.864  0.00  0.00    +0.000 A 
ATOM     25 CL   UNL     1      -5.622  12.413  17.158  0.00  0.00    +0.000 Cl
ATOM     26  C   UNL     1      -3.236  11.342  17.818  0.00  0.00    +0.000 A 
ENDBRANCH  17  20
ENDBRANCH  15  16
ENDBRANCH   4  15
TORSDOF 7
ENDMDL
MODEL 5
REMARK VINA RESULT:      -7.6      1.071      1.537
REMARK  Name = 
REMARK  9 active torsions:
REMARK  status: ('A' for Active; 'I' for Inactive)
REMARK    1  A    between atoms: C_1  and  C_2
REMARK    2  A    between atoms: C_2  and  C_3
REMARK    3  A    between atoms: C_2  and  O_4
REMARK    4  A    between atoms: C_2  and  C_22
REMARK    5  A    between atoms: O_4  and  C_5
REMARK    6  A    between atoms: C_8  and  C_9
REMARK    7  A    between atoms: C_9  and  N_10
REMARK    8  A    between atoms: C_11  and  C_13
REMARK    9  A    between atoms: C_22  and  O_24
REMARK                            x       y       z     vdW  Elec       q    Type
REMARK                         _______ _______ _______ _____ _____    ______ ____
ROOT
ATOM      1  C   UNL     1       3.174   5.700  19.419  0.00  0.00    +0.000 A 
ATOM      2  C   UNL     1       2.317   6.533  20.144  0.00  0.00    +0.000 A 
ATOM      3  C   UNL     1       1.933   7.781  19.640  0.00  0.00    +0.000 A 
ATOM      4  C   UNL     1       2.402   8.215  18.395  0.00  0.00    +0.000 A 
ATOM      5  C   UNL     1       3.294   7.398  17.694  0.00  0.00    +0.000 A 
ATOM      6  C   UNL     1       3.692   6.162  18.213  0.00  0.00    +0.000 A 
ENDROOT
BRANCH   1   7
ATOM      7  O   UNL     1       3.435   4.495  20.003  0.00  0.00    +0.000 OA
BRANCH   7   9
ATOM      8  C   UNL     1       2.128   2.539  20.879  0.00  0.00    +0.000 C 
ATOM      9  C   UNL     1       2.699   3.294  19.671  0.00  0.00    +0.000 C 
ATOM     10  C   UNL     1       1.669   3.575  18.573  0.00  0.00    +0.000 C 
BRANCH   9  11
ATOM     11  C   UNL     1       3.748   2.347  19.041  0.00  0.00    +0.000 C 
ATOM     12  O   UNL     1       3.591   1.732  17.995  0.00  0.00    +0.000 OA
BRANCH  11  13
ATOM     13  O   UNL     1       4.892   2.244  19.765  0.00  0.00    +0.000 OA
ATOM     14  H   UNL     1       4.883   2.925  20.472  0.00  0.00    +0.000 HD
ENDBRANCH  11  13
ENDBRANCH   9  11
ENDBRANCH   7   9
ENDBRANCH   1   7
BRANCH   4  15
ATOM     15  C   UNL     1       2.012   9.559  17.843  0.00  0.00    +0.000 C 
BRANCH  15  16
ATOM     16  N   UNL     1       0.574   9.669  17.734  0.00  0.00    +0.000 N 
ATOM     17  C   UNL     1      -0.091  10.710  18.340  0.00  0.00    +0.000 C 
ATOM     18  O   UNL     1       0.474  11.578  18.995  0.00  0.00    +0.000 OA
ATOM     19  H   UNL     1       0.107   9.103  17.038  0.00  0.00    +0.000 HD
BRANCH  17  20
ATOM     20  C   UNL     1      -1.563  10.757  18.144  0.00  0.00    +0.000 A 
ATOM     21  C   UNL     1      -2.122   9.995  17.109  0.00  0.00    +0.000 A 
ATOM     22  C   UNL     1      -3.498  10.030  16.875  0.00  0.00    +0.000 A 
ATOM     23  C   UNL     1      -4.316  10.837  17.665  0.00  0.00    +0.000 A 
ATOM     24  C   UNL     1      -3.755  11.607  18.684  0.00  0.00    +0.000 A 
ATOM     25 CL   UNL     1      -4.765  12.622  19.638  0.00  0.00    +0.000 Cl
ATOM     26  C   UNL     1      -2.383  11.574  18.930  0.00  0.00    +0.000 A 
ENDBRANCH  17  20
ENDBRANCH  15  16
ENDBRANCH   4  15
TORSDOF 7
ENDMDL
MODEL 6
REMARK VINA RESULT:      -7.6      0.686      1.146
REMARK  Name = 
REMARK  9 active torsions:
REMARK  status: ('A' for Active; 'I' for Inactive)
REMARK    1  A    between atoms: C_1  and  C_2
REMARK    2  A    between atoms: C_2  and  C_3
REMARK    3  A    between atoms: C_2  and  O_4
REMARK    4  A    between atoms: C_2  and  C_22
REMARK    5  A    between atoms: O_4  and  C_5
REMARK    6  A    between atoms: C_8  and  C_9
REMARK    7  A    between atoms: C_9  and  N_10
REMARK    8  A    between atoms: C_11  and  C_13
REMARK    9  A    between atoms: C_22  and  O_24
REMARK                            x       y       z     vdW  Elec       q    Type
REMARK                         _______ _______ _______ _____ _____    ______ ____
ROOT
ATOM      1  C   UNL     1       2.963   6.205  19.021  0.00  0.00    +0.000 A 
ATOM      2  C   UNL     1       3.180   7.025  17.910  0.00  0.00    +0.000 A 
ATOM      3  C   UNL     1       2.665   8.326  17.866  0.00  0.00    +0.000 A 
ATOM      4  C   UNL     1       1.926   8.830  18.941  0.00  0.00    +0.000 A 
ATOM      5  C   UNL     1       1.673   7.993  20.031  0.00  0.00    +0.000 A 
ATOM      6  C   UNL     1       2.170   6.686  20.060  0.00  0.00    +0.000 A 
ENDROOT
BRANCH   1   7
ATOM      7  O   UNL     1       3.553   4.977  18.955  0.00  0.00    +0.000 OA
BRANCH   7   9
ATOM      8  C   UNL     1       1.544   4.079  17.746  0.00  0.00    +0.000 C 
ATOM      9  C   UNL     1       3.011   3.895  18.161  0.00  0.00    +0.000 C 
ATOM     10  C   UNL     1       3.946   3.555  16.998  0.00  0.00    +0.000 C 
BRANCH   9  11
ATOM     11  C   UNL     1       3.031   2.665  19.100  0.00  0.00    +0.000 C 
ATOM     12  O   UNL     1       3.206   2.717  20.310  0.00  0.00    +0.000 OA
BRANCH  11  13
ATOM     13  O   UNL     1       2.836   1.486  18.457  0.00  0.00    +0.000 OA
ATOM     14  H   UNL     1       2.268   1.643  17.671  0.00  0.00    +0.000 HD
ENDBRANCH  11  13
ENDBRANCH   9  11
ENDBRANCH   7   9
ENDBRANCH   1   7
BRANCH   4  15
ATOM     15  C   UNL     1       1.354  10.221  18.905  0.00  0.00    +0.000 C 
BRANCH  15  16
ATOM     16  N   UNL     1       0.204  10.280  18.031  0.00  0.00    +0.000 N 
ATOM     17  C   UNL     1      -1.052  10.496  18.548  0.00  0.00    +0.000 C 
ATOM     18  O   UNL     1      -1.270  10.641  19.744  0.00  0.00    +0.000 OA
ATOM     19  H   UNL     1       0.370  10.375  17.037  0.00  0.00    +0.000 HD
BRANCH  17  20
ATOM     20  C   UNL     1      -2.166  10.573  17.568  0.00  0.00    +0.000 A 
ATOM     21  C   UNL     1      -2.058   9.843  16.376  0.00  0.00    +0.000 A 
ATOM     22  C   UNL     1      -3.070   9.907  15.418  0.00  0.00    +0.000 A 
ATOM     23  C   UNL     1      -4.187  10.711  15.641  0.00  0.00    +0.000 A 
ATOM     24  C   UNL     1      -4.285  11.450  16.821  0.00  0.00    +0.000 A 
ATOM     25 CL   UNL     1      -5.652  12.463  17.079  0.00  0.00    +0.000 Cl
ATOM     26  C   UNL     1      -3.282  11.388  17.787  0.00  0.00    +0.000 A 
ENDBRANCH  17  20
ENDBRANCH  15  16
ENDBRANCH   4  15
TORSDOF 7
ENDMDL
MODEL 7
REMARK VINA RESULT:      -7.5      1.305      2.200
REMARK  Name = 
REMARK  9 active torsions:
REMARK  status: ('A' for Active; 'I' for Inactive)
REMARK    1  A    between atoms: C_1  and  C_2
REMARK    2  A    between atoms: C_2  and  C_3
REMARK    3  A    between atoms: C_2  and  O_4
REMARK    4  A    between atoms: C_2  and  C_22
REMARK    5  A    between atoms: O_4  and  C_5
REMARK    6  A    between atoms: C_8  and  C_9
REMARK    7  A    between atoms: C_9  and  N_10
REMARK    8  A    between atoms: C_11  and  C_13
REMARK    9  A    between atoms: C_22  and  O_24
REMARK                            x       y       z     vdW  Elec       q    Type
REMARK                         _______ _______ _______ _____ _____    ______ ____
ROOT
ATOM      1  C   UNL     1       2.576   5.786  18.872  0.00  0.00    +0.000 A 
ATOM      2  C   UNL     1       2.185   6.429  20.050  0.00  0.00    +0.000 A 
ATOM      3  C   UNL     1       1.871   7.793  20.053  0.00  0.00    +0.000 A 
ATOM      4  C   UNL     1       1.940   8.537  18.871  0.00  0.00    +0.000 A 
ATOM      5  C   UNL     1       2.374   7.900  17.704  0.00  0.00    +0.000 A 
ATOM      6  C   UNL     1       2.708   6.542  17.711  0.00  0.00    +0.000 A 
ENDROOT
BRANCH   1   7
ATOM      7  O   UNL     1       2.812   4.448  18.997  0.00  0.00    +0.000 OA
BRANCH   7   9
ATOM      8  C   UNL     1       4.173   3.589  17.071  0.00  0.00    +0.000 C 
ATOM      9  C   UNL     1       4.056   3.835  18.582  0.00  0.00    +0.000 C 
ATOM     10  C   UNL     1       5.253   4.576  19.184  0.00  0.00    +0.000 C 
BRANCH   9  11
ATOM     11  C   UNL     1       4.046   2.434  19.237  0.00  0.00    +0.000 C 
ATOM     12  O   UNL     1       4.712   2.118  20.213  0.00  0.00    +0.000 OA
BRANCH  11  13
ATOM     13  O   UNL     1       3.217   1.552  18.623  0.00  0.00    +0.000 OA
ATOM     14  H   UNL     1       2.676   2.033  17.960  0.00  0.00    +0.000 HD
ENDBRANCH  11  13
ENDBRANCH   9  11
ENDBRANCH   7   9
ENDBRANCH   1   7
BRANCH   4  15
ATOM     15  C   UNL     1       1.620  10.006  18.858  0.00  0.00    +0.000 C 
BRANCH  15  16
ATOM     16  N   UNL     1       0.409  10.259  18.108  0.00  0.00    +0.000 N 
ATOM     17  C   UNL     1      -0.806  10.316  18.749  0.00  0.00    +0.000 C 
ATOM     18  O   UNL     1      -0.937  10.154  19.956  0.00  0.00    +0.000 OA
ATOM     19  H   UNL     1       0.503  10.603  17.161  0.00  0.00    +0.000 HD
BRANCH  17  20
ATOM     20  C   UNL     1      -1.988  10.614  17.900  0.00  0.00    +0.000 A 
ATOM     21  C   UNL     1      -3.082  11.266  18.485  0.00  0.00    +0.000 A 
ATOM     22  C   UNL     1      -4.222  11.543  17.730  0.00  0.00    +0.000 A 
ATOM     23  C   UNL     1      -4.278  11.158  16.391  0.00  0.00    +0.000 A 
ATOM     24  C   UNL     1      -3.194  10.495  15.815  0.00  0.00    +0.000 A 
ATOM     25 CL   UNL     1      -3.278   9.998  14.169  0.00  0.00    +0.000 Cl
ATOM     26  C   UNL     1      -2.048  10.220  16.559  0.00  0.00    +0.000 A 
ENDBRANCH  17  20
ENDBRANCH  15  16
ENDBRANCH   4  15
TORSDOF 7
ENDMDL
MODEL 8
REMARK VINA RESULT:      -7.5      1.172      1.529
REMARK  Name = 
REMARK  9 active torsions:
REMARK  status: ('A' for Active; 'I' for Inactive)
REMARK    1  A    between atoms: C_1  and  C_2
REMARK    2  A    between atoms: C_2  and  C_3
REMARK    3  A    between atoms: C_2  and  O_4
REMARK    4  A    between atoms: C_2  and  C_22
REMARK    5  A    between atoms: O_4  and  C_5
REMARK    6  A    between atoms: C_8  and  C_9
REMARK    7  A    between atoms: C_9  and  N_10
REMARK    8  A    between atoms: C_11  and  C_13
REMARK    9  A    between atoms: C_22  and  O_24
REMARK                            x       y       z     vdW  Elec       q    Type
REMARK                         _______ _______ _______ _____ _____    ______ ____
ROOT
ATOM      1  C   UNL     1       2.486   6.237  19.310  0.00  0.00    +0.000 A 
ATOM      2  C   UNL     1       2.649   6.891  18.085  0.00  0.00    +0.000 A 
ATOM      3  C   UNL     1       2.287   8.235  17.935  0.00  0.00    +0.000 A 
ATOM      4  C   UNL     1       1.758   8.949  19.016  0.00  0.00    +0.000 A 
ATOM      5  C   UNL     1       1.556   8.279  20.226  0.00  0.00    +0.000 A 
ATOM      6  C   UNL     1       1.898   6.930  20.364  0.00  0.00    +0.000 A 
ENDROOT
BRANCH   1   7
ATOM      7  O   UNL     1       2.917   4.943  19.333  0.00  0.00    +0.000 OA
BRANCH   7   9
ATOM      8  C   UNL     1       0.945   3.853  20.441  0.00  0.00    +0.000 C 
ATOM      9  C   UNL     1       2.005   3.819  19.330  0.00  0.00    +0.000 C 
ATOM     10  C   UNL     1       1.428   3.592  17.931  0.00  0.00    +0.000 C 
BRANCH   9  11
ATOM     11  C   UNL     1       2.891   2.588  19.633  0.00  0.00    +0.000 C 
ATOM     12  O   UNL     1       3.197   1.733  18.813  0.00  0.00    +0.000 OA
BRANCH  11  13
ATOM     13  O   UNL     1       3.313   2.525  20.921  0.00  0.00    +0.000 OA
ATOM     14  H   UNL     1       2.721   3.077  21.477  0.00  0.00    +0.000 HD
ENDBRANCH  11  13
ENDBRANCH   9  11
ENDBRANCH   7   9
ENDBRANCH   1   7
BRANCH   4  15
ATOM     15  C   UNL     1       1.352  10.390  18.871  0.00  0.00    +0.000 C 
BRANCH  15  16
ATOM     16  N   UNL     1       0.120  10.501  18.121  0.00  0.00    +0.000 N 
ATOM     17  C   UNL     1      -1.045  10.875  18.749  0.00  0.00    +0.000 C 
ATOM     18  O   UNL     1      -1.112  11.125  19.947  0.00  0.00    +0.000 OA
ATOM     19  H   UNL     1       0.180  10.510  17.111  0.00  0.00    +0.000 HD
BRANCH  17  20
ATOM     20  C   UNL     1      -2.251  10.994  17.890  0.00  0.00    +0.000 A 
ATOM     21  C   UNL     1      -3.420  11.525  18.452  0.00  0.00    +0.000 A 
ATOM     22  C   UNL     1      -4.583  11.631  17.686  0.00  0.00    +0.000 A 
ATOM     23  C   UNL     1      -4.583  11.196  16.362  0.00  0.00    +0.000 A 
ATOM     24  C   UNL     1      -3.423  10.653  15.810  0.00  0.00    +0.000 A 
ATOM     25 CL   UNL     1      -3.437  10.092  14.183  0.00  0.00    +0.000 Cl
ATOM     26  C   UNL     1      -2.255  10.549  16.564  0.00  0.00    +0.000 A 
ENDBRANCH  17  20
ENDBRANCH  15  16
ENDBRANCH   4  15
TORSDOF 7
ENDMDL
MODEL 9
REMARK VINA RESULT:      -7.4      1.121      1.796
REMARK  Name = 
REMARK  9 active torsions:
REMARK  status: ('A' for Active; 'I' for Inactive)
REMARK    1  A    between atoms: C_1  and  C_2
REMARK    2  A    between atoms: C_2  and  C_3
REMARK    3  A    between atoms: C_2  and  O_4
REMARK    4  A    between atoms: C_2  and  C_22
REMARK    5  A    between atoms: O_4  and  C_5
REMARK    6  A    between atoms: C_8  and  C_9
REMARK    7  A    between atoms: C_9  and  N_10
REMARK    8  A    between atoms: C_11  and  C_13
REMARK    9  A    between atoms: C_22  and  O_24
REMARK                            x       y       z     vdW  Elec       q    Type
REMARK                         _______ _______ _______ _____ _____    ______ ____
ROOT
ATOM      1  C   UNL     1       2.688   6.125  19.213  0.00  0.00    +0.000 A 
ATOM      2  C   UNL     1       1.957   6.840  20.166  0.00  0.00    +0.000 A 
ATOM      3  C   UNL     1       1.590   8.172  19.938  0.00  0.00    +0.000 A 
ATOM      4  C   UNL     1       1.948   8.809  18.746  0.00  0.00    +0.000 A 
ATOM      5  C   UNL     1       2.717   8.105  17.815  0.00  0.00    +0.000 A 
ATOM      6  C   UNL     1       3.100   6.782  18.057  0.00  0.00    +0.000 A 
ENDROOT
BRANCH   1   7
ATOM      7  O   UNL     1       2.943   4.826  19.540  0.00  0.00    +0.000 OA
BRANCH   7   9
ATOM      8  C   UNL     1       1.355   2.932  19.978  0.00  0.00    +0.000 C 
ATOM      9  C   UNL     1       2.204   3.720  18.971  0.00  0.00    +0.000 C 
ATOM     10  C   UNL     1       1.432   4.167  17.727  0.00  0.00    +0.000 C 
BRANCH   9  11
ATOM     11  C   UNL     1       3.286   2.733  18.471  0.00  0.00    +0.000 C 
ATOM     12  O   UNL     1       3.475   1.616  18.933  0.00  0.00    +0.000 OA
BRANCH  11  13
ATOM     13  O   UNL     1       4.037   3.220  17.451  0.00  0.00    +0.000 OA
ATOM     14  H   UNL     1       3.646   4.067  17.145  0.00  0.00    +0.000 HD
ENDBRANCH  11  13
ENDBRANCH   9  11
ENDBRANCH   7   9
ENDBRANCH   1   7
BRANCH   4  15
ATOM     15  C   UNL     1       1.574  10.243  18.489  0.00  0.00    +0.000 C 
BRANCH  15  16
ATOM     16  N   UNL     1       0.261  10.331  17.890  0.00  0.00    +0.000 N 
ATOM     17  C   UNL     1      -0.757  10.989  18.541  0.00  0.00    +0.000 C 
ATOM     18  O   UNL     1      -0.621  11.520  19.637  0.00  0.00    +0.000 OA
ATOM     19  H   UNL     1       0.170  10.094  16.911  0.00  0.00    +0.000 HD
BRANCH  17  20
ATOM     20  C   UNL     1      -2.061  11.055  17.832  0.00  0.00    +0.000 A 
ATOM     21  C   UNL     1      -3.171  11.558  18.524  0.00  0.00    +0.000 A 
ATOM     22  C   UNL     1      -4.420  11.615  17.903  0.00  0.00    +0.000 A 
ATOM     23  C   UNL     1      -4.566  11.156  16.595  0.00  0.00    +0.000 A 
ATOM     24  C   UNL     1      -3.463  10.641  15.914  0.00  0.00    +0.000 A 
ATOM     25 CL   UNL     1      -3.654  10.051  14.309  0.00  0.00    +0.000 Cl
ATOM     26  C   UNL     1      -2.210  10.586  16.523  0.00  0.00    +0.000 A 
ENDBRANCH  17  20
ENDBRANCH  15  16
ENDBRANCH   4  15
TORSDOF 7
ENDMDL
