MODEL 1
REMARK VINA RESULT:      -7.8      0.000      0.000
REMARK  Name = 
REMARK  9 active torsions:
REMARK  status: ('A' for Active; 'I' for Inactive)
REMARK    1  A    between atoms: C_1  and  C_2
REMARK    2  A    between atoms: C_2  and  C_3
REMARK    3  A    between atoms: C_3  and  C_4
REMARK    4  A    between atoms: C_4  and  O_5
REMARK    5  A    between atoms: O_5  and  C_6
REMARK    6  A    between atoms: C_10  and  C_11
REMARK    7  A    between atoms: N_13  and  C_14
REMARK    8  A    between atoms: C_17  and  C_18
REMARK    9  A    between atoms: C_18  and  N_19
REMARK                            x       y       z     vdW  Elec       q    Type
REMARK                         _______ _______ _______ _____ _____    ______ ____
ROOT
ATOM      1  C   UNL     1       2.043   7.265  19.990  0.00  0.00    +0.000 C 
ATOM      2  O   UNL     1       2.182   7.985  19.006  0.00  0.00    +0.000 OA
ATOM      3  N   UNL     1       1.436   7.608  21.186  0.00  0.00    +0.000 N 
ATOM      4  H   UNL     1       1.560   6.989  21.974  0.00  0.00    +0.000 HD
ENDROOT
BRANCH   1   9
ATOM      5  C   UNL     1       4.431   4.387  19.397  0.00  0.00    +0.000 A 
ATOM      6  C   UNL     1       3.666   3.328  19.898  0.00  0.00    +0.000 A 
ATOM      7  C   UNL     1       2.393   3.552  20.422  0.00  0.00    +0.000 A 
ATOM      8  C   UNL     1       1.876   4.843  20.434  0.00  0.00    +0.000 A 
ATOM      9  C   UNL     1       2.630   5.903  19.918  0.00  0.00    +0.000 A 
ATOM     10  C   UNL     1       3.914   5.683  19.417  0.00  0.00    +0.000 A 
BRANCH   5  11
ATOM     11  O   UNL     1       5.665   4.029  18.927  0.00  0.00    +0.000 OA
BRANCH  11  12
ATOM     12  C   UNL     1       5.946   4.362  17.568  0.00  0.00    +0.000 C 
BRANCH  12  13
ATOM     13  C   UNL     1       7.377   4.875  17.482  0.00  0.00    +0.000 C 
BRANCH  13  15
ATOM     14  C   UNL     1       7.683   7.357  17.754  0.00  0.00    +0.000 C 
ATOM     15  C   UNL     1       7.605   6.018  18.467  0.00  0.00    +0.000 C 
ENDBRANCH  13  15
ENDBRANCH  12  13
ENDBRANCH  11  12
ENDBRANCH   5  11
ENDBRANCH   1   9
BRANCH   3  16
ATOM     16  C   UNL     1       0.765   8.827  21.441  0.00  0.00    +0.000 A 
ATOM     17  C   UNL     1       0.631   9.827  20.478  0.00  0.00    +0.000 A 
ATOM     18  C   UNL     1      -0.065  11.000  20.759  0.00  0.00    +0.000 A 
ATOM     19  C   UNL     1      -0.653  11.196  22.010  0.00  0.00    +0.000 A 
ATOM     20  C   UNL     1      -0.499  10.207  22.992  0.00  0.00    +0.000 A 
ATOM     21  C   UNL     1       0.195   9.023  22.704  0.00  0.00    +0.000 A 
BRANCH  19  22
ATOM     22  C   UNL     1      -1.452  12.454  22.264  0.00  0.00    +0.000 C 
BRANCH  22  23
ATOM     23  N   UNL     1      -2.876  12.193  22.585  0.00  0.00    +0.000 NA
ATOM     24  C   UNL     1      -3.179  12.586  23.970  0.00  0.00    +0.000 C 
ATOM     25  C   UNL     1      -4.670  12.563  24.311  0.00  0.00    +0.000 C 
ATOM     26  C   UNL     1      -5.470  13.381  23.312  0.00  0.00    +0.000 C 
ATOM     27  C   UNL     1      -5.215  12.842  21.913  0.00  0.00    +0.000 C 
ATOM     28  C   UNL     1      -3.723  12.857  21.582  0.00  0.00    +0.000 C 
ENDBRANCH  22  23
ENDBRANCH  19  22
ENDBRANCH   3  16
TORSDOF 8
ENDMDL
MODEL 2
REMARK VINA RESULT:      -7.7      1.712      2.950
REMARK  Name = 
REMARK  9 active torsions:
REMARK  status: ('A' for Active; 'I' for Inactive)
REMARK    1  A    between atoms: C_1  and  C_2
REMARK    2  A    between atoms: C_2  and  C_3
REMARK    3  A    between atoms: C_3  and  C_4
REMARK    4  A    between atoms: C_4  and  O_5
REMARK    5  A    between atoms: O_5  and  C_6
REMARK    6  A    between atoms: C_10  and  C_11
REMARK    7  A    between atoms: N_13  and  C_14
REMARK    8  A    between atoms: C_17  and  C_18
REMARK    9  A    between atoms: C_18  and  N_19
REMARK                            x       y       z     vdW  Elec       q    Type
REMARK                         _______ _______ _______ _____ _____    ______ ____
ROOT
ATOM      1  C   UNL     1       1.442   8.765  19.497  0.00  0.00    +0.000 C 
ATOM      2  O   UNL     1       0.788   9.336  18.630  0.00  0.00    +0.000 OA
ATOM      3  N   UNL     1       1.445   9.049  20.851  0.00  0.00    +0.000 N 
ATOM      4  H   UNL     1       2.170   8.634  21.420  0.00  0.00    +0.000 HD
ENDROOT
BRANCH   1   9
ATOM      5  C   UNL     1       3.366   5.510  19.273  0.00  0.00    +0.000 A 
ATOM      6  C   UNL     1       4.070   5.724  18.082  0.00  0.00    +0.000 A 
ATOM      7  C   UNL     1       3.915   6.910  17.366  0.00  0.00    +0.000 A 
ATOM      8  C   UNL     1       3.061   7.896  17.849  0.00  0.00    +0.000 A 
ATOM      9  C   UNL     1       2.368   7.694  19.048  0.00  0.00    +0.000 A 
ATOM     10  C   UNL     1       2.502   6.497  19.752  0.00  0.00    +0.000 A 
BRANCH   5  11
ATOM     11  O   UNL     1       3.600   4.299  19.866  0.00  0.00    +0.000 OA
BRANCH  11  12
ATOM     12  C   UNL     1       4.272   3.324  19.070  0.00  0.00    +0.000 C 
BRANCH  12  13
ATOM     13  C   UNL     1       3.401   2.076  19.000  0.00  0.00    +0.000 C 
BRANCH  13  15
ATOM     14  C   UNL     1       0.923   2.418  18.747  0.00  0.00    +0.000 C 
ATOM     15  C   UNL     1       2.249   2.271  18.020  0.00  0.00    +0.000 C 
ENDBRANCH  13  15
ENDBRANCH  12  13
ENDBRANCH  11  12
ENDBRANCH   5  11
ENDBRANCH   1   9
BRANCH   3  16
ATOM     16  C   UNL     1       0.600   9.985  21.491  0.00  0.00    +0.000 A 
ATOM     17  C   UNL     1       0.548  11.328  21.119  0.00  0.00    +0.000 A 
ATOM     18  C   UNL     1      -0.322  12.212  21.753  0.00  0.00    +0.000 A 
ATOM     19  C   UNL     1      -1.168  11.769  22.771  0.00  0.00    +0.000 A 
ATOM     20  C   UNL     1      -1.102  10.427  23.169  0.00  0.00    +0.000 A 
ATOM     21  C   UNL     1      -0.231   9.537  22.523  0.00  0.00    +0.000 A 
BRANCH  19  22
ATOM     22  C   UNL     1      -2.142  12.740  23.398  0.00  0.00    +0.000 C 
BRANCH  22  23
ATOM     23  N   UNL     1      -3.556  12.305  23.294  0.00  0.00    +0.000 NA
ATOM     24  C   UNL     1      -4.280  12.581  24.546  0.00  0.00    +0.000 C 
ATOM     25  C   UNL     1      -5.793  12.374  24.447  0.00  0.00    +0.000 C 
ATOM     26  C   UNL     1      -6.375  13.157  23.283  0.00  0.00    +0.000 C 
ATOM     27  C   UNL     1      -5.676  12.733  22.002  0.00  0.00    +0.000 C 
ATOM     28  C   UNL     1      -4.164  12.931  22.109  0.00  0.00    +0.000 C 
ENDBRANCH  22  23
ENDBRANCH  19  22
ENDBRANCH   3  16
TORSDOF 8
ENDMDL
MODEL 3
REMARK VINA RESULT:      -7.7      0.823      1.070
REMARK  Name = 
REMARK  9 active torsions:
REMARK  status: ('A' for Active; 'I' for Inactive)
REMARK    1  A    between atoms: C_1  and  C_2
REMARK    2  A    between atoms: C_2  and  C_3
REMARK    3  A    between atoms: C_3  and  C_4
REMARK    4  A    between atoms: C_4  and  O_5
REMARK    5  A    between atoms: O_5  and  C_6
REMARK    6  A    between atoms: C_10  and  C_11
REMARK    7  A    between atoms: N_13  and  C_14
REMARK    8  A    between atoms: C_17  and  C_18
REMARK    9  A    between atoms: C_18  and  N_19
REMARK                            x       y       z     vdW  Elec       q    Type
REMARK                         _______ _______ _______ _____ _____    ______ ____
ROOT
ATOM      1  C   UNL     1       1.972   7.234  20.050  0.00  0.00    +0.000 C 
ATOM      2  O   UNL     1       2.270   7.997  19.136  0.00  0.00    +0.000 OA
ATOM      3  N   UNL     1       1.219   7.542  21.170  0.00  0.00    +0.000 N 
ATOM      4  H   UNL     1       1.213   6.879  21.932  0.00  0.00    +0.000 HD
ENDROOT
BRANCH   1   9
ATOM      5  C   UNL     1       4.262   4.278  19.448  0.00  0.00    +0.000 A 
ATOM      6  C   UNL     1       3.473   3.248  19.973  0.00  0.00    +0.000 A 
ATOM      7  C   UNL     1       2.217   3.517  20.515  0.00  0.00    +0.000 A 
ATOM      8  C   UNL     1       1.740   4.823  20.522  0.00  0.00    +0.000 A 
ATOM      9  C   UNL     1       2.517   5.854  19.983  0.00  0.00    +0.000 A 
ATOM     10  C   UNL     1       3.784   5.590  19.463  0.00  0.00    +0.000 A 
BRANCH   5  11
ATOM     11  O   UNL     1       5.476   3.878  18.961  0.00  0.00    +0.000 OA
BRANCH  11  12
ATOM     12  C   UNL     1       6.010   4.646  17.883  0.00  0.00    +0.000 C 
BRANCH  12  13
ATOM     13  C   UNL     1       5.508   4.053  16.573  0.00  0.00    +0.000 C 
BRANCH  13  15
ATOM     14  C   UNL     1       5.116   6.475  16.020  0.00  0.00    +0.000 C 
ATOM     15  C   UNL     1       5.487   5.107  15.472  0.00  0.00    +0.000 C 
ENDBRANCH  13  15
ENDBRANCH  12  13
ENDBRANCH  11  12
ENDBRANCH   5  11
ENDBRANCH   1   9
BRANCH   3  16
ATOM     16  C   UNL     1       0.563   8.773  21.399  0.00  0.00    +0.000 A 
ATOM     17  C   UNL     1       0.179   9.625  20.364  0.00  0.00    +0.000 A 
ATOM     18  C   UNL     1      -0.495  10.814  20.629  0.00  0.00    +0.000 A 
ATOM     19  C   UNL     1      -0.810  11.175  21.941  0.00  0.00    +0.000 A 
ATOM     20  C   UNL     1      -0.404  10.338  22.989  0.00  0.00    +0.000 A 
ATOM     21  C   UNL     1       0.267   9.136  22.718  0.00  0.00    +0.000 A 
BRANCH  19  22
ATOM     22  C   UNL     1      -1.594  12.443  22.191  0.00  0.00    +0.000 C 
BRANCH  22  23
ATOM     23  N   UNL     1      -3.007  12.197  22.568  0.00  0.00    +0.000 NA
ATOM     24  C   UNL     1      -3.259  12.621  23.954  0.00  0.00    +0.000 C 
ATOM     25  C   UNL     1      -4.737  12.613  24.347  0.00  0.00    +0.000 C 
ATOM     26  C   UNL     1      -5.568  13.416  23.360  0.00  0.00    +0.000 C 
ATOM     27  C   UNL     1      -5.366  12.846  21.965  0.00  0.00    +0.000 C 
ATOM     28  C   UNL     1      -3.886  12.844  21.581  0.00  0.00    +0.000 C 
ENDBRANCH  22  23
ENDBRANCH  19  22
ENDBRANCH   3  16
TORSDOF 8
ENDMDL
MODEL 4
REMARK VINA RESULT:      -7.6      2.003      3.469
REMARK  Name = 
REMARK  9 active torsions:
REMARK  status: ('A' for Active; 'I' for Inactive)
REMARK    1  A    between atoms: C_1  and  C_2
REMARK    2  A    between atoms: C_2  and  C_3
REMARK    3  A    between atoms: C_3  and  C_4
REMARK    4  A    between atoms: C_4  and  O_5
REMARK    5  A    between atoms: O_5  and  C_6
REMARK    6  A    between atoms: C_10  and  C_11
REMARK    7  A    between atoms: N_13  and  C_14
REMARK    8  A    between atoms: C_17  and  C_18
REMARK    9  A    between atoms: C_18  and  N_19
REMARK                            x       y       z     vdW  Elec       q    Type
REMARK                         _______ _______ _______ _____ _____    ______ ____
ROOT
ATOM      1  C   UNL     1       2.446   7.827  18.190  0.00  0.00    +0.000 C 
ATOM      2  O   UNL     1       2.838   8.689  17.409  0.00  0.00    +0.000 OA
ATOM      3  N   UNL     1       1.625   8.018  19.287  0.00  0.00    +0.000 N 
ATOM      4  H   UNL     1       1.538   7.261  19.951  0.00  0.00    +0.000 HD
ENDROOT
BRANCH   1   9
ATOM      5  C   UNL     1       2.588   4.078  17.669  0.00  0.00    +0.000 A 
ATOM      6  C   UNL     1       3.966   3.909  17.489  0.00  0.00    +0.000 A 
ATOM      7  C   UNL     1       4.831   5.001  17.535  0.00  0.00    +0.000 A 
ATOM      8  C   UNL     1       4.317   6.272  17.776  0.00  0.00    +0.000 A 
ATOM      9  C   UNL     1       2.943   6.444  17.974  0.00  0.00    +0.000 A 
ATOM     10  C   UNL     1       2.074   5.355  17.902  0.00  0.00    +0.000 A 
BRANCH   5  11
ATOM     11  O   UNL     1       1.855   2.926  17.585  0.00  0.00    +0.000 OA
BRANCH  11  12
ATOM     12  C   UNL     1       0.959   2.666  18.666  0.00  0.00    +0.000 C 
BRANCH  12  13
ATOM     13  C   UNL     1       1.776   2.222  19.873  0.00  0.00    +0.000 C 
BRANCH  13  15
ATOM     14  C   UNL     1       2.179   4.215  21.354  0.00  0.00    +0.000 C 
ATOM     15  C   UNL     1       1.339   2.969  21.129  0.00  0.00    +0.000 C 
ENDBRANCH  13  15
ENDBRANCH  12  13
ENDBRANCH  11  12
ENDBRANCH   5  11
ENDBRANCH   1   9
BRANCH   3  16
ATOM     16  C   UNL     1       0.999   9.237  19.636  0.00  0.00    +0.000 A 
ATOM     17  C   UNL     1       0.304  10.016  18.712  0.00  0.00    +0.000 A 
ATOM     18  C   UNL     1      -0.327  11.195  19.102  0.00  0.00    +0.000 A 
ATOM     19  C   UNL     1      -0.284  11.617  20.432  0.00  0.00    +0.000 A 
ATOM     20  C   UNL     1       0.435  10.853  21.361  0.00  0.00    +0.000 A 
ATOM     21  C   UNL     1       1.062   9.663  20.967  0.00  0.00    +0.000 A 
BRANCH  19  22
ATOM     22  C   UNL     1      -1.029  12.870  20.835  0.00  0.00    +0.000 C 
BRANCH  22  23
ATOM     23  N   UNL     1      -1.427  12.885  22.264  0.00  0.00    +0.000 NA
ATOM     24  C   UNL     1      -1.116  14.186  22.879  0.00  0.00    +0.000 C 
ATOM     25  C   UNL     1      -1.698  14.364  24.282  0.00  0.00    +0.000 C 
ATOM     26  C   UNL     1      -3.192  14.086  24.291  0.00  0.00    +0.000 C 
ATOM     27  C   UNL     1      -3.437  12.680  23.768  0.00  0.00    +0.000 C 
ATOM     28  C   UNL     1      -2.843  12.503  22.370  0.00  0.00    +0.000 C 
ENDBRANCH  22  23
ENDBRANCH  19  22
ENDBRANCH   3  16
TORSDOF 8
ENDMDL
MODEL 5
REMARK VINA RESULT:      -7.5      3.238      4.862
REMARK  Name = 
REMARK  9 active torsions:
REMARK  status: ('A' for Active; 'I' for Inactive)
REMARK    1  A    between atoms: C_1  and  C_2
REMARK    2  A    between atoms: C_2  and  C_3
REMARK    3  A    between atoms: C_3  and  C_4
REMARK    4  A    between atoms: C_4  and  O_5
REMARK    5  A    between atoms: O_5  and  C_6
REMARK    6  A    between atoms: C_10  and  C_11
REMARK    7  A    between atoms: N_13  and  C_14
REMARK    8  A    between atoms: C_17  and  C_18
REMARK    9  A    between atoms: C_18  and  N_19
REMARK                            x       y       z     vdW  Elec       q    Type
REMARK                         _______ _______ _______ _____ _____    ______ ____
ROOT
ATOM      1  C   UNL     1       3.496   5.998  17.920  0.00  0.00    +0.000 C 
ATOM      2  O   UNL     1       2.544   5.237  18.071  0.00  0.00    +0.000 OA
ATOM      3  N   UNL     1       3.487   7.373  18.074  0.00  0.00    +0.000 N 
ATOM      4  H   UNL     1       4.283   7.893  17.733  0.00  0.00    +0.000 HD
ENDROOT
BRANCH   1   9
ATOM      5  C   UNL     1       6.156   4.306  15.822  0.00  0.00    +0.000 A 
ATOM      6  C   UNL     1       7.238   4.362  16.708  0.00  0.00    +0.000 A 
ATOM      7  C   UNL     1       7.099   4.944  17.967  0.00  0.00    +0.000 A 
ATOM      8  C   UNL     1       5.866   5.464  18.349  0.00  0.00    +0.000 A 
ATOM      9  C   UNL     1       4.777   5.395  17.474  0.00  0.00    +0.000 A 
ATOM     10  C   UNL     1       4.922   4.835  16.203  0.00  0.00    +0.000 A 
BRANCH   5  11
ATOM     11  O   UNL     1       6.434   3.722  14.616  0.00  0.00    +0.000 OA
BRANCH  11  12
ATOM     12  C   UNL     1       6.875   4.595  13.576  0.00  0.00    +0.000 C 
BRANCH  12  13
ATOM     13  C   UNL     1       6.565   3.942  12.235  0.00  0.00    +0.000 C 
BRANCH  13  15
ATOM     14  C   UNL     1       4.316   3.298  11.310  0.00  0.00    +0.000 C 
ATOM     15  C   UNL     1       5.377   2.994  12.354  0.00  0.00    +0.000 C 
ENDBRANCH  13  15
ENDBRANCH  12  13
ENDBRANCH  11  12
ENDBRANCH   5  11
ENDBRANCH   1   9
BRANCH   3  16
ATOM     16  C   UNL     1       2.393   8.134  18.547  0.00  0.00    +0.000 A 
ATOM     17  C   UNL     1       1.938   8.059  19.863  0.00  0.00    +0.000 A 
ATOM     18  C   UNL     1       0.877   8.850  20.298  0.00  0.00    +0.000 A 
ATOM     19  C   UNL     1       0.252   9.744  19.426  0.00  0.00    +0.000 A 
ATOM     20  C   UNL     1       0.686   9.805  18.095  0.00  0.00    +0.000 A 
ATOM     21  C   UNL     1       1.760   9.014  17.662  0.00  0.00    +0.000 A 
BRANCH  19  22
ATOM     22  C   UNL     1      -0.857  10.631  19.946  0.00  0.00    +0.000 C 
BRANCH  22  23
ATOM     23  N   UNL     1      -0.465  12.056  20.065  0.00  0.00    +0.000 NA
ATOM     24  C   UNL     1       0.916  12.177  20.562  0.00  0.00    +0.000 C 
ATOM     25  C   UNL     1       1.476  13.598  20.498  0.00  0.00    +0.000 C 
ATOM     26  C   UNL     1       1.335  14.178  19.101  0.00  0.00    +0.000 C 
ATOM     27  C   UNL     1      -0.130  14.145  18.697  0.00  0.00    +0.000 C 
ATOM     28  C   UNL     1      -0.690  12.724  18.773  0.00  0.00    +0.000 C 
ENDBRANCH  22  23
ENDBRANCH  19  22
ENDBRANCH   3  16
TORSDOF 8
ENDMDL
MODEL 6
REMARK VINA RESULT:      -7.5      1.855      3.467
REMARK  Name = 
REMARK  9 active torsions:
REMARK  status: ('A' for Active; 'I' for Inactive)
REMARK    1  A    between atoms: C_1  and  C_2
REMARK    2  A    between atoms: C_2  and  C_3
REMARK    3  A    between atoms: C_3  and  C_4
REMARK    4  A    between atoms: C_4  and  O_5
REMARK    5  A    between atoms: O_5  and  C_6
REMARK    6  A    between atoms: C_10  and  C_11
REMARK    7  A    between atoms: N_13  and  C_14
REMARK    8  A    between atoms: C_17  and  C_18
REMARK    9  A    between atoms: C_18  and  N_19
REMARK                            x       y       z     vdW  Elec       q    Type
REMARK                         _______ _______ _______ _____ _____    ______ ____
ROOT
ATOM      1  C   UNL     1       2.420   7.973  18.577  0.00  0.00    +0.000 C 
ATOM      2  O   UNL     1       2.369   9.028  17.953  0.00  0.00    +0.000 OA
ATOM      3  N   UNL     1       1.911   7.736  19.842  0.00  0.00    +0.000 N 
ATOM      4  H   UNL     1       2.190   6.887  20.313  0.00  0.00    +0.000 HD
ENDROOT
BRANCH   1   9
ATOM      5  C   UNL     1       3.399   4.508  17.402  0.00  0.00    +0.000 A 
ATOM      6  C   UNL     1       4.534   4.819  16.646  0.00  0.00    +0.000 A 
ATOM      7  C   UNL     1       4.970   6.137  16.521  0.00  0.00    +0.000 A 
ATOM      8  C   UNL     1       4.272   7.153  17.168  0.00  0.00    +0.000 A 
ATOM      9  C   UNL     1       3.146   6.846  17.940  0.00  0.00    +0.000 A 
ATOM     10  C   UNL     1       2.695   5.529  18.044  0.00  0.00    +0.000 A 
BRANCH   5  11
ATOM     11  O   UNL     1       3.075   3.179  17.429  0.00  0.00    +0.000 OA
BRANCH  11  12
ATOM     12  C   UNL     1       3.164   2.531  18.699  0.00  0.00    +0.000 C 
BRANCH  12  13
ATOM     13  C   UNL     1       1.757   2.160  19.150  0.00  0.00    +0.000 C 
BRANCH  13  15
ATOM     14  C   UNL     1       1.062   4.043  20.665  0.00  0.00    +0.000 C 
ATOM     15  C   UNL     1       1.516   2.595  20.591  0.00  0.00    +0.000 C 
ENDBRANCH  13  15
ENDBRANCH  12  13
ENDBRANCH  11  12
ENDBRANCH   5  11
ENDBRANCH   1   9
BRANCH   3  16
ATOM     16  C   UNL     1       1.139   8.650  20.596  0.00  0.00    +0.000 A 
ATOM     17  C   UNL     1       0.311   9.603  20.002  0.00  0.00    +0.000 A 
ATOM     18  C   UNL     1      -0.459  10.464  20.780  0.00  0.00    +0.000 A 
ATOM     19  C   UNL     1      -0.425  10.386  22.173  0.00  0.00    +0.000 A 
ATOM     20  C   UNL     1       0.424   9.449  22.777  0.00  0.00    +0.000 A 
ATOM     21  C   UNL     1       1.192   8.577  21.992  0.00  0.00    +0.000 A 
BRANCH  19  22
ATOM     22  C   UNL     1      -1.318  11.295  22.988  0.00  0.00    +0.000 C 
BRANCH  22  23
ATOM     23  N   UNL     1      -1.727  12.522  22.262  0.00  0.00    +0.000 NA
ATOM     24  C   UNL     1      -3.192  12.668  22.269  0.00  0.00    +0.000 C 
ATOM     25  C   UNL     1      -3.684  14.017  21.743  0.00  0.00    +0.000 C 
ATOM     26  C   UNL     1      -3.006  15.166  22.470  0.00  0.00    +0.000 C 
ATOM     27  C   UNL     1      -1.499  15.030  22.314  0.00  0.00    +0.000 C 
ATOM     28  C   UNL     1      -1.014  13.675  22.831  0.00  0.00    +0.000 C 
ENDBRANCH  22  23
ENDBRANCH  19  22
ENDBRANCH   3  16
TORSDOF 8
ENDMDL
MODEL 7
REMARK VINA RESULT:      -7.5      1.734      3.365
REMARK  Name = 
REMARK  9 active torsions:
REMARK  status: ('A' for Active; 'I' for Inactive)
REMARK    1  A    between atoms: C_1  and  C_2
REMARK    2  A    between atoms: C_2  and  C_3
REMARK    3  A    between atoms: C_3  and  C_4
REMARK    4  A    between atoms: C_4  and  O_5
REMARK    5  A    between atoms: O_5  and  C_6
REMARK    6  A    between atoms: C_10  and  C_11
REMARK    7  A    between atoms: N_13  and  C_14
REMARK    8  A    between atoms: C_17  and  C_18
REMARK    9  A    between atoms: C_18  and  N_19
REMARK                            x       y       z     vdW  Elec       q    Type
REMARK                         _______ _______ _______ _____ _____    ______ ____
ROOT
ATOM      1  C   UNL     1       2.269   8.080  18.290  0.00  0.00    +0.000 C 
ATOM      2  O   UNL     1       2.199   8.970  17.449  0.00  0.00    +0.000 OA
ATOM      3  N   UNL     1       1.795   8.132  19.589  0.00  0.00    +0.000 N 
ATOM      4  H   UNL     1       2.088   7.408  20.230  0.00  0.00    +0.000 HD
ENDROOT
BRANCH   1   9
ATOM      5  C   UNL     1       3.088   4.445  17.610  0.00  0.00    +0.000 A 
ATOM      6  C   UNL     1       4.372   4.581  17.071  0.00  0.00    +0.000 A 
ATOM      7  C   UNL     1       4.958   5.839  16.931  0.00  0.00    +0.000 A 
ATOM      8  C   UNL     1       4.259   6.969  17.345  0.00  0.00    +0.000 A 
ATOM      9  C   UNL     1       2.982   6.837  17.900  0.00  0.00    +0.000 A 
ATOM     10  C   UNL     1       2.385   5.581  18.017  0.00  0.00    +0.000 A 
BRANCH   5  11
ATOM     11  O   UNL     1       2.629   3.158  17.678  0.00  0.00    +0.000 OA
BRANCH  11  12
ATOM     12  C   UNL     1       1.344   2.974  18.272  0.00  0.00    +0.000 C 
BRANCH  12  13
ATOM     13  C   UNL     1       1.530   2.316  19.632  0.00  0.00    +0.000 C 
BRANCH  13  15
ATOM     14  C   UNL     1       2.234   3.589  21.684  0.00  0.00    +0.000 C 
ATOM     15  C   UNL     1       1.083   3.248  20.753  0.00  0.00    +0.000 C 
ENDBRANCH  13  15
ENDBRANCH  12  13
ENDBRANCH  11  12
ENDBRANCH   5  11
ENDBRANCH   1   9
BRANCH   3  16
ATOM     16  C   UNL     1       1.039   9.192  20.141  0.00  0.00    +0.000 A 
ATOM     17  C   UNL     1       0.422   9.105  21.388  0.00  0.00    +0.000 A 
ATOM     18  C   UNL     1      -0.287  10.185  21.911  0.00  0.00    +0.000 A 
ATOM     19  C   UNL     1      -0.386  11.382  21.200  0.00  0.00    +0.000 A 
ATOM     20  C   UNL     1       0.209  11.467  19.934  0.00  0.00    +0.000 A 
ATOM     21  C   UNL     1       0.929  10.382  19.413  0.00  0.00    +0.000 A 
BRANCH  19  22
ATOM     22  C   UNL     1      -1.112  12.554  21.821  0.00  0.00    +0.000 C 
BRANCH  22  23
ATOM     23  N   UNL     1      -2.489  12.227  22.262  0.00  0.00    +0.000 NA
ATOM     24  C   UNL     1      -2.706  12.649  23.655  0.00  0.00    +0.000 C 
ATOM     25  C   UNL     1      -4.162  12.556  24.113  0.00  0.00    +0.000 C 
ATOM     26  C   UNL     1      -5.082  13.297  23.158  0.00  0.00    +0.000 C 
ATOM     27  C   UNL     1      -4.907  12.727  21.759  0.00  0.00    +0.000 C 
ATOM     28  C   UNL     1      -3.448  12.811  21.310  0.00  0.00    +0.000 C 
ENDBRANCH  22  23
ENDBRANCH  19  22
ENDBRANCH   3  16
TORSDOF 8
ENDMDL
MODEL 8
REMARK VINA RESULT:      -7.5      1.618      2.058
REMARK  Name = 
REMARK  9 active torsions:
REMARK  status: ('A' for Active; 'I' for Inactive)
REMARK    1  A    between atoms: C_1  and  C_2
REMARK    2  A    between atoms: C_2  and  C_3
REMARK    3  A    between atoms: C_3  and  C_4
REMARK    4  A    between atoms: C_4  and  O_5
REMARK    5  A    between atoms: O_5  and  C_6
REMARK    6  A    between atoms: C_10  and  C_11
REMARK    7  A    between atoms: N_13  and  C_14
REMARK    8  A    between atoms: C_17  and  C_18
REMARK    9  A    between atoms: C_18  and  N_19
REMARK                            x       y       z     vdW  Elec       q    Type
REMARK                         _______ _______ _______ _____ _____    ______ ____
ROOT
ATOM      1  C   UNL     1       1.951   8.771  18.422  0.00  0.00    +0.000 C 
ATOM      2  O   UNL     1       2.016   9.560  17.484  0.00  0.00    +0.000 OA
ATOM      3  N   UNL     1       1.222   8.932  19.587  0.00  0.00    +0.000 N 
ATOM      4  H   UNL     1       1.409   8.301  20.354  0.00  0.00    +0.000 HD
ENDROOT
BRANCH   1   9
ATOM      5  C   UNL     1       4.500   6.208  17.293  0.00  0.00    +0.000 A 
ATOM      6  C   UNL     1       4.329   5.239  18.288  0.00  0.00    +0.000 A 
ATOM      7  C   UNL     1       3.398   5.423  19.311  0.00  0.00    +0.000 A 
ATOM      8  C   UNL     1       2.624   6.578  19.331  0.00  0.00    +0.000 A 
ATOM      9  C   UNL     1       2.778   7.542  18.329  0.00  0.00    +0.000 A 
ATOM     10  C   UNL     1       3.727   7.371  17.320  0.00  0.00    +0.000 A 
BRANCH   5  11
ATOM     11  O   UNL     1       5.455   5.907  16.360  0.00  0.00    +0.000 OA
BRANCH  11  12
ATOM     12  C   UNL     1       6.781   5.716  16.851  0.00  0.00    +0.000 C 
BRANCH  12  13
ATOM     13  C   UNL     1       7.369   7.078  17.197  0.00  0.00    +0.000 C 
BRANCH  13  15
ATOM     14  C   UNL     1       7.792   5.737  19.283  0.00  0.00    +0.000 C 
ATOM     15  C   UNL     1       8.072   7.038  18.550  0.00  0.00    +0.000 C 
ENDBRANCH  13  15
ENDBRANCH  12  13
ENDBRANCH  11  12
ENDBRANCH   5  11
ENDBRANCH   1   9
BRANCH   3  16
ATOM     16  C   UNL     1       0.328   9.996  19.851  0.00  0.00    +0.000 A 
ATOM     17  C   UNL     1      -0.757  10.288  19.025  0.00  0.00    +0.000 A 
ATOM     18  C   UNL     1      -1.633  11.324  19.337  0.00  0.00    +0.000 A 
ATOM     19  C   UNL     1      -1.450  12.088  20.491  0.00  0.00    +0.000 A 
ATOM     20  C   UNL     1      -0.347  11.818  21.312  0.00  0.00    +0.000 A 
ATOM     21  C   UNL     1       0.530  10.768  21.000  0.00  0.00    +0.000 A 
BRANCH  19  22
ATOM     22  C   UNL     1      -2.453  13.167  20.832  0.00  0.00    +0.000 C 
BRANCH  22  23
ATOM     23  N   UNL     1      -3.599  12.673  21.632  0.00  0.00    +0.000 NA
ATOM     24  C   UNL     1      -3.584  13.260  22.982  0.00  0.00    +0.000 C 
ATOM     25  C   UNL     1      -4.851  12.982  23.794  0.00  0.00    +0.000 C 
ATOM     26  C   UNL     1      -6.093  13.393  23.022  0.00  0.00    +0.000 C 
ATOM     27  C   UNL     1      -6.118  12.654  21.694  0.00  0.00    +0.000 C 
ATOM     28  C   UNL     1      -4.845  12.924  20.891  0.00  0.00    +0.000 C 
ENDBRANCH  22  23
ENDBRANCH  19  22
ENDBRANCH   3  16
TORSDOF 8
ENDMDL
MODEL 9
REMARK VINA RESULT:      -7.4      2.348      4.093
REMARK  Name = 
REMARK  9 active torsions:
REMARK  status: ('A' for Active; 'I' for Inactive)
REMARK    1  A    between atoms: C_1  and  C_2
REMARK    2  A    between atoms: C_2  and  C_3
REMARK    3  A    between atoms: C_3  and  C_4
REMARK    4  A    between atoms: C_4  and  O_5
REMARK    5  A    between atoms: O_5  and  C_6
REMARK    6  A    between atoms: C_10  and  C_11
REMARK    7  A    between atoms: N_13  and  C_14
REMARK    8  A    between atoms: C_17  and  C_18
REMARK    9  A    between atoms: C_18  and  N_19
REMARK                            x       y       z     vdW  Elec       q    Type
REMARK                         _______ _______ _______ _____ _____    ______ ____
ROOT
ATOM      1  C   UNL     1       2.260   7.875  18.646  0.00  0.00    +0.000 C 
ATOM      2  O   UNL     1       2.034   7.841  19.851  0.00  0.00    +0.000 OA
ATOM      3  N   UNL     1       1.847   8.851  17.755  0.00  0.00    +0.000 N 
ATOM      4  H   UNL     1       1.936   8.658  16.768  0.00  0.00    +0.000 HD
ENDROOT
BRANCH   1   9
ATOM      5  C   UNL     1       3.230   4.387  17.535  0.00  0.00    +0.000 A 
ATOM      6  C   UNL     1       4.438   4.665  16.884  0.00  0.00    +0.000 A 
ATOM      7  C   UNL     1       4.923   5.970  16.808  0.00  0.00    +0.000 A 
ATOM      8  C   UNL     1       4.203   7.004  17.399  0.00  0.00    +0.000 A 
ATOM      9  C   UNL     1       3.004   6.729  18.066  0.00  0.00    +0.000 A 
ATOM     10  C   UNL     1       2.505   5.427  18.120  0.00  0.00    +0.000 A 
BRANCH   5  11
ATOM     11  O   UNL     1       2.864   3.069  17.522  0.00  0.00    +0.000 OA
BRANCH  11  12
ATOM     12  C   UNL     1       2.934   2.381  18.771  0.00  0.00    +0.000 C 
BRANCH  12  13
ATOM     13  C   UNL     1       1.517   2.035  19.211  0.00  0.00    +0.000 C 
BRANCH  13  15
ATOM     14  C   UNL     1       1.665   2.737  21.622  0.00  0.00    +0.000 C 
ATOM     15  C   UNL     1       1.024   3.013  20.272  0.00  0.00    +0.000 C 
ENDBRANCH  13  15
ENDBRANCH  12  13
ENDBRANCH  11  12
ENDBRANCH   5  11
ENDBRANCH   1   9
BRANCH   3  16
ATOM     16  C   UNL     1       1.182  10.048  18.106  0.00  0.00    +0.000 A 
ATOM     17  C   UNL     1      -0.204  10.125  18.243  0.00  0.00    +0.000 A 
ATOM     18  C   UNL     1      -0.819  11.316  18.622  0.00  0.00    +0.000 A 
ATOM     19  C   UNL     1      -0.058  12.458  18.883  0.00  0.00    +0.000 A 
ATOM     20  C   UNL     1       1.332  12.395  18.721  0.00  0.00    +0.000 A 
ATOM     21  C   UNL     1       1.950  11.193  18.348  0.00  0.00    +0.000 A 
BRANCH  19  22
ATOM     22  C   UNL     1      -0.752  13.718  19.350  0.00  0.00    +0.000 C 
BRANCH  22  23
ATOM     23  N   UNL     1      -1.258  13.630  20.741  0.00  0.00    +0.000 NA
ATOM     24  C   UNL     1      -2.678  13.244  20.756  0.00  0.00    +0.000 C 
ATOM     25  C   UNL     1      -3.216  12.911  22.149  0.00  0.00    +0.000 C 
ATOM     26  C   UNL     1      -2.348  11.868  22.833  0.00  0.00    +0.000 C 
ATOM     27  C   UNL     1      -0.919  12.382  22.903  0.00  0.00    +0.000 C 
ATOM     28  C   UNL     1      -0.390  12.725  21.510  0.00  0.00    +0.000 C 
ENDBRANCH  22  23
ENDBRANCH  19  22
ENDBRANCH   3  16
TORSDOF 8
ENDMDL
