MODEL 1
REMARK VINA RESULT:      -7.7      0.000      0.000
REMARK  Name = 
REMARK  10 active torsions:
REMARK  status: ('A' for Active; 'I' for Inactive)
REMARK    1  A    between atoms: C_1  and  C_2
REMARK    2  A    between atoms: C_2  and  C_3
REMARK    3  A    between atoms: C_2  and  C_4
REMARK    4  A    between atoms: C_4  and  C_5
REMARK    5  A    between atoms: C_5  and  N_6
REMARK    6  A    between atoms: C_7  and  C_9
REMARK    7  A    between atoms: C_9  and  C_10
REMARK    8  A    between atoms: N_12  and  S_13
REMARK    9  A    between atoms: S_13  and  C_16
REMARK   10  A    between atoms: N_25  and  C_26
REMARK                            x       y       z     vdW  Elec       q    Type
REMARK                         _______ _______ _______ _____ _____    ______ ____
ROOT
ATOM      1  C   UNL     1       5.524   4.653  16.646  0.00  0.00    +0.000 C 
ATOM      2  C   UNL     1       5.897   3.152  16.695  0.00  0.00    +0.000 C 
ATOM      3  C   UNL     1       3.986   4.804  16.871  0.00  0.00    +0.000 C 
ATOM      4  N   UNL     1       3.574   4.235  18.193  0.00  0.00    +0.000 NA
ATOM      5  C   UNL     1       4.369   4.814  19.312  0.00  0.00    +0.000 C 
ATOM      6  C   UNL     1       5.836   5.095  19.081  0.00  0.00    +0.000 C 
ATOM      7  O   UNL     1       6.586   5.244  20.050  0.00  0.00    +0.000 OA
ATOM      8  N   UNL     1       6.227   5.364  17.764  0.00  0.00    +0.000 N 
ENDROOT
BRANCH   8   9
ATOM      9  C   UNL     1       7.366   6.273  17.544  0.00  0.00    +0.000 C 
ATOM     10  C   UNL     1       6.886   7.669  17.109  0.00  0.00    +0.000 C 
ATOM     11  C   UNL     1       7.896   8.666  17.644  0.00  0.00    +0.000 C 
ATOM     12  C   UNL     1       8.671   7.968  18.751  0.00  0.00    +0.000 C 
ATOM     13  C   UNL     1       8.247   6.503  18.776  0.00  0.00    +0.000 C 
ENDBRANCH   8   9
BRANCH   1  15
ATOM     14  N   UNL     1       6.722   4.622  14.415  0.00  0.00    +0.000 N 
ATOM     15  C   UNL     1       5.774   5.245  15.209  0.00  0.00    +0.000 C 
ATOM     16  O   UNL     1       5.225   6.285  14.840  0.00  0.00    +0.000 OA
ATOM     17  H   UNL     1       7.116   3.732  14.684  0.00  0.00    +0.000 HD
BRANCH  14  18
ATOM     18  C   UNL     1       7.055   5.090  13.079  0.00  0.00    +0.000 C 
BRANCH  18  19
ATOM     19  C   UNL     1       7.002   3.987  12.021  0.00  0.00    +0.000 C 
BRANCH  19  21
ATOM     20  C   UNL     1       4.509   3.495  11.685  0.00  0.00    +0.000 C 
ATOM     21  C   UNL     1       5.855   2.968  12.184  0.00  0.00    +0.000 C 
ATOM     22  C   UNL     1       6.203   1.678  11.436  0.00  0.00    +0.000 C 
ENDBRANCH  19  21
ENDBRANCH  18  19
ENDBRANCH  14  18
ENDBRANCH   1  15
BRANCH   4  23
ATOM     23  S   UNL     1       1.903   4.348  18.555  0.00  0.00    +0.000 S 
ATOM     24  O   UNL     1       1.167   4.269  17.313  0.00  0.00    +0.000 OA
ATOM     25  O   UNL     1       1.637   3.428  19.644  0.00  0.00    +0.000 OA
BRANCH  23  26
ATOM     26  C   UNL     1       1.745   6.002  19.154  0.00  0.00    +0.000 A 
ATOM     27  C   UNL     1       1.444   6.203  20.505  0.00  0.00    +0.000 A 
ATOM     28  C   UNL     1       1.348   7.503  20.997  0.00  0.00    +0.000 A 
ATOM     29  C   UNL     1       1.562   8.587  20.143  0.00  0.00    +0.000 A 
ATOM     30  C   UNL     1       1.874   8.378  18.799  0.00  0.00    +0.000 A 
ATOM     31  C   UNL     1       1.969   7.081  18.298  0.00  0.00    +0.000 A 
ENDBRANCH  23  26
ENDBRANCH   4  23
TORSDOF 7
ENDMDL
MODEL 2
REMARK VINA RESULT:      -7.5      6.217      8.781
REMARK  Name = 
REMARK  10 active torsions:
REMARK  status: ('A' for Active; 'I' for Inactive)
REMARK    1  A    between atoms: C_1  and  C_2
REMARK    2  A    between atoms: C_2  and  C_3
REMARK    3  A    between atoms: C_2  and  C_4
REMARK    4  A    between atoms: C_4  and  C_5
REMARK    5  A    between atoms: C_5  and  N_6
REMARK    6  A    between atoms: C_7  and  C_9
REMARK    7  A    between atoms: C_9  and  C_10
REMARK    8  A    between atoms: N_12  and  S_13
REMARK    9  A    between atoms: S_13  and  C_16
REMARK   10  A    between atoms: N_25  and  C_26
REMARK                            x       y       z     vdW  Elec       q    Type
REMARK                         _______ _______ _______ _____ _____    ______ ____
ROOT
ATOM      1  C   UNL     1      -0.178  10.759  19.768  0.00  0.00    +0.000 C 
ATOM      2  C   UNL     1      -1.063  11.092  20.993  0.00  0.00    +0.000 C 
ATOM      3  C   UNL     1      -1.071  10.133  18.649  0.00  0.00    +0.000 C 
ATOM      4  N   UNL     1      -2.156  11.076  18.232  0.00  0.00    +0.000 NA
ATOM      5  C   UNL     1      -1.609  12.406  17.843  0.00  0.00    +0.000 C 
ATOM      6  C   UNL     1      -0.442  12.961  18.628  0.00  0.00    +0.000 C 
ATOM      7  O   UNL     1      -0.189  14.167  18.566  0.00  0.00    +0.000 OA
ATOM      8  N   UNL     1       0.410  12.031  19.234  0.00  0.00    +0.000 N 
ENDROOT
BRANCH   8   9
ATOM      9  C   UNL     1       1.832  12.382  19.390  0.00  0.00    +0.000 C 
ATOM     10  C   UNL     1       2.400  12.989  18.094  0.00  0.00    +0.000 C 
ATOM     11  C   UNL     1       3.472  13.979  18.507  0.00  0.00    +0.000 C 
ATOM     12  C   UNL     1       3.231  14.317  19.970  0.00  0.00    +0.000 C 
ATOM     13  C   UNL     1       2.118  13.412  20.488  0.00  0.00    +0.000 C 
ENDBRANCH   8   9
BRANCH   1  15
ATOM     14  N   UNL     1       1.374   8.881  19.076  0.00  0.00    +0.000 N 
ATOM     15  C   UNL     1       0.863   9.632  20.121  0.00  0.00    +0.000 C 
ATOM     16  O   UNL     1       1.137   9.355  21.290  0.00  0.00    +0.000 OA
ATOM     17  H   UNL     1       1.211   9.153  18.117  0.00  0.00    +0.000 HD
BRANCH  14  18
ATOM     18  C   UNL     1       2.325   7.799  19.280  0.00  0.00    +0.000 C 
BRANCH  18  19
ATOM     19  C   UNL     1       2.246   6.714  18.204  0.00  0.00    +0.000 C 
BRANCH  19  21
ATOM     20  C   UNL     1       1.779   5.082  20.124  0.00  0.00    +0.000 C 
ATOM     21  C   UNL     1       2.354   5.264  18.718  0.00  0.00    +0.000 C 
ATOM     22  C   UNL     1       1.634   4.320  17.750  0.00  0.00    +0.000 C 
ENDBRANCH  19  21
ENDBRANCH  18  19
ENDBRANCH  14  18
ENDBRANCH   1  15
BRANCH   4  23
ATOM     23  S   UNL     1      -3.201  10.500  17.002  0.00  0.00    +0.000 S 
ATOM     24  O   UNL     1      -2.839  11.152  15.763  0.00  0.00    +0.000 OA
ATOM     25  O   UNL     1      -3.231   9.054  17.108  0.00  0.00    +0.000 OA
BRANCH  23  26
ATOM     26  C   UNL     1      -4.772  11.142  17.494  0.00  0.00    +0.000 A 
ATOM     27  C   UNL     1      -5.445  10.532  18.557  0.00  0.00    +0.000 A 
ATOM     28  C   UNL     1      -6.670  11.048  18.974  0.00  0.00    +0.000 A 
ATOM     29  C   UNL     1      -7.206  12.169  18.338  0.00  0.00    +0.000 A 
ATOM     30  C   UNL     1      -6.522  12.779  17.285  0.00  0.00    +0.000 A 
ATOM     31  C   UNL     1      -5.297  12.268  16.859  0.00  0.00    +0.000 A 
ENDBRANCH  23  26
ENDBRANCH   4  23
TORSDOF 7
ENDMDL
MODEL 3
REMARK VINA RESULT:      -7.4      6.106      8.479
REMARK  Name = 
REMARK  10 active torsions:
REMARK  status: ('A' for Active; 'I' for Inactive)
REMARK    1  A    between atoms: C_1  and  C_2
REMARK    2  A    between atoms: C_2  and  C_3
REMARK    3  A    between atoms: C_2  and  C_4
REMARK    4  A    between atoms: C_4  and  C_5
REMARK    5  A    between atoms: C_5  and  N_6
REMARK    6  A    between atoms: C_7  and  C_9
REMARK    7  A    between atoms: C_9  and  C_10
REMARK    8  A    between atoms: N_12  and  S_13
REMARK    9  A    between atoms: S_13  and  C_16
REMARK   10  A    between atoms: N_25  and  C_26
REMARK                            x       y       z     vdW  Elec       q    Type
REMARK                         _______ _______ _______ _____ _____    ______ ____
ROOT
ATOM      1  C   UNL     1       0.074  10.417  19.313  0.00  0.00    +0.000 C 
ATOM      2  C   UNL     1      -0.737  10.370  20.630  0.00  0.00    +0.000 C 
ATOM      3  C   UNL     1      -0.852   9.985  18.131  0.00  0.00    +0.000 C 
ATOM      4  N   UNL     1      -2.038  10.891  18.013  0.00  0.00    +0.000 NA
ATOM      5  C   UNL     1      -1.630  12.321  17.921  0.00  0.00    +0.000 C 
ATOM      6  C   UNL     1      -0.453  12.787  18.747  0.00  0.00    +0.000 C 
ATOM      7  O   UNL     1      -0.302  13.993  18.961  0.00  0.00    +0.000 OA
ATOM      8  N   UNL     1       0.515  11.828  19.064  0.00  0.00    +0.000 N 
ENDROOT
BRANCH   8   9
ATOM      9  C   UNL     1       1.913  12.268  19.218  0.00  0.00    +0.000 C 
ATOM     10  C   UNL     1       2.389  13.046  17.978  0.00  0.00    +0.000 C 
ATOM     11  C   UNL     1       3.401  14.066  18.463  0.00  0.00    +0.000 C 
ATOM     12  C   UNL     1       3.187  14.234  19.960  0.00  0.00    +0.000 C 
ATOM     13  C   UNL     1       2.162  13.198  20.410  0.00  0.00    +0.000 C 
ENDBRANCH   8   9
BRANCH   1  15
ATOM     14  N   UNL     1       1.775   8.977  18.110  0.00  0.00    +0.000 N 
ATOM     15  C   UNL     1       1.225   9.343  19.327  0.00  0.00    +0.000 C 
ATOM     16  O   UNL     1       1.557   8.772  20.368  0.00  0.00    +0.000 OA
ATOM     17  H   UNL     1       1.559   9.494  17.269  0.00  0.00    +0.000 HD
BRANCH  14  18
ATOM     18  C   UNL     1       2.828   7.980  17.994  0.00  0.00    +0.000 C 
BRANCH  18  19
ATOM     19  C   UNL     1       2.321   6.545  18.146  0.00  0.00    +0.000 C 
BRANCH  19  21
ATOM     20  C   UNL     1       4.510   5.318  18.670  0.00  0.00    +0.000 C 
ATOM     21  C   UNL     1       3.316   5.444  17.722  0.00  0.00    +0.000 C 
ATOM     22  C   UNL     1       2.590   4.098  17.641  0.00  0.00    +0.000 C 
ENDBRANCH  19  21
ENDBRANCH  18  19
ENDBRANCH  14  18
ENDBRANCH   1  15
BRANCH   4  23
ATOM     23  S   UNL     1      -3.126  10.519  16.743  0.00  0.00    +0.000 S 
ATOM     24  O   UNL     1      -2.791  11.349  15.607  0.00  0.00    +0.000 OA
ATOM     25  O   UNL     1      -3.174   9.074  16.629  0.00  0.00    +0.000 OA
BRANCH  23  26
ATOM     26  C   UNL     1      -4.672  11.094  17.375  0.00  0.00    +0.000 A 
ATOM     27  C   UNL     1      -5.260  12.221  16.792  0.00  0.00    +0.000 A 
ATOM     28  C   UNL     1      -6.494  12.667  17.261  0.00  0.00    +0.000 A 
ATOM     29  C   UNL     1      -7.134  11.982  18.296  0.00  0.00    +0.000 A 
ATOM     30  C   UNL     1      -6.546  10.850  18.865  0.00  0.00    +0.000 A 
ATOM     31  C   UNL     1      -5.310  10.400  18.404  0.00  0.00    +0.000 A 
ENDBRANCH  23  26
ENDBRANCH   4  23
TORSDOF 7
ENDMDL
MODEL 4
REMARK VINA RESULT:      -7.3      6.398      9.048
REMARK  Name = 
REMARK  10 active torsions:
REMARK  status: ('A' for Active; 'I' for Inactive)
REMARK    1  A    between atoms: C_1  and  C_2
REMARK    2  A    between atoms: C_2  and  C_3
REMARK    3  A    between atoms: C_2  and  C_4
REMARK    4  A    between atoms: C_4  and  C_5
REMARK    5  A    between atoms: C_5  and  N_6
REMARK    6  A    between atoms: C_7  and  C_9
REMARK    7  A    between atoms: C_9  and  C_10
REMARK    8  A    between atoms: N_12  and  S_13
REMARK    9  A    between atoms: S_13  and  C_16
REMARK   10  A    between atoms: N_25  and  C_26
REMARK                            x       y       z     vdW  Elec       q    Type
REMARK                         _______ _______ _______ _____ _____    ______ ____
ROOT
ATOM      1  C   UNL     1      -0.219  11.124  20.263  0.00  0.00    +0.000 C 
ATOM      2  C   UNL     1      -1.077  11.609  21.456  0.00  0.00    +0.000 C 
ATOM      3  C   UNL     1      -1.149  10.430  19.217  0.00  0.00    +0.000 C 
ATOM      4  N   UNL     1      -2.201  11.371  18.719  0.00  0.00    +0.000 NA
ATOM      5  C   UNL     1      -1.605  12.634  18.198  0.00  0.00    +0.000 C 
ATOM      6  C   UNL     1      -0.409  13.214  18.917  0.00  0.00    +0.000 C 
ATOM      7  O   UNL     1      -0.108  14.397  18.738  0.00  0.00    +0.000 OA
ATOM      8  N   UNL     1       0.413  12.313  19.604  0.00  0.00    +0.000 N 
ENDROOT
BRANCH   8   9
ATOM      9  C   UNL     1       1.850  12.620  19.716  0.00  0.00    +0.000 C 
ATOM     10  C   UNL     1       2.422  13.094  18.367  0.00  0.00    +0.000 C 
ATOM     11  C   UNL     1       3.537  14.072  18.684  0.00  0.00    +0.000 C 
ATOM     12  C   UNL     1       3.330  14.540  20.116  0.00  0.00    +0.000 C 
ATOM     13  C   UNL     1       2.190  13.724  20.721  0.00  0.00    +0.000 C 
ENDBRANCH   8   9
BRANCH   1  15
ATOM     14  N   UNL     1       0.987   8.936  19.847  0.00  0.00    +0.000 N 
ATOM     15  C   UNL     1       0.780   9.994  20.716  0.00  0.00    +0.000 C 
ATOM     16  O   UNL     1       1.281   9.995  21.842  0.00  0.00    +0.000 OA
ATOM     17  H   UNL     1       0.639   8.970  18.900  0.00  0.00    +0.000 HD
BRANCH  14  18
ATOM     18  C   UNL     1       1.869   7.824  20.164  0.00  0.00    +0.000 C 
BRANCH  18  19
ATOM     19  C   UNL     1       2.586   7.252  18.939  0.00  0.00    +0.000 C 
BRANCH  19  21
ATOM     20  C   UNL     1       2.091   4.789  18.432  0.00  0.00    +0.000 C 
ATOM     21  C   UNL     1       3.056   5.789  19.071  0.00  0.00    +0.000 C 
ATOM     22  C   UNL     1       4.440   5.634  18.434  0.00  0.00    +0.000 C 
ENDBRANCH  19  21
ENDBRANCH  18  19
ENDBRANCH  14  18
ENDBRANCH   1  15
BRANCH   4  23
ATOM     23  S   UNL     1      -3.281  10.722  17.558  0.00  0.00    +0.000 S 
ATOM     24  O   UNL     1      -2.859  11.174  16.250  0.00  0.00    +0.000 OA
ATOM     25  O   UNL     1      -3.429   9.310  17.852  0.00  0.00    +0.000 OA
BRANCH  23  26
ATOM     26  C   UNL     1      -4.797  11.547  17.934  0.00  0.00    +0.000 A 
ATOM     27  C   UNL     1      -5.473  12.214  16.907  0.00  0.00    +0.000 A 
ATOM     28  C   UNL     1      -6.686  12.842  17.184  0.00  0.00    +0.000 A 
ATOM     29  C   UNL     1      -7.217  12.792  18.474  0.00  0.00    +0.000 A 
ATOM     30  C   UNL     1      -6.542  12.114  19.491  0.00  0.00    +0.000 A 
ATOM     31  C   UNL     1      -5.327  11.486  19.223  0.00  0.00    +0.000 A 
ENDBRANCH  23  26
ENDBRANCH   4  23
TORSDOF 7
ENDMDL
MODEL 5
REMARK VINA RESULT:      -7.2      6.973     11.347
REMARK  Name = 
REMARK  10 active torsions:
REMARK  status: ('A' for Active; 'I' for Inactive)
REMARK    1  A    between atoms: C_1  and  C_2
REMARK    2  A    between atoms: C_2  and  C_3
REMARK    3  A    between atoms: C_2  and  C_4
REMARK    4  A    between atoms: C_4  and  C_5
REMARK    5  A    between atoms: C_5  and  N_6
REMARK    6  A    between atoms: C_7  and  C_9
REMARK    7  A    between atoms: C_9  and  C_10
REMARK    8  A    between atoms: N_12  and  S_13
REMARK    9  A    between atoms: S_13  and  C_16
REMARK   10  A    between atoms: N_25  and  C_26
REMARK                            x       y       z     vdW  Elec       q    Type
REMARK                         _______ _______ _______ _____ _____    ______ ____
ROOT
ATOM      1  C   UNL     1      -1.724  11.977  19.666  0.00  0.00    +0.000 C 
ATOM      2  C   UNL     1      -0.537  12.879  19.252  0.00  0.00    +0.000 C 
ATOM      3  C   UNL     1      -1.185  10.550  20.003  0.00  0.00    +0.000 C 
ATOM      4  N   UNL     1      -0.188  10.597  21.118  0.00  0.00    +0.000 NA
ATOM      5  C   UNL     1      -0.736  11.293  22.316  0.00  0.00    +0.000 C 
ATOM      6  C   UNL     1      -1.627  12.495  22.104  0.00  0.00    +0.000 C 
ATOM      7  O   UNL     1      -1.815  13.283  23.034  0.00  0.00    +0.000 OA
ATOM      8  N   UNL     1      -2.351  12.540  20.907  0.00  0.00    +0.000 N 
ENDROOT
BRANCH   8   9
ATOM      9  C   UNL     1      -3.662  13.212  20.906  0.00  0.00    +0.000 C 
ATOM     10  C   UNL     1      -4.511  12.774  22.114  0.00  0.00    +0.000 C 
ATOM     11  C   UNL     1      -5.382  13.957  22.489  0.00  0.00    +0.000 C 
ATOM     12  C   UNL     1      -4.753  15.193  21.866  0.00  0.00    +0.000 C 
ATOM     13  C   UNL     1      -3.596  14.741  20.980  0.00  0.00    +0.000 C 
ENDBRANCH   8   9
BRANCH   1  15
ATOM     14  N   UNL     1      -4.011  11.396  18.747  0.00  0.00    +0.000 N 
ATOM     15  C   UNL     1      -2.706  11.755  18.456  0.00  0.00    +0.000 C 
ATOM     16  O   UNL     1      -2.307  11.796  17.291  0.00  0.00    +0.000 OA
ATOM     17  H   UNL     1      -4.358  11.435  19.695  0.00  0.00    +0.000 HD
BRANCH  14  18
ATOM     18  C   UNL     1      -5.003  11.143  17.714  0.00  0.00    +0.000 C 
BRANCH  18  19
ATOM     19  C   UNL     1      -6.418  10.958  18.266  0.00  0.00    +0.000 C 
BRANCH  19  21
ATOM     20  C   UNL     1      -7.459  12.951  19.495  0.00  0.00    +0.000 C 
ATOM     21  C   UNL     1      -6.691  11.635  19.625  0.00  0.00    +0.000 C 
ATOM     22  C   UNL     1      -7.474  10.678  20.529  0.00  0.00    +0.000 C 
ENDBRANCH  19  21
ENDBRANCH  18  19
ENDBRANCH  14  18
ENDBRANCH   1  15
BRANCH   4  23
ATOM     23  S   UNL     1       0.471   9.084  21.581  0.00  0.00    +0.000 S 
ATOM     24  O   UNL     1       1.439   9.318  22.630  0.00  0.00    +0.000 OA
ATOM     25  O   UNL     1      -0.640   8.174  21.776  0.00  0.00    +0.000 OA
BRANCH  23  26
ATOM     26  C   UNL     1       1.367   8.593  20.140  0.00  0.00    +0.000 A 
ATOM     27  C   UNL     1       1.986   7.338  20.128  0.00  0.00    +0.000 A 
ATOM     28  C   UNL     1       2.669   6.926  18.986  0.00  0.00    +0.000 A 
ATOM     29  C   UNL     1       2.722   7.760  17.868  0.00  0.00    +0.000 A 
ATOM     30  C   UNL     1       2.092   9.006  17.884  0.00  0.00    +0.000 A 
ATOM     31  C   UNL     1       1.409   9.427  19.023  0.00  0.00    +0.000 A 
ENDBRANCH  23  26
ENDBRANCH   4  23
TORSDOF 7
ENDMDL
MODEL 6
REMARK VINA RESULT:      -7.1      6.999     11.275
REMARK  Name = 
REMARK  10 active torsions:
REMARK  status: ('A' for Active; 'I' for Inactive)
REMARK    1  A    between atoms: C_1  and  C_2
REMARK    2  A    between atoms: C_2  and  C_3
REMARK    3  A    between atoms: C_2  and  C_4
REMARK    4  A    between atoms: C_4  and  C_5
REMARK    5  A    between atoms: C_5  and  N_6
REMARK    6  A    between atoms: C_7  and  C_9
REMARK    7  A    between atoms: C_9  and  C_10
REMARK    8  A    between atoms: N_12  and  S_13
REMARK    9  A    between atoms: S_13  and  C_16
REMARK   10  A    between atoms: N_25  and  C_26
REMARK                            x       y       z     vdW  Elec       q    Type
REMARK                         _______ _______ _______ _____ _____    ______ ____
ROOT
ATOM      1  C   UNL     1      -1.821  11.600  19.319  0.00  0.00    +0.000 C 
ATOM      2  C   UNL     1      -0.694  12.347  18.566  0.00  0.00    +0.000 C 
ATOM      3  C   UNL     1      -1.261  10.245  19.859  0.00  0.00    +0.000 C 
ATOM      4  N   UNL     1      -0.109  10.468  20.789  0.00  0.00    +0.000 NA
ATOM      5  C   UNL     1      -0.464  11.413  21.886  0.00  0.00    +0.000 C 
ATOM      6  C   UNL     1      -1.359  12.587  21.561  0.00  0.00    +0.000 C 
ATOM      7  O   UNL     1      -1.396  13.552  22.329  0.00  0.00    +0.000 OA
ATOM      8  N   UNL     1      -2.250  12.425  20.494  0.00  0.00    +0.000 N 
ENDROOT
BRANCH   8   9
ATOM      9  C   UNL     1      -3.537  13.142  20.542  0.00  0.00    +0.000 C 
ATOM     10  C   UNL     1      -4.402  12.650  21.716  0.00  0.00    +0.000 C 
ATOM     11  C   UNL     1      -5.233  13.833  22.174  0.00  0.00    +0.000 C 
ATOM     12  C   UNL     1      -4.558  15.088  21.640  0.00  0.00    +0.000 C 
ATOM     13  C   UNL     1      -3.417  14.658  20.723  0.00  0.00    +0.000 C 
ENDBRANCH   8   9
BRANCH   1  15
ATOM     14  N   UNL     1      -3.878  12.163  17.953  0.00  0.00    +0.000 N 
ATOM     15  C   UNL     1      -2.974  11.185  18.330  0.00  0.00    +0.000 C 
ATOM     16  O   UNL     1      -3.130  10.012  17.983  0.00  0.00    +0.000 OA
ATOM     17  H   UNL     1      -3.710  13.134  18.173  0.00  0.00    +0.000 HD
BRANCH  14  18
ATOM     18  C   UNL     1      -4.997  11.895  17.063  0.00  0.00    +0.000 C 
BRANCH  18  19
ATOM     19  C   UNL     1      -6.299  11.585  17.805  0.00  0.00    +0.000 C 
BRANCH  19  21
ATOM     20  C   UNL     1      -7.452  13.306  19.314  0.00  0.00    +0.000 C 
ATOM     21  C   UNL     1      -7.301  12.754  17.896  0.00  0.00    +0.000 C 
ATOM     22  C   UNL     1      -6.863  13.882  16.957  0.00  0.00    +0.000 C 
ENDBRANCH  19  21
ENDBRANCH  18  19
ENDBRANCH  14  18
ENDBRANCH   1  15
BRANCH   4  23
ATOM     23  S   UNL     1       0.588   9.051  21.453  0.00  0.00    +0.000 S 
ATOM     24  O   UNL     1       1.568   9.451  22.439  0.00  0.00    +0.000 OA
ATOM     25  O   UNL     1      -0.502   8.158  21.798  0.00  0.00    +0.000 OA
BRANCH  23  26
ATOM     26  C   UNL     1       1.470   8.372  20.081  0.00  0.00    +0.000 A 
ATOM     27  C   UNL     1       1.590   9.135  18.915  0.00  0.00    +0.000 A 
ATOM     28  C   UNL     1       2.310   8.624  17.837  0.00  0.00    +0.000 A 
ATOM     29  C   UNL     1       2.909   7.367  17.933  0.00  0.00    +0.000 A 
ATOM     30  C   UNL     1       2.795   6.617  19.105  0.00  0.00    +0.000 A 
ATOM     31  C   UNL     1       2.074   7.119  20.187  0.00  0.00    +0.000 A 
ENDBRANCH  23  26
ENDBRANCH   4  23
TORSDOF 7
ENDMDL
MODEL 7
REMARK VINA RESULT:      -7.1      2.651      5.461
REMARK  Name = 
REMARK  10 active torsions:
REMARK  status: ('A' for Active; 'I' for Inactive)
REMARK    1  A    between atoms: C_1  and  C_2
REMARK    2  A    between atoms: C_2  and  C_3
REMARK    3  A    between atoms: C_2  and  C_4
REMARK    4  A    between atoms: C_4  and  C_5
REMARK    5  A    between atoms: C_5  and  N_6
REMARK    6  A    between atoms: C_7  and  C_9
REMARK    7  A    between atoms: C_9  and  C_10
REMARK    8  A    between atoms: N_12  and  S_13
REMARK    9  A    between atoms: S_13  and  C_16
REMARK   10  A    between atoms: N_25  and  C_26
REMARK                            x       y       z     vdW  Elec       q    Type
REMARK                         _______ _______ _______ _____ _____    ______ ____
ROOT
ATOM      1  C   UNL     1       3.694   5.445  18.176  0.00  0.00    +0.000 C 
ATOM      2  C   UNL     1       4.349   5.638  19.564  0.00  0.00    +0.000 C 
ATOM      3  C   UNL     1       2.520   6.464  18.021  0.00  0.00    +0.000 C 
ATOM      4  N   UNL     1       3.008   7.874  18.144  0.00  0.00    +0.000 NA
ATOM      5  C   UNL     1       4.129   8.152  17.202  0.00  0.00    +0.000 C 
ATOM      6  C   UNL     1       5.146   7.062  16.955  0.00  0.00    +0.000 C 
ATOM      7  O   UNL     1       6.243   7.354  16.470  0.00  0.00    +0.000 OA
ATOM      8  N   UNL     1       4.709   5.742  17.114  0.00  0.00    +0.000 N 
ENDROOT
BRANCH   8   9
ATOM      9  C   UNL     1       5.328   4.694  16.283  0.00  0.00    +0.000 C 
ATOM     10  C   UNL     1       4.842   4.783  14.825  0.00  0.00    +0.000 C 
ATOM     11  C   UNL     1       5.984   4.300  13.952  0.00  0.00    +0.000 C 
ATOM     12  C   UNL     1       7.253   4.382  14.788  0.00  0.00    +0.000 C 
ATOM     13  C   UNL     1       6.857   4.755  16.213  0.00  0.00    +0.000 C 
ENDBRANCH   8   9
BRANCH   1  15
ATOM     14  N   UNL     1       3.442   3.043  18.941  0.00  0.00    +0.000 N 
ATOM     15  C   UNL     1       3.007   4.032  18.075  0.00  0.00    +0.000 C 
ATOM     16  O   UNL     1       2.185   3.780  17.191  0.00  0.00    +0.000 OA
ATOM     17  H   UNL     1       4.058   3.265  19.711  0.00  0.00    +0.000 HD
BRANCH  14  18
ATOM     18  C   UNL     1       2.899   1.694  18.927  0.00  0.00    +0.000 C 
BRANCH  18  19
ATOM     19  C   UNL     1       1.480   1.607  19.492  0.00  0.00    +0.000 C 
BRANCH  19  21
ATOM     20  C   UNL     1       2.473   2.577  21.647  0.00  0.00    +0.000 C 
ATOM     21  C   UNL     1       1.227   2.431  20.772  0.00  0.00    +0.000 C 
ATOM     22  C   UNL     1       0.707   3.821  20.395  0.00  0.00    +0.000 C 
ENDBRANCH  19  21
ENDBRANCH  18  19
ENDBRANCH  14  18
ENDBRANCH   1  15
BRANCH   4  23
ATOM     23  S   UNL     1       1.807   9.086  17.985  0.00  0.00    +0.000 S 
ATOM     24  O   UNL     1       2.456  10.308  17.562  0.00  0.00    +0.000 OA
ATOM     25  O   UNL     1       0.717   8.511  17.220  0.00  0.00    +0.000 OA
BRANCH  23  26
ATOM     26  C   UNL     1       1.272   9.325  19.651  0.00  0.00    +0.000 A 
ATOM     27  C   UNL     1       0.597  10.505  19.978  0.00  0.00    +0.000 A 
ATOM     28  C   UNL     1       0.142  10.692  21.282  0.00  0.00    +0.000 A 
ATOM     29  C   UNL     1       0.356   9.701  22.242  0.00  0.00    +0.000 A 
ATOM     30  C   UNL     1       1.020   8.520  21.905  0.00  0.00    +0.000 A 
ATOM     31  C   UNL     1       1.480   8.327  20.603  0.00  0.00    +0.000 A 
ENDBRANCH  23  26
ENDBRANCH   4  23
TORSDOF 7
ENDMDL
MODEL 8
REMARK VINA RESULT:      -7.1      9.364     11.479
REMARK  Name = 
REMARK  10 active torsions:
REMARK  status: ('A' for Active; 'I' for Inactive)
REMARK    1  A    between atoms: C_1  and  C_2
REMARK    2  A    between atoms: C_2  and  C_3
REMARK    3  A    between atoms: C_2  and  C_4
REMARK    4  A    between atoms: C_4  and  C_5
REMARK    5  A    between atoms: C_5  and  N_6
REMARK    6  A    between atoms: C_7  and  C_9
REMARK    7  A    between atoms: C_9  and  C_10
REMARK    8  A    between atoms: N_12  and  S_13
REMARK    9  A    between atoms: S_13  and  C_16
REMARK   10  A    between atoms: N_25  and  C_26
REMARK                            x       y       z     vdW  Elec       q    Type
REMARK                         _______ _______ _______ _____ _____    ______ ____
ROOT
ATOM      1  C   UNL     1      -1.075  11.822  20.827  0.00  0.00    +0.000 C 
ATOM      2  C   UNL     1      -0.410  10.681  21.632  0.00  0.00    +0.000 C 
ATOM      3  C   UNL     1      -2.414  12.224  21.525  0.00  0.00    +0.000 C 
ATOM      4  N   UNL     1      -2.175  12.685  22.929  0.00  0.00    +0.000 NA
ATOM      5  C   UNL     1      -1.157  13.773  22.984  0.00  0.00    +0.000 C 
ATOM      6  C   UNL     1       0.024  13.699  22.045  0.00  0.00    +0.000 C 
ATOM      7  O   UNL     1       1.033  14.368  22.285  0.00  0.00    +0.000 OA
ATOM      8  N   UNL     1      -0.169  13.017  20.839  0.00  0.00    +0.000 N 
ENDROOT
BRANCH   8   9
ATOM      9  C   UNL     1       0.590  13.457  19.655  0.00  0.00    +0.000 C 
ATOM     10  C   UNL     1       0.370  14.955  19.380  0.00  0.00    +0.000 C 
ATOM     11  C   UNL     1       1.650  15.480  18.759  0.00  0.00    +0.000 C 
ATOM     12  C   UNL     1       2.750  14.483  19.090  0.00  0.00    +0.000 C 
ATOM     13  C   UNL     1       2.107  13.276  19.766  0.00  0.00    +0.000 C 
ENDBRANCH   8   9
BRANCH   1  15
ATOM     14  N   UNL     1      -2.575  11.959  18.790  0.00  0.00    +0.000 N 
ATOM     15  C   UNL     1      -1.509  11.319  19.399  0.00  0.00    +0.000 C 
ATOM     16  O   UNL     1      -0.989  10.328  18.883  0.00  0.00    +0.000 OA
ATOM     17  H   UNL     1      -2.952  12.814  19.174  0.00  0.00    +0.000 HD
BRANCH  14  18
ATOM     18  C   UNL     1      -3.080  11.569  17.483  0.00  0.00    +0.000 C 
BRANCH  18  19
ATOM     19  C   UNL     1      -4.418  10.831  17.547  0.00  0.00    +0.000 C 
BRANCH  19  21
ATOM     20  C   UNL     1      -6.157  12.681  17.192  0.00  0.00    +0.000 C 
ATOM     21  C   UNL     1      -5.588  11.635  18.152  0.00  0.00    +0.000 C 
ATOM     22  C   UNL     1      -6.705  10.677  18.577  0.00  0.00    +0.000 C 
ENDBRANCH  19  21
ENDBRANCH  18  19
ENDBRANCH  14  18
ENDBRANCH   1  15
BRANCH   4  23
ATOM     23  S   UNL     1      -3.574  13.161  23.797  0.00  0.00    +0.000 S 
ATOM     24  O   UNL     1      -4.175  11.974  24.364  0.00  0.00    +0.000 OA
ATOM     25  O   UNL     1      -3.198  14.284  24.633  0.00  0.00    +0.000 OA
BRANCH  23  26
ATOM     26  C   UNL     1      -4.649  13.734  22.518  0.00  0.00    +0.000 A 
ATOM     27  C   UNL     1      -4.352  14.944  21.882  0.00  0.00    +0.000 A 
ATOM     28  C   UNL     1      -5.175  15.392  20.850  0.00  0.00    +0.000 A 
ATOM     29  C   UNL     1      -6.276  14.628  20.456  0.00  0.00    +0.000 A 
ATOM     30  C   UNL     1      -6.558  13.415  21.088  0.00  0.00    +0.000 A 
ATOM     31  C   UNL     1      -5.742  12.962  22.123  0.00  0.00    +0.000 A 
ENDBRANCH  23  26
ENDBRANCH   4  23
TORSDOF 7
ENDMDL
MODEL 9
REMARK VINA RESULT:      -7.0      6.128      8.605
REMARK  Name = 
REMARK  10 active torsions:
REMARK  status: ('A' for Active; 'I' for Inactive)
REMARK    1  A    between atoms: C_1  and  C_2
REMARK    2  A    between atoms: C_2  and  C_3
REMARK    3  A    between atoms: C_2  and  C_4
REMARK    4  A    between atoms: C_4  and  C_5
REMARK    5  A    between atoms: C_5  and  N_6
REMARK    6  A    between atoms: C_7  and  C_9
REMARK    7  A    between atoms: C_9  and  C_10
REMARK    8  A    between atoms: N_12  and  S_13
REMARK    9  A    between atoms: S_13  and  C_16
REMARK   10  A    between atoms: N_25  and  C_26
REMARK                            x       y       z     vdW  Elec       q    Type
REMARK                         _______ _______ _______ _____ _____    ______ ____
ROOT
ATOM      1  C   UNL     1       0.110  10.224  18.763  0.00  0.00    +0.000 C 
ATOM      2  C   UNL     1      -0.567   9.729  20.063  0.00  0.00    +0.000 C 
ATOM      3  C   UNL     1      -0.879  10.032  17.569  0.00  0.00    +0.000 C 
ATOM      4  N   UNL     1      -2.147  10.797  17.788  0.00  0.00    +0.000 NA
ATOM      5  C   UNL     1      -1.878  12.235  18.076  0.00  0.00    +0.000 C 
ATOM      6  C   UNL     1      -0.676  12.585  18.922  0.00  0.00    +0.000 C 
ATOM      7  O   UNL     1      -0.614  13.696  19.457  0.00  0.00    +0.000 OA
ATOM      8  N   UNL     1       0.399  11.690  18.894  0.00  0.00    +0.000 N 
ENDROOT
BRANCH   8   9
ATOM      9  C   UNL     1       1.760  12.224  19.075  0.00  0.00    +0.000 C 
ATOM     10  C   UNL     1       2.086  13.286  18.009  0.00  0.00    +0.000 C 
ATOM     11  C   UNL     1       3.034  14.278  18.654  0.00  0.00    +0.000 C 
ATOM     12  C   UNL     1       2.904  14.108  20.160  0.00  0.00    +0.000 C 
ATOM     13  C   UNL     1       2.004  12.905  20.425  0.00  0.00    +0.000 C 
ENDBRANCH   8   9
BRANCH   1  15
ATOM     14  N   UNL     1       1.638   8.261  19.239  0.00  0.00    +0.000 N 
ATOM     15  C   UNL     1       1.349   9.323  18.399  0.00  0.00    +0.000 C 
ATOM     16  O   UNL     1       2.097   9.610  17.463  0.00  0.00    +0.000 OA
ATOM     17  H   UNL     1       0.987   7.980  19.959  0.00  0.00    +0.000 HD
BRANCH  14  18
ATOM     18  C   UNL     1       2.768   7.373  19.019  0.00  0.00    +0.000 C 
BRANCH  18  19
ATOM     19  C   UNL     1       2.400   5.891  19.111  0.00  0.00    +0.000 C 
BRANCH  19  21
ATOM     20  C   UNL     1       3.134   3.501  19.678  0.00  0.00    +0.000 C 
ATOM     21  C   UNL     1       3.441   4.994  19.812  0.00  0.00    +0.000 C 
ATOM     22  C   UNL     1       4.833   5.278  19.241  0.00  0.00    +0.000 C 
ENDBRANCH  19  21
ENDBRANCH  18  19
ENDBRANCH  14  18
ENDBRANCH   1  15
BRANCH   4  23
ATOM     23  S   UNL     1      -3.311  10.668  16.538  0.00  0.00    +0.000 S 
ATOM     24  O   UNL     1      -3.011  11.669  15.538  0.00  0.00    +0.000 OA
ATOM     25  O   UNL     1      -3.411   9.264  16.188  0.00  0.00    +0.000 OA
BRANCH  23  26
ATOM     26  C   UNL     1      -4.804  11.163  17.343  0.00  0.00    +0.000 A 
ATOM     27  C   UNL     1      -5.465  12.309  16.889  0.00  0.00    +0.000 A 
ATOM     28  C   UNL     1      -6.659  12.693  17.496  0.00  0.00    +0.000 A 
ATOM     29  C   UNL     1      -7.187  11.929  18.539  0.00  0.00    +0.000 A 
ATOM     30  C   UNL     1      -6.526  10.780  18.979  0.00  0.00    +0.000 A 
ATOM     31  C   UNL     1      -5.330  10.391  18.379  0.00  0.00    +0.000 A 
ENDBRANCH  23  26
ENDBRANCH   4  23
TORSDOF 7
ENDMDL
