MODEL 1
REMARK VINA RESULT:      -8.4      0.000      0.000
REMARK  Name = 
REMARK  8 active torsions:
REMARK  status: ('A' for Active; 'I' for Inactive)
REMARK    1  A    between atoms: C_1  and  O_2
REMARK    2  A    between atoms: O_2  and  C_3
REMARK    3  A    between atoms: C_10  and  C_11
REMARK    4  A    between atoms: C_11  and  C_12
REMARK    5  A    between atoms: C_12  and  C_13
REMARK    6  A    between atoms: C_16  and  N_17
REMARK    7  A    between atoms: C_18  and  C_20
REMARK    8  A    between atoms: N_23  and  C_24
REMARK                            x       y       z     vdW  Elec       q    Type
REMARK                         _______ _______ _______ _____ _____    ______ ____
ROOT
ATOM      1  C   UNL     1       1.204   8.168  20.434  0.00  0.00    +0.000 C 
ATOM      2  O   UNL     1       1.505   8.520  21.778  0.00  0.00    +0.000 OA
ATOM      3  C   UNL     1       0.402   9.225  22.345  0.00  0.00    +0.000 C 
ATOM      4  C   UNL     1       0.052  10.480  21.532  0.00  0.00    +0.000 C 
ATOM      5  C   UNL     1      -0.027  10.142  20.039  0.00  0.00    +0.000 C 
ATOM      6  O   UNL     1       1.071   9.348  19.634  0.00  0.00    +0.000 OA
ENDROOT
BRANCH   4   7
ATOM      7  N   UNL     1      -1.159  11.112  22.014  0.00  0.00    +0.000 N 
ATOM      8  C   UNL     1      -1.451  12.435  21.730  0.00  0.00    +0.000 C 
ATOM      9  O   UNL     1      -0.743  13.158  21.055  0.00  0.00    +0.000 OA
ATOM     10  H   UNL     1      -1.748  10.590  22.651  0.00  0.00    +0.000 HD
BRANCH   8  11
ATOM     11  C   UNL     1      -2.733  12.937  22.344  0.00  0.00    +0.000 C 
ATOM     12  C   UNL     1      -3.016  12.186  23.646  0.00  0.00    +0.000 C 
ATOM     13  C   UNL     1      -4.324  12.658  24.258  0.00  0.00    +0.000 C 
ATOM     14  N   UNL     1      -5.432  12.509  23.303  0.00  0.00    +0.000 NA
ATOM     15  C   UNL     1      -6.686  12.928  23.932  0.00  0.00    +0.000 C 
ATOM     16  C   UNL     1      -5.200  13.287  22.076  0.00  0.00    +0.000 C 
ATOM     17  C   UNL     1      -3.920  12.835  21.384  0.00  0.00    +0.000 C 
ENDBRANCH   8  11
ENDBRANCH   4   7
BRANCH   1  18
ATOM     18  C   UNL     1       2.381   7.440  19.798  0.00  0.00    +0.000 C 
BRANCH  18  19
ATOM     19  C   UNL     1       2.376   7.317  18.280  0.00  0.00    +0.000 C 
BRANCH  19  27
ATOM     20  C   UNL     1       6.487   6.121  16.629  0.00  0.00    +0.000 A 
ATOM     21  C   UNL     1       6.673   4.803  16.254  0.00  0.00    +0.000 A 
ATOM     22  C   UNL     1       5.622   3.899  16.420  0.00  0.00    +0.000 A 
ATOM     23  C   UNL     1       4.387   4.276  16.947  0.00  0.00    +0.000 A 
ATOM     24  N   UNL     1       3.469   3.308  17.065  0.00  0.00    +0.000 NA
ATOM     25  C   UNL     1       2.270   3.624  17.578  0.00  0.00    +0.000 A 
ATOM     26  C   UNL     1       1.918   4.895  17.973  0.00  0.00    +0.000 A 
ATOM     27  C   UNL     1       2.855   5.934  17.838  0.00  0.00    +0.000 A 
ATOM     28  C   UNL     1       4.158   5.625  17.325  0.00  0.00    +0.000 A 
ATOM     29  C   UNL     1       5.252   6.527  17.166  0.00  0.00    +0.000 A 
BRANCH  20  31
ATOM     30  C   UNL     1       7.768   7.739  17.797  0.00  0.00    +0.000 C 
ATOM     31  O   UNL     1       7.449   7.097  16.567  0.00  0.00    +0.000 OA
ENDBRANCH  20  31
ENDBRANCH  19  27
ENDBRANCH  18  19
ENDBRANCH   1  18
TORSDOF 6
ENDMDL
MODEL 2
REMARK VINA RESULT:      -8.2      2.736      4.484
REMARK  Name = 
REMARK  8 active torsions:
REMARK  status: ('A' for Active; 'I' for Inactive)
REMARK    1  A    between atoms: C_1  and  O_2
REMARK    2  A    between atoms: O_2  and  C_3
REMARK    3  A    between atoms: C_10  and  C_11
REMARK    4  A    between atoms: C_11  and  C_12
REMARK    5  A    between atoms: C_12  and  C_13
REMARK    6  A    between atoms: C_16  and  N_17
REMARK    7  A    between atoms: C_18  and  C_20
REMARK    8  A    between atoms: N_23  and  C_24
REMARK                            x       y       z     vdW  Elec       q    Type
REMARK                         _______ _______ _______ _____ _____    ______ ____
ROOT
ATOM      1  C   UNL     1       2.711   5.266  18.664  0.00  0.00    +0.000 C 
ATOM      2  O   UNL     1       2.680   5.286  20.086  0.00  0.00    +0.000 OA
ATOM      3  C   UNL     1       1.744   6.268  20.529  0.00  0.00    +0.000 C 
ATOM      4  C   UNL     1       2.085   7.663  19.984  0.00  0.00    +0.000 C 
ATOM      5  C   UNL     1       2.365   7.594  18.479  0.00  0.00    +0.000 C 
ATOM      6  O   UNL     1       3.219   6.509  18.166  0.00  0.00    +0.000 OA
ENDROOT
BRANCH   4   7
ATOM      7  N   UNL     1       1.055   8.630  20.304  0.00  0.00    +0.000 N 
ATOM      8  C   UNL     1       1.043   9.306  21.512  0.00  0.00    +0.000 C 
ATOM      9  O   UNL     1       1.883   9.163  22.380  0.00  0.00    +0.000 OA
ATOM     10  H   UNL     1       0.280   8.732  19.660  0.00  0.00    +0.000 HD
BRANCH   8  11
ATOM     11  C   UNL     1      -0.123  10.246  21.690  0.00  0.00    +0.000 C 
ATOM     12  C   UNL     1       0.274  11.656  21.253  0.00  0.00    +0.000 C 
ATOM     13  C   UNL     1      -0.881  12.621  21.460  0.00  0.00    +0.000 C 
ATOM     14  N   UNL     1      -1.334  12.603  22.859  0.00  0.00    +0.000 NA
ATOM     15  C   UNL     1      -2.415  13.573  23.041  0.00  0.00    +0.000 C 
ATOM     16  C   UNL     1      -1.785  11.263  23.266  0.00  0.00    +0.000 C 
ATOM     17  C   UNL     1      -0.658  10.247  23.124  0.00  0.00    +0.000 C 
ENDBRANCH   8  11
ENDBRANCH   4   7
BRANCH   1  18
ATOM     18  C   UNL     1       3.728   4.246  18.169  0.00  0.00    +0.000 C 
BRANCH  18  19
ATOM     19  C   UNL     1       3.850   4.070  16.661  0.00  0.00    +0.000 C 
BRANCH  19  27
ATOM     20  C   UNL     1       5.802   3.461  12.554  0.00  0.00    +0.000 A 
ATOM     21  C   UNL     1       7.034   4.048  12.332  0.00  0.00    +0.000 A 
ATOM     22  C   UNL     1       7.609   4.816  13.346  0.00  0.00    +0.000 A 
ATOM     23  C   UNL     1       6.989   5.010  14.580  0.00  0.00    +0.000 A 
ATOM     24  N   UNL     1       7.642   5.779  15.461  0.00  0.00    +0.000 NA
ATOM     25  C   UNL     1       7.076   6.003  16.657  0.00  0.00    +0.000 A 
ATOM     26  C   UNL     1       5.867   5.468  17.043  0.00  0.00    +0.000 A 
ATOM     27  C   UNL     1       5.171   4.639  16.145  0.00  0.00    +0.000 A 
ATOM     28  C   UNL     1       5.732   4.406  14.846  0.00  0.00    +0.000 A 
ATOM     29  C   UNL     1       5.153   3.644  13.788  0.00  0.00    +0.000 A 
BRANCH  20  31
ATOM     30  C   UNL     1       3.876   3.289  11.181  0.00  0.00    +0.000 C 
ATOM     31  O   UNL     1       5.105   2.727  11.628  0.00  0.00    +0.000 OA
ENDBRANCH  20  31
ENDBRANCH  19  27
ENDBRANCH  18  19
ENDBRANCH   1  18
TORSDOF 6
ENDMDL
MODEL 3
REMARK VINA RESULT:      -8.0      1.314      1.439
REMARK  Name = 
REMARK  8 active torsions:
REMARK  status: ('A' for Active; 'I' for Inactive)
REMARK    1  A    between atoms: C_1  and  O_2
REMARK    2  A    between atoms: O_2  and  C_3
REMARK    3  A    between atoms: C_10  and  C_11
REMARK    4  A    between atoms: C_11  and  C_12
REMARK    5  A    between atoms: C_12  and  C_13
REMARK    6  A    between atoms: C_16  and  N_17
REMARK    7  A    between atoms: C_18  and  C_20
REMARK    8  A    between atoms: N_23  and  C_24
REMARK                            x       y       z     vdW  Elec       q    Type
REMARK                         _______ _______ _______ _____ _____    ______ ____
ROOT
ATOM      1  C   UNL     1       1.310   9.007  18.725  0.00  0.00    +0.000 C 
ATOM      2  O   UNL     1       1.224   8.758  20.123  0.00  0.00    +0.000 OA
ATOM      3  C   UNL     1       0.266   9.639  20.706  0.00  0.00    +0.000 C 
ATOM      4  C   UNL     1       0.617  11.111  20.450  0.00  0.00    +0.000 C 
ATOM      5  C   UNL     1       0.956  11.328  18.970  0.00  0.00    +0.000 C 
ATOM      6  O   UNL     1       1.828  10.321  18.491  0.00  0.00    +0.000 OA
ENDROOT
BRANCH   4   7
ATOM      7  N   UNL     1      -0.431  12.001  20.906  0.00  0.00    +0.000 N 
ATOM      8  C   UNL     1      -0.144  13.170  21.590  0.00  0.00    +0.000 C 
ATOM      9  O   UNL     1       0.983  13.549  21.846  0.00  0.00    +0.000 OA
ATOM     10  H   UNL     1      -1.391  11.700  20.799  0.00  0.00    +0.000 HD
BRANCH   8  11
ATOM     11  C   UNL     1      -1.358  13.954  22.022  0.00  0.00    +0.000 C 
ATOM     12  C   UNL     1      -1.546  13.830  23.535  0.00  0.00    +0.000 C 
ATOM     13  C   UNL     1      -2.785  14.587  23.980  0.00  0.00    +0.000 C 
ATOM     14  N   UNL     1      -3.974  14.116  23.253  0.00  0.00    +0.000 NA
ATOM     15  C   UNL     1      -5.160  14.829  23.732  0.00  0.00    +0.000 C 
ATOM     16  C   UNL     1      -3.830  14.298  21.800  0.00  0.00    +0.000 C 
ATOM     17  C   UNL     1      -2.624  13.527  21.277  0.00  0.00    +0.000 C 
ENDBRANCH   8  11
ENDBRANCH   4   7
BRANCH   1  18
ATOM     18  C   UNL     1       2.352   8.098  18.086  0.00  0.00    +0.000 C 
BRANCH  18  19
ATOM     19  C   UNL     1       2.960   7.018  18.970  0.00  0.00    +0.000 C 
BRANCH  19  27
ATOM     20  C   UNL     1       6.751   5.897  16.641  0.00  0.00    +0.000 A 
ATOM     21  C   UNL     1       6.754   4.697  15.953  0.00  0.00    +0.000 A 
ATOM     22  C   UNL     1       5.627   3.876  16.021  0.00  0.00    +0.000 A 
ATOM     23  C   UNL     1       4.493   4.223  16.754  0.00  0.00    +0.000 A 
ATOM     24  N   UNL     1       3.486   3.340  16.747  0.00  0.00    +0.000 NA
ATOM     25  C   UNL     1       2.379   3.627  17.450  0.00  0.00    +0.000 A 
ATOM     26  C   UNL     1       2.208   4.793  18.164  0.00  0.00    +0.000 A 
ATOM     27  C   UNL     1       3.241   5.746  18.170  0.00  0.00    +0.000 A 
ATOM     28  C   UNL     1       4.451   5.455  17.457  0.00  0.00    +0.000 A 
ATOM     29  C   UNL     1       5.621   6.269  17.391  0.00  0.00    +0.000 A 
BRANCH  20  31
ATOM     30  C   UNL     1       7.625   7.917  17.523  0.00  0.00    +0.000 C 
ATOM     31  O   UNL     1       7.807   6.770  16.700  0.00  0.00    +0.000 OA
ENDBRANCH  20  31
ENDBRANCH  19  27
ENDBRANCH  18  19
ENDBRANCH   1  18
TORSDOF 6
ENDMDL
MODEL 4
REMARK VINA RESULT:      -8.0      1.307      1.576
REMARK  Name = 
REMARK  8 active torsions:
REMARK  status: ('A' for Active; 'I' for Inactive)
REMARK    1  A    between atoms: C_1  and  O_2
REMARK    2  A    between atoms: O_2  and  C_3
REMARK    3  A    between atoms: C_10  and  C_11
REMARK    4  A    between atoms: C_11  and  C_12
REMARK    5  A    between atoms: C_12  and  C_13
REMARK    6  A    between atoms: C_16  and  N_17
REMARK    7  A    between atoms: C_18  and  C_20
REMARK    8  A    between atoms: N_23  and  C_24
REMARK                            x       y       z     vdW  Elec       q    Type
REMARK                         _______ _______ _______ _____ _____    ______ ____
ROOT
ATOM      1  C   UNL     1       1.607   8.556  20.462  0.00  0.00    +0.000 C 
ATOM      2  O   UNL     1       1.249   9.463  19.427  0.00  0.00    +0.000 OA
ATOM      3  C   UNL     1       0.729  10.661  20.002  0.00  0.00    +0.000 C 
ATOM      4  C   UNL     1      -0.480  10.380  20.905  0.00  0.00    +0.000 C 
ATOM      5  C   UNL     1      -0.173   9.222  21.861  0.00  0.00    +0.000 C 
ATOM      6  O   UNL     1       0.440   8.143  21.180  0.00  0.00    +0.000 OA
ENDROOT
BRANCH   4   7
ATOM      7  N   UNL     1      -0.913  11.569  21.609  0.00  0.00    +0.000 N 
ATOM      8  C   UNL     1      -1.922  12.379  21.114  0.00  0.00    +0.000 C 
ATOM      9  O   UNL     1      -2.527  12.159  20.082  0.00  0.00    +0.000 OA
ATOM     10  H   UNL     1      -0.393  11.854  22.428  0.00  0.00    +0.000 HD
BRANCH   8  11
ATOM     11  C   UNL     1      -2.216  13.594  21.957  0.00  0.00    +0.000 C 
ATOM     12  C   UNL     1      -2.284  13.200  23.433  0.00  0.00    +0.000 C 
ATOM     13  C   UNL     1      -2.614  14.409  24.291  0.00  0.00    +0.000 C 
ATOM     14  N   UNL     1      -3.868  15.038  23.848  0.00  0.00    +0.000 NA
ATOM     15  C   UNL     1      -4.186  16.172  24.718  0.00  0.00    +0.000 C 
ATOM     16  C   UNL     1      -3.785  15.485  22.448  0.00  0.00    +0.000 C 
ATOM     17  C   UNL     1      -3.497  14.310  21.522  0.00  0.00    +0.000 C 
ENDBRANCH   8  11
ENDBRANCH   4   7
BRANCH   1  18
ATOM     18  C   UNL     1       2.136   7.256  19.871  0.00  0.00    +0.000 C 
BRANCH  18  19
ATOM     19  C   UNL     1       2.508   7.271  18.394  0.00  0.00    +0.000 C 
BRANCH  19  27
ATOM     20  C   UNL     1       6.514   5.915  16.615  0.00  0.00    +0.000 A 
ATOM     21  C   UNL     1       6.626   4.598  16.209  0.00  0.00    +0.000 A 
ATOM     22  C   UNL     1       5.537   3.742  16.383  0.00  0.00    +0.000 A 
ATOM     23  C   UNL     1       4.335   4.166  16.949  0.00  0.00    +0.000 A 
ATOM     24  N   UNL     1       3.375   3.241  17.071  0.00  0.00    +0.000 NA
ATOM     25  C   UNL     1       2.206   3.603  17.621  0.00  0.00    +0.000 A 
ATOM     26  C   UNL     1       1.925   4.882  18.050  0.00  0.00    +0.000 A 
ATOM     27  C   UNL     1       2.908   5.877  17.913  0.00  0.00    +0.000 A 
ATOM     28  C   UNL     1       4.182   5.516  17.360  0.00  0.00    +0.000 A 
ATOM     29  C   UNL     1       5.313   6.369  17.192  0.00  0.00    +0.000 A 
BRANCH  20  31
ATOM     30  C   UNL     1       7.660   7.697  17.681  0.00  0.00    +0.000 C 
ATOM     31  O   UNL     1       7.520   6.845  16.548  0.00  0.00    +0.000 OA
ENDBRANCH  20  31
ENDBRANCH  19  27
ENDBRANCH  18  19
ENDBRANCH   1  18
TORSDOF 6
ENDMDL
MODEL 5
REMARK VINA RESULT:      -7.9      2.050      3.429
REMARK  Name = 
REMARK  8 active torsions:
REMARK  status: ('A' for Active; 'I' for Inactive)
REMARK    1  A    between atoms: C_1  and  O_2
REMARK    2  A    between atoms: O_2  and  C_3
REMARK    3  A    between atoms: C_10  and  C_11
REMARK    4  A    between atoms: C_11  and  C_12
REMARK    5  A    between atoms: C_12  and  C_13
REMARK    6  A    between atoms: C_16  and  N_17
REMARK    7  A    between atoms: C_18  and  C_20
REMARK    8  A    between atoms: N_23  and  C_24
REMARK                            x       y       z     vdW  Elec       q    Type
REMARK                         _______ _______ _______ _____ _____    ______ ____
ROOT
ATOM      1  C   UNL     1       1.387   9.059  18.322  0.00  0.00    +0.000 C 
ATOM      2  O   UNL     1       1.428   8.695  19.697  0.00  0.00    +0.000 OA
ATOM      3  C   UNL     1       0.351   9.324  20.389  0.00  0.00    +0.000 C 
ATOM      4  C   UNL     1       0.395  10.852  20.242  0.00  0.00    +0.000 C 
ATOM      5  C   UNL     1       0.603  11.239  18.773  0.00  0.00    +0.000 C 
ATOM      6  O   UNL     1       1.626  10.463  18.178  0.00  0.00    +0.000 OA
ENDROOT
BRANCH   4   7
ATOM      7  N   UNL     1      -0.779  11.480  20.812  0.00  0.00    +0.000 N 
ATOM      8  C   UNL     1      -0.953  11.586  22.181  0.00  0.00    +0.000 C 
ATOM      9  O   UNL     1      -0.150  11.187  23.002  0.00  0.00    +0.000 OA
ATOM     10  H   UNL     1      -1.524  11.756  20.184  0.00  0.00    +0.000 HD
BRANCH   8  11
ATOM     11  C   UNL     1      -2.250  12.235  22.597  0.00  0.00    +0.000 C 
ATOM     12  C   UNL     1      -3.025  12.690  21.359  0.00  0.00    +0.000 C 
ATOM     13  C   UNL     1      -4.317  13.376  21.765  0.00  0.00    +0.000 C 
ATOM     14  N   UNL     1      -4.049  14.503  22.672  0.00  0.00    +0.000 NA
ATOM     15  C   UNL     1      -5.306  15.174  23.011  0.00  0.00    +0.000 C 
ATOM     16  C   UNL     1      -3.368  14.061  23.899  0.00  0.00    +0.000 C 
ATOM     17  C   UNL     1      -2.036  13.397  23.568  0.00  0.00    +0.000 C 
ENDBRANCH   8  11
ENDBRANCH   4   7
BRANCH   1  18
ATOM     18  C   UNL     1       2.548   8.424  17.569  0.00  0.00    +0.000 C 
BRANCH  18  19
ATOM     19  C   UNL     1       3.534   7.602  18.387  0.00  0.00    +0.000 C 
BRANCH  19  27
ATOM     20  C   UNL     1       1.871   3.395  19.155  0.00  0.00    +0.000 A 
ATOM     21  C   UNL     1       2.381   2.353  18.404  0.00  0.00    +0.000 A 
ATOM     22  C   UNL     1       3.348   2.628  17.435  0.00  0.00    +0.000 A 
ATOM     23  C   UNL     1       3.824   3.918  17.199  0.00  0.00    +0.000 A 
ATOM     24  N   UNL     1       4.742   4.047  16.232  0.00  0.00    +0.000 NA
ATOM     25  C   UNL     1       5.219   5.272  15.963  0.00  0.00    +0.000 A 
ATOM     26  C   UNL     1       4.834   6.408  16.641  0.00  0.00    +0.000 A 
ATOM     27  C   UNL     1       3.889   6.297  17.675  0.00  0.00    +0.000 A 
ATOM     28  C   UNL     1       3.333   5.007  17.966  0.00  0.00    +0.000 A 
ATOM     29  C   UNL     1       2.331   4.706  18.935  0.00  0.00    +0.000 A 
BRANCH  20  31
ATOM     30  C   UNL     1       1.294   2.774  21.370  0.00  0.00    +0.000 C 
ATOM     31  O   UNL     1       0.884   3.271  20.100  0.00  0.00    +0.000 OA
ENDBRANCH  20  31
ENDBRANCH  19  27
ENDBRANCH  18  19
ENDBRANCH   1  18
TORSDOF 6
ENDMDL
MODEL 6
REMARK VINA RESULT:      -7.9      2.443     10.533
REMARK  Name = 
REMARK  8 active torsions:
REMARK  status: ('A' for Active; 'I' for Inactive)
REMARK    1  A    between atoms: C_1  and  O_2
REMARK    2  A    between atoms: O_2  and  C_3
REMARK    3  A    between atoms: C_10  and  C_11
REMARK    4  A    between atoms: C_11  and  C_12
REMARK    5  A    between atoms: C_12  and  C_13
REMARK    6  A    between atoms: C_16  and  N_17
REMARK    7  A    between atoms: C_18  and  C_20
REMARK    8  A    between atoms: N_23  and  C_24
REMARK                            x       y       z     vdW  Elec       q    Type
REMARK                         _______ _______ _______ _____ _____    ______ ____
ROOT
ATOM      1  C   UNL     1      -1.088  11.569  21.487  0.00  0.00    +0.000 C 
ATOM      2  O   UNL     1      -1.195  11.540  20.070  0.00  0.00    +0.000 OA
ATOM      3  C   UNL     1      -0.590  10.349  19.569  0.00  0.00    +0.000 C 
ATOM      4  C   UNL     1       0.882  10.238  19.994  0.00  0.00    +0.000 C 
ATOM      5  C   UNL     1       1.025  10.519  21.495  0.00  0.00    +0.000 C 
ATOM      6  O   UNL     1       0.287  11.664  21.875  0.00  0.00    +0.000 OA
ENDROOT
BRANCH   4   7
ATOM      7  N   UNL     1       1.453   8.961  19.620  0.00  0.00    +0.000 N 
ATOM      8  C   UNL     1       1.985   8.745  18.360  0.00  0.00    +0.000 C 
ATOM      9  O   UNL     1       2.032   9.590  17.487  0.00  0.00    +0.000 OA
ATOM     10  H   UNL     1       1.368   8.191  20.272  0.00  0.00    +0.000 HD
BRANCH   8  11
ATOM     11  C   UNL     1       2.502   7.347  18.132  0.00  0.00    +0.000 C 
ATOM     12  C   UNL     1       2.506   6.572  19.451  0.00  0.00    +0.000 C 
ATOM     13  C   UNL     1       3.057   5.172  19.243  0.00  0.00    +0.000 C 
ATOM     14  N   UNL     1       4.402   5.222  18.648  0.00  0.00    +0.000 NA
ATOM     15  C   UNL     1       4.927   3.864  18.500  0.00  0.00    +0.000 C 
ATOM     16  C   UNL     1       4.393   5.904  17.344  0.00  0.00    +0.000 C 
ATOM     17  C   UNL     1       3.889   7.335  17.486  0.00  0.00    +0.000 C 
ENDBRANCH   8  11
ENDBRANCH   4   7
BRANCH   1  18
ATOM     18  C   UNL     1      -1.701  12.849  22.041  0.00  0.00    +0.000 C 
BRANCH  18  19
ATOM     19  C   UNL     1      -2.698  13.578  21.151  0.00  0.00    +0.000 C 
BRANCH  19  27
ATOM     20  C   UNL     1      -5.583  11.516  18.239  0.00  0.00    +0.000 A 
ATOM     21  C   UNL     1      -6.851  11.208  18.698  0.00  0.00    +0.000 A 
ATOM     22  C   UNL     1      -7.183  11.508  20.020  0.00  0.00    +0.000 A 
ATOM     23  C   UNL     1      -6.284  12.113  20.898  0.00  0.00    +0.000 A 
ATOM     24  N   UNL     1      -6.724  12.334  22.143  0.00  0.00    +0.000 NA
ATOM     25  C   UNL     1      -5.888  12.903  23.025  0.00  0.00    +0.000 A 
ATOM     26  C   UNL     1      -4.604  13.296  22.718  0.00  0.00    +0.000 A 
ATOM     27  C   UNL     1      -4.125  13.095  21.412  0.00  0.00    +0.000 A 
ATOM     28  C   UNL     1      -4.981  12.458  20.453  0.00  0.00    +0.000 A 
ATOM     29  C   UNL     1      -4.655  12.124  19.105  0.00  0.00    +0.000 A 
BRANCH  20  31
ATOM     30  C   UNL     1      -3.696  11.204  16.837  0.00  0.00    +0.000 C 
ATOM     31  O   UNL     1      -5.112  11.231  16.983  0.00  0.00    +0.000 OA
ENDBRANCH  20  31
ENDBRANCH  19  27
ENDBRANCH  18  19
ENDBRANCH   1  18
TORSDOF 6
ENDMDL
MODEL 7
REMARK VINA RESULT:      -7.8      2.257      3.635
REMARK  Name = 
REMARK  8 active torsions:
REMARK  status: ('A' for Active; 'I' for Inactive)
REMARK    1  A    between atoms: C_1  and  O_2
REMARK    2  A    between atoms: O_2  and  C_3
REMARK    3  A    between atoms: C_10  and  C_11
REMARK    4  A    between atoms: C_11  and  C_12
REMARK    5  A    between atoms: C_12  and  C_13
REMARK    6  A    between atoms: C_16  and  N_17
REMARK    7  A    between atoms: C_18  and  C_20
REMARK    8  A    between atoms: N_23  and  C_24
REMARK                            x       y       z     vdW  Elec       q    Type
REMARK                         _______ _______ _______ _____ _____    ______ ____
ROOT
ATOM      1  C   UNL     1       1.422   9.398  18.382  0.00  0.00    +0.000 C 
ATOM      2  O   UNL     1       0.130   9.588  17.819  0.00  0.00    +0.000 OA
ATOM      3  C   UNL     1      -0.523  10.672  18.476  0.00  0.00    +0.000 C 
ATOM      4  C   UNL     1      -0.631  10.437  19.990  0.00  0.00    +0.000 C 
ATOM      5  C   UNL     1       0.720   9.986  20.557  0.00  0.00    +0.000 C 
ATOM      6  O   UNL     1       1.307   8.985  19.748  0.00  0.00    +0.000 OA
ENDROOT
BRANCH   4   7
ATOM      7  N   UNL     1      -1.152  11.600  20.678  0.00  0.00    +0.000 N 
ATOM      8  C   UNL     1      -1.452  11.570  22.030  0.00  0.00    +0.000 C 
ATOM      9  O   UNL     1      -1.292  10.596  22.740  0.00  0.00    +0.000 OA
ATOM     10  H   UNL     1      -1.387  12.415  20.126  0.00  0.00    +0.000 HD
BRANCH   8  11
ATOM     11  C   UNL     1      -2.020  12.857  22.572  0.00  0.00    +0.000 C 
ATOM     12  C   UNL     1      -0.906  13.691  23.208  0.00  0.00    +0.000 C 
ATOM     13  C   UNL     1      -1.470  14.975  23.789  0.00  0.00    +0.000 C 
ATOM     14  N   UNL     1      -2.540  14.687  24.756  0.00  0.00    +0.000 NA
ATOM     15  C   UNL     1      -3.035  15.937  25.334  0.00  0.00    +0.000 C 
ATOM     16  C   UNL     1      -3.649  13.947  24.133  0.00  0.00    +0.000 C 
ATOM     17  C   UNL     1      -3.160  12.620  23.563  0.00  0.00    +0.000 C 
ENDBRANCH   8  11
ENDBRANCH   4   7
BRANCH   1  18
ATOM     18  C   UNL     1       2.125   8.223  17.715  0.00  0.00    +0.000 C 
BRANCH  18  19
ATOM     19  C   UNL     1       2.936   7.302  18.618  0.00  0.00    +0.000 C 
BRANCH  19  27
ATOM     20  C   UNL     1       2.318   2.781  19.097  0.00  0.00    +0.000 A 
ATOM     21  C   UNL     1       3.047   1.941  18.276  0.00  0.00    +0.000 A 
ATOM     22  C   UNL     1       3.906   2.499  17.328  0.00  0.00    +0.000 A 
ATOM     23  C   UNL     1       4.062   3.877  17.180  0.00  0.00    +0.000 A 
ATOM     24  N   UNL     1       4.908   4.282  16.224  0.00  0.00    +0.000 NA
ATOM     25  C   UNL     1       5.080   5.600  16.040  0.00  0.00    +0.000 A 
ATOM     26  C   UNL     1       4.451   6.567  16.793  0.00  0.00    +0.000 A 
ATOM     27  C   UNL     1       3.575   6.168  17.818  0.00  0.00    +0.000 A 
ATOM     28  C   UNL     1       3.342   4.767  18.020  0.00  0.00    +0.000 A 
ATOM     29  C   UNL     1       2.454   4.176  18.967  0.00  0.00    +0.000 A 
BRANCH  20  31
ATOM     30  C   UNL     1       1.292   3.175  21.198  0.00  0.00    +0.000 C 
ATOM     31  O   UNL     1       1.405   2.366  20.032  0.00  0.00    +0.000 OA
ENDBRANCH  20  31
ENDBRANCH  19  27
ENDBRANCH  18  19
ENDBRANCH   1  18
TORSDOF 6
ENDMDL
MODEL 8
REMARK VINA RESULT:      -7.8      1.297      1.523
REMARK  Name = 
REMARK  8 active torsions:
REMARK  status: ('A' for Active; 'I' for Inactive)
REMARK    1  A    between atoms: C_1  and  O_2
REMARK    2  A    between atoms: O_2  and  C_3
REMARK    3  A    between atoms: C_10  and  C_11
REMARK    4  A    between atoms: C_11  and  C_12
REMARK    5  A    between atoms: C_12  and  C_13
REMARK    6  A    between atoms: C_16  and  N_17
REMARK    7  A    between atoms: C_18  and  C_20
REMARK    8  A    between atoms: N_23  and  C_24
REMARK                            x       y       z     vdW  Elec       q    Type
REMARK                         _______ _______ _______ _____ _____    ______ ____
ROOT
ATOM      1  C   UNL     1       0.867   9.046  18.704  0.00  0.00    +0.000 C 
ATOM      2  O   UNL     1       1.381  10.104  19.505  0.00  0.00    +0.000 OA
ATOM      3  C   UNL     1       0.302  10.796  20.131  0.00  0.00    +0.000 C 
ATOM      4  C   UNL     1      -0.695  11.345  19.101  0.00  0.00    +0.000 C 
ATOM      5  C   UNL     1      -1.059  10.260  18.080  0.00  0.00    +0.000 C 
ATOM      6  O   UNL     1       0.095   9.579  17.623  0.00  0.00    +0.000 OA
ENDROOT
BRANCH   4   7
ATOM      7  N   UNL     1      -1.867  11.912  19.736  0.00  0.00    +0.000 N 
ATOM      8  C   UNL     1      -1.928  13.250  20.085  0.00  0.00    +0.000 C 
ATOM      9  O   UNL     1      -1.034  14.049  19.878  0.00  0.00    +0.000 OA
ATOM     10  H   UNL     1      -2.610  11.283  20.012  0.00  0.00    +0.000 HD
BRANCH   8  11
ATOM     11  C   UNL     1      -3.207  13.659  20.771  0.00  0.00    +0.000 C 
ATOM     12  C   UNL     1      -2.949  13.885  22.262  0.00  0.00    +0.000 C 
ATOM     13  C   UNL     1      -4.236  14.264  22.972  0.00  0.00    +0.000 C 
ATOM     14  N   UNL     1      -5.272  13.241  22.759  0.00  0.00    +0.000 NA
ATOM     15  C   UNL     1      -6.486  13.607  23.490  0.00  0.00    +0.000 C 
ATOM     16  C   UNL     1      -5.577  13.069  21.330  0.00  0.00    +0.000 C 
ATOM     17  C   UNL     1      -4.333  12.645  20.558  0.00  0.00    +0.000 C 
ENDBRANCH   8  11
ENDBRANCH   4   7
BRANCH   1  18
ATOM     18  C   UNL     1       2.001   8.313  18.000  0.00  0.00    +0.000 C 
BRANCH  18  19
ATOM     19  C   UNL     1       2.849   7.376  18.850  0.00  0.00    +0.000 C 
BRANCH  19  27
ATOM     20  C   UNL     1       6.571   6.006  16.544  0.00  0.00    +0.000 A 
ATOM     21  C   UNL     1       6.534   4.762  15.940  0.00  0.00    +0.000 A 
ATOM     22  C   UNL     1       5.389   3.976  16.082  0.00  0.00    +0.000 A 
ATOM     23  C   UNL     1       4.276   4.399  16.808  0.00  0.00    +0.000 A 
ATOM     24  N   UNL     1       3.249   3.544  16.878  0.00  0.00    +0.000 NA
ATOM     25  C   UNL     1       2.162   3.906  17.577  0.00  0.00    +0.000 A 
ATOM     26  C   UNL     1       2.030   5.121  18.212  0.00  0.00    +0.000 A 
ATOM     27  C   UNL     1       3.086   6.046  18.136  0.00  0.00    +0.000 A 
ATOM     28  C   UNL     1       4.276   5.678  17.425  0.00  0.00    +0.000 A 
ATOM     29  C   UNL     1       5.463   6.456  17.285  0.00  0.00    +0.000 A 
BRANCH  20  31
ATOM     30  C   UNL     1       7.722   7.794  17.592  0.00  0.00    +0.000 C 
ATOM     31  O   UNL     1       7.648   6.854  16.525  0.00  0.00    +0.000 OA
ENDBRANCH  20  31
ENDBRANCH  19  27
ENDBRANCH  18  19
ENDBRANCH   1  18
TORSDOF 6
ENDMDL
MODEL 9
REMARK VINA RESULT:      -7.8      1.154      1.352
REMARK  Name = 
REMARK  8 active torsions:
REMARK  status: ('A' for Active; 'I' for Inactive)
REMARK    1  A    between atoms: C_1  and  O_2
REMARK    2  A    between atoms: O_2  and  C_3
REMARK    3  A    between atoms: C_10  and  C_11
REMARK    4  A    between atoms: C_11  and  C_12
REMARK    5  A    between atoms: C_12  and  C_13
REMARK    6  A    between atoms: C_16  and  N_17
REMARK    7  A    between atoms: C_18  and  C_20
REMARK    8  A    between atoms: N_23  and  C_24
REMARK                            x       y       z     vdW  Elec       q    Type
REMARK                         _______ _______ _______ _____ _____    ______ ____
ROOT
ATOM      1  C   UNL     1       0.815   8.788  19.764  0.00  0.00    +0.000 C 
ATOM      2  O   UNL     1       0.811   8.388  21.129  0.00  0.00    +0.000 OA
ATOM      3  C   UNL     1      -0.255   9.041  21.815  0.00  0.00    +0.000 C 
ATOM      4  C   UNL     1      -0.147  10.569  21.709  0.00  0.00    +0.000 C 
ATOM      5  C   UNL     1       0.109  10.986  20.256  0.00  0.00    +0.000 C 
ATOM      6  O   UNL     1       1.113  10.185  19.662  0.00  0.00    +0.000 OA
ENDROOT
BRANCH   4   7
ATOM      7  N   UNL     1      -1.307  11.230  22.270  0.00  0.00    +0.000 N 
ATOM      8  C   UNL     1      -1.212  12.467  22.884  0.00  0.00    +0.000 C 
ATOM      9  O   UNL     1      -0.177  13.097  22.988  0.00  0.00    +0.000 OA
ATOM     10  H   UNL     1      -2.181  10.721  22.292  0.00  0.00    +0.000 HD
BRANCH   8  11
ATOM     11  C   UNL     1      -2.512  12.987  23.445  0.00  0.00    +0.000 C 
ATOM     12  C   UNL     1      -3.654  12.692  22.472  0.00  0.00    +0.000 C 
ATOM     13  C   UNL     1      -4.964  13.242  23.008  0.00  0.00    +0.000 C 
ATOM     14  N   UNL     1      -4.854  14.683  23.282  0.00  0.00    +0.000 NA
ATOM     15  C   UNL     1      -6.141  15.196  23.754  0.00  0.00    +0.000 C 
ATOM     16  C   UNL     1      -3.804  14.968  24.273  0.00  0.00    +0.000 C 
ATOM     17  C   UNL     1      -2.448  14.479  23.778  0.00  0.00    +0.000 C 
ENDBRANCH   8  11
ENDBRANCH   4   7
BRANCH   1  18
ATOM     18  C   UNL     1       1.967   8.126  19.019  0.00  0.00    +0.000 C 
BRANCH  18  19
ATOM     19  C   UNL     1       2.658   6.960  19.713  0.00  0.00    +0.000 C 
BRANCH  19  27
ATOM     20  C   UNL     1       6.016   6.318  16.652  0.00  0.00    +0.000 A 
ATOM     21  C   UNL     1       5.957   5.188  15.858  0.00  0.00    +0.000 A 
ATOM     22  C   UNL     1       4.906   4.287  16.042  0.00  0.00    +0.000 A 
ATOM     23  C   UNL     1       3.907   4.487  16.994  0.00  0.00    +0.000 A 
ATOM     24  N   UNL     1       2.964   3.540  17.077  0.00  0.00    +0.000 NA
ATOM     25  C   UNL     1       1.990   3.686  17.988  0.00  0.00    +0.000 A 
ATOM     26  C   UNL     1       1.890   4.768  18.835  0.00  0.00    +0.000 A 
ATOM     27  C   UNL     1       2.855   5.787  18.754  0.00  0.00    +0.000 A 
ATOM     28  C   UNL     1       3.929   5.646  17.813  0.00  0.00    +0.000 A 
ATOM     29  C   UNL     1       5.023   6.542  17.624  0.00  0.00    +0.000 A 
BRANCH  20  31
ATOM     30  C   UNL     1       7.741   7.449  17.821  0.00  0.00    +0.000 C 
ATOM     31  O   UNL     1       7.017   7.254  16.611  0.00  0.00    +0.000 OA
ENDBRANCH  20  31
ENDBRANCH  19  27
ENDBRANCH  18  19
ENDBRANCH   1  18
TORSDOF 6
ENDMDL
