MODEL 1
REMARK VINA RESULT:      -8.3      0.000      0.000
REMARK  Name = 
REMARK  4 active torsions:
REMARK  status: ('A' for Active; 'I' for Inactive)
REMARK    1  A    between atoms: N_3  and  C_4
REMARK    2  A    between atoms: C_4  and  C_5
REMARK    3  A    between atoms: C_16  and  C_17
REMARK    4  A    between atoms: C_20  and  C_21
REMARK                            x       y       z     vdW  Elec       q    Type
REMARK                         _______ _______ _______ _____ _____    ______ ____
ROOT
ATOM      1  O   UNL     1       4.739   6.543  16.307  0.00  0.00    +0.000 OA
ATOM      2  C   UNL     1       5.019   5.588  17.028  0.00  0.00    +0.000 C 
ATOM      3  N   UNL     1       6.247   4.987  16.988  0.00  0.00    +0.000 N 
ATOM      4  N   UNL     1       4.125   5.071  17.950  0.00  0.00    +0.000 N 
ATOM      5  C   UNL     1       4.403   3.998  18.912  0.00  0.00    +0.000 C 
ATOM      6  C   UNL     1       3.544   2.767  18.633  0.00  0.00    +0.000 C 
ATOM      7  C   UNL     1       2.064   3.098  18.444  0.00  0.00    +0.000 C 
ATOM      8  C   UNL     1       1.846   4.292  17.510  0.00  0.00    +0.000 C 
ATOM      9  C   UNL     1       2.719   5.505  17.878  0.00  0.00    +0.000 C 
ATOM     10  H   UNL     1       6.251   3.994  17.157  0.00  0.00    +0.000 HD
ENDROOT
BRANCH   9  11
ATOM     11  C   UNL     1       2.279   6.175  19.150  0.00  0.00    +0.000 A 
ATOM     12  N   UNL     1       2.123   5.630  20.341  0.00  0.00    +0.000 NA
ATOM     13  N   UNL     1       1.656   6.592  21.201  0.00  0.00    +0.000 NA
ATOM     14  C   UNL     1       1.516   7.718  20.527  0.00  0.00    +0.000 A 
ATOM     15  N   UNL     1       1.915   7.494  19.232  0.00  0.00    +0.000 N 
ATOM     16  H   UNL     1       1.919   8.182  18.490  0.00  0.00    +0.000 HD
BRANCH  14  17
ATOM     17  C   UNL     1       1.023   8.994  21.014  0.00  0.00    +0.000 A 
ATOM     18  C   UNL     1       0.740   9.219  22.358  0.00  0.00    +0.000 A 
ATOM     19  N   UNL     1       0.260  10.404  22.819  0.00  0.00    +0.000 NA
ATOM     20  C   UNL     1       0.070  11.354  21.877  0.00  0.00    +0.000 A 
ATOM     21  C   UNL     1       0.353  11.135  20.538  0.00  0.00    +0.000 A 
ATOM     22  N   UNL     1       0.837   9.957  20.072  0.00  0.00    +0.000 NA
ENDBRANCH  14  17
ENDBRANCH   9  11
BRANCH   3  23
ATOM     23  C   UNL     1       7.258   5.426  16.044  0.00  0.00    +0.000 C 
BRANCH  23  24
ATOM     24  C   UNL     1       7.029   4.843  14.673  0.00  0.00    +0.000 A 
ATOM     25  C   UNL     1       6.055   3.856  14.461  0.00  0.00    +0.000 A 
ATOM     26  C   UNL     1       5.820   3.348  13.182  0.00  0.00    +0.000 A 
ATOM     27  C   UNL     1       6.558   3.821  12.095  0.00  0.00    +0.000 A 
ATOM     28  C   UNL     1       7.525   4.807  12.288  0.00  0.00    +0.000 A 
ATOM     29  C   UNL     1       7.757   5.314  13.567  0.00  0.00    +0.000 A 
ENDBRANCH  23  24
ENDBRANCH   3  23
TORSDOF 4
ENDMDL
MODEL 2
REMARK VINA RESULT:      -8.2      4.292      7.253
REMARK  Name = 
REMARK  4 active torsions:
REMARK  status: ('A' for Active; 'I' for Inactive)
REMARK    1  A    between atoms: N_3  and  C_4
REMARK    2  A    between atoms: C_4  and  C_5
REMARK    3  A    between atoms: C_16  and  C_17
REMARK    4  A    between atoms: C_20  and  C_21
REMARK                            x       y       z     vdW  Elec       q    Type
REMARK                         _______ _______ _______ _____ _____    ______ ____
ROOT
ATOM      1  O   UNL     1       1.473   8.813  18.549  0.00  0.00    +0.000 OA
ATOM      2  C   UNL     1       1.614   8.601  19.751  0.00  0.00    +0.000 C 
ATOM      3  N   UNL     1       2.183   7.449  20.221  0.00  0.00    +0.000 N 
ATOM      4  N   UNL     1       1.235   9.522  20.714  0.00  0.00    +0.000 N 
ATOM      5  C   UNL     1       1.449   9.393  22.160  0.00  0.00    +0.000 C 
ATOM      6  C   UNL     1       0.123   9.310  22.911  0.00  0.00    +0.000 C 
ATOM      7  C   UNL     1      -0.872  10.395  22.498  0.00  0.00    +0.000 C 
ATOM      8  C   UNL     1      -0.972  10.549  20.977  0.00  0.00    +0.000 C 
ATOM      9  C   UNL     1       0.404  10.665  20.297  0.00  0.00    +0.000 C 
ATOM     10  H   UNL     1       1.815   7.108  21.095  0.00  0.00    +0.000 HD
ENDROOT
BRANCH   9  11
ATOM     11  C   UNL     1       1.084  11.976  20.577  0.00  0.00    +0.000 A 
ATOM     12  N   UNL     1       0.963  12.739  21.646  0.00  0.00    +0.000 NA
ATOM     13  N   UNL     1       1.719  13.870  21.460  0.00  0.00    +0.000 NA
ATOM     14  C   UNL     1       2.287  13.798  20.271  0.00  0.00    +0.000 A 
ATOM     15  N   UNL     1       1.919  12.608  19.691  0.00  0.00    +0.000 N 
ATOM     16  H   UNL     1       2.208  12.283  18.779  0.00  0.00    +0.000 HD
BRANCH  14  17
ATOM     17  C   UNL     1       3.148  14.778  19.632  0.00  0.00    +0.000 A 
ATOM     18  C   UNL     1       3.115  16.128  19.968  0.00  0.00    +0.000 A 
ATOM     19  N   UNL     1       3.904  17.054  19.362  0.00  0.00    +0.000 NA
ATOM     20  C   UNL     1       4.723  16.573  18.402  0.00  0.00    +0.000 A 
ATOM     21  C   UNL     1       4.761  15.229  18.067  0.00  0.00    +0.000 A 
ATOM     22  N   UNL     1       3.981  14.298  18.670  0.00  0.00    +0.000 NA
ENDBRANCH  14  17
ENDBRANCH   9  11
BRANCH   3  23
ATOM     23  C   UNL     1       2.596   6.399  19.308  0.00  0.00    +0.000 C 
BRANCH  23  24
ATOM     24  C   UNL     1       2.147   5.040  19.783  0.00  0.00    +0.000 A 
ATOM     25  C   UNL     1       2.310   4.653  21.121  0.00  0.00    +0.000 A 
ATOM     26  C   UNL     1       1.858   3.409  21.564  0.00  0.00    +0.000 A 
ATOM     27  C   UNL     1       1.233   2.534  20.673  0.00  0.00    +0.000 A 
ATOM     28  C   UNL     1       1.057   2.907  19.341  0.00  0.00    +0.000 A 
ATOM     29  C   UNL     1       1.510   4.151  18.901  0.00  0.00    +0.000 A 
ENDBRANCH  23  24
ENDBRANCH   3  23
TORSDOF 4
ENDMDL
MODEL 3
REMARK VINA RESULT:      -8.1      4.010      7.266
REMARK  Name = 
REMARK  4 active torsions:
REMARK  status: ('A' for Active; 'I' for Inactive)
REMARK    1  A    between atoms: N_3  and  C_4
REMARK    2  A    between atoms: C_4  and  C_5
REMARK    3  A    between atoms: C_16  and  C_17
REMARK    4  A    between atoms: C_20  and  C_21
REMARK                            x       y       z     vdW  Elec       q    Type
REMARK                         _______ _______ _______ _____ _____    ______ ____
ROOT
ATOM      1  O   UNL     1       1.905   8.981  17.303  0.00  0.00    +0.000 OA
ATOM      2  C   UNL     1       1.777   8.932  18.524  0.00  0.00    +0.000 C 
ATOM      3  N   UNL     1       2.226   7.869  19.258  0.00  0.00    +0.000 N 
ATOM      4  N   UNL     1       1.196   9.960  19.248  0.00  0.00    +0.000 N 
ATOM      5  C   UNL     1       1.085  10.029  20.710  0.00  0.00    +0.000 C 
ATOM      6  C   UNL     1      -0.374  10.007  21.156  0.00  0.00    +0.000 C 
ATOM      7  C   UNL     1      -1.252  10.999  20.394  0.00  0.00    +0.000 C 
ATOM      8  C   UNL     1      -1.013  10.949  18.881  0.00  0.00    +0.000 C 
ATOM      9  C   UNL     1       0.479  11.015  18.509  0.00  0.00    +0.000 C 
ATOM     10  H   UNL     1       1.675   7.635  20.067  0.00  0.00    +0.000 HD
ENDROOT
BRANCH   9  11
ATOM     11  C   UNL     1       1.081  12.370  18.753  0.00  0.00    +0.000 A 
ATOM     12  N   UNL     1       2.245  12.652  19.308  0.00  0.00    +0.000 NA
ATOM     13  N   UNL     1       2.371  14.017  19.382  0.00  0.00    +0.000 NA
ATOM     14  C   UNL     1       1.276  14.562  18.883  0.00  0.00    +0.000 A 
ATOM     15  N   UNL     1       0.447  13.551  18.463  0.00  0.00    +0.000 N 
ATOM     16  H   UNL     1      -0.461  13.674  18.036  0.00  0.00    +0.000 HD
BRANCH  14  17
ATOM     17  C   UNL     1       0.949  15.974  18.783  0.00  0.00    +0.000 A 
ATOM     18  C   UNL     1       1.890  16.974  19.008  0.00  0.00    +0.000 A 
ATOM     19  N   UNL     1       1.586  18.296  18.934  0.00  0.00    +0.000 NA
ATOM     20  C   UNL     1       0.301  18.576  18.630  0.00  0.00    +0.000 A 
ATOM     21  C   UNL     1      -0.639  17.583  18.402  0.00  0.00    +0.000 A 
ATOM     22  N   UNL     1      -0.343  16.262  18.469  0.00  0.00    +0.000 NA
ENDBRANCH  14  17
ENDBRANCH   9  11
BRANCH   3  23
ATOM     23  C   UNL     1       2.830   6.720  18.607  0.00  0.00    +0.000 C 
BRANCH  23  24
ATOM     24  C   UNL     1       2.142   5.436  18.995  0.00  0.00    +0.000 A 
ATOM     25  C   UNL     1       1.851   4.455  18.035  0.00  0.00    +0.000 A 
ATOM     26  C   UNL     1       1.249   3.251  18.406  0.00  0.00    +0.000 A 
ATOM     27  C   UNL     1       0.930   3.011  19.744  0.00  0.00    +0.000 A 
ATOM     28  C   UNL     1       1.220   3.973  20.711  0.00  0.00    +0.000 A 
ATOM     29  C   UNL     1       1.822   5.175  20.338  0.00  0.00    +0.000 A 
ENDBRANCH  23  24
ENDBRANCH   3  23
TORSDOF 4
ENDMDL
MODEL 4
REMARK VINA RESULT:      -8.1      3.998      7.193
REMARK  Name = 
REMARK  4 active torsions:
REMARK  status: ('A' for Active; 'I' for Inactive)
REMARK    1  A    between atoms: N_3  and  C_4
REMARK    2  A    between atoms: C_4  and  C_5
REMARK    3  A    between atoms: C_16  and  C_17
REMARK    4  A    between atoms: C_20  and  C_21
REMARK                            x       y       z     vdW  Elec       q    Type
REMARK                         _______ _______ _______ _____ _____    ______ ____
ROOT
ATOM      1  O   UNL     1       2.027   8.923  17.278  0.00  0.00    +0.000 OA
ATOM      2  C   UNL     1       1.834   8.883  18.492  0.00  0.00    +0.000 C 
ATOM      3  N   UNL     1       2.240   7.822  19.255  0.00  0.00    +0.000 N 
ATOM      4  N   UNL     1       1.219   9.917  19.177  0.00  0.00    +0.000 N 
ATOM      5  C   UNL     1       1.031   9.996  20.630  0.00  0.00    +0.000 C 
ATOM      6  C   UNL     1      -0.451   9.981  20.999  0.00  0.00    +0.000 C 
ATOM      7  C   UNL     1      -1.283  10.971  20.184  0.00  0.00    +0.000 C 
ATOM      8  C   UNL     1      -0.965  10.911  18.687  0.00  0.00    +0.000 C 
ATOM      9  C   UNL     1       0.545  10.969  18.394  0.00  0.00    +0.000 C 
ATOM     10  H   UNL     1       1.646   7.595  20.035  0.00  0.00    +0.000 HD
ENDROOT
BRANCH   9  11
ATOM     11  C   UNL     1       1.139  12.324  18.661  0.00  0.00    +0.000 A 
ATOM     12  N   UNL     1       0.509  13.478  18.766  0.00  0.00    +0.000 NA
ATOM     13  N   UNL     1       1.442  14.467  18.957  0.00  0.00    +0.000 NA
ATOM     14  C   UNL     1       2.640  13.912  18.954  0.00  0.00    +0.000 A 
ATOM     15  N   UNL     1       2.484  12.557  18.784  0.00  0.00    +0.000 N 
ATOM     16  H   UNL     1       3.233  11.879  18.746  0.00  0.00    +0.000 HD
BRANCH  14  17
ATOM     17  C   UNL     1       3.928  14.569  19.090  0.00  0.00    +0.000 A 
ATOM     18  C   UNL     1       4.778  14.771  18.008  0.00  0.00    +0.000 A 
ATOM     19  N   UNL     1       5.993  15.368  18.131  0.00  0.00    +0.000 NA
ATOM     20  C   UNL     1       6.323  15.751  19.383  0.00  0.00    +0.000 A 
ATOM     21  C   UNL     1       5.477  15.555  20.463  0.00  0.00    +0.000 A 
ATOM     22  N   UNL     1       4.262  14.964  20.348  0.00  0.00    +0.000 NA
ENDBRANCH  14  17
ENDBRANCH   9  11
BRANCH   3  23
ATOM     23  C   UNL     1       2.873   6.668  18.644  0.00  0.00    +0.000 C 
BRANCH  23  24
ATOM     24  C   UNL     1       2.164   5.388  19.006  0.00  0.00    +0.000 A 
ATOM     25  C   UNL     1       1.860   4.430  18.028  0.00  0.00    +0.000 A 
ATOM     26  C   UNL     1       1.238   3.229  18.374  0.00  0.00    +0.000 A 
ATOM     27  C   UNL     1       0.911   2.969  19.707  0.00  0.00    +0.000 A 
ATOM     28  C   UNL     1       1.213   3.909  20.692  0.00  0.00    +0.000 A 
ATOM     29  C   UNL     1       1.836   5.108  20.343  0.00  0.00    +0.000 A 
ENDBRANCH  23  24
ENDBRANCH   3  23
TORSDOF 4
ENDMDL
MODEL 5
REMARK VINA RESULT:      -8.0      4.012      7.144
REMARK  Name = 
REMARK  4 active torsions:
REMARK  status: ('A' for Active; 'I' for Inactive)
REMARK    1  A    between atoms: N_3  and  C_4
REMARK    2  A    between atoms: C_4  and  C_5
REMARK    3  A    between atoms: C_16  and  C_17
REMARK    4  A    between atoms: C_20  and  C_21
REMARK                            x       y       z     vdW  Elec       q    Type
REMARK                         _______ _______ _______ _____ _____    ______ ____
ROOT
ATOM      1  O   UNL     1       1.404   9.139  18.178  0.00  0.00    +0.000 OA
ATOM      2  C   UNL     1       1.574   8.824  19.354  0.00  0.00    +0.000 C 
ATOM      3  N   UNL     1       2.130   7.626  19.710  0.00  0.00    +0.000 N 
ATOM      4  N   UNL     1       1.244   9.669  20.401  0.00  0.00    +0.000 N 
ATOM      5  C   UNL     1       1.496   9.416  21.824  0.00  0.00    +0.000 C 
ATOM      6  C   UNL     1       0.190   9.296  22.605  0.00  0.00    +0.000 C 
ATOM      7  C   UNL     1      -0.792  10.431  22.314  0.00  0.00    +0.000 C 
ATOM      8  C   UNL     1      -0.931  10.714  20.815  0.00  0.00    +0.000 C 
ATOM      9  C   UNL     1       0.427  10.859  20.105  0.00  0.00    +0.000 C 
ATOM     10  H   UNL     1       1.781   7.220  20.562  0.00  0.00    +0.000 HD
ENDROOT
BRANCH   9  11
ATOM     11  C   UNL     1       1.143  12.129  20.472  0.00  0.00    +0.000 A 
ATOM     12  N   UNL     1       1.027  12.833  21.582  0.00  0.00    +0.000 NA
ATOM     13  N   UNL     1       1.823  13.947  21.474  0.00  0.00    +0.000 NA
ATOM     14  C   UNL     1       2.411  13.923  20.293  0.00  0.00    +0.000 A 
ATOM     15  N   UNL     1       2.016  12.781  19.640  0.00  0.00    +0.000 N 
ATOM     16  H   UNL     1       2.312  12.500  18.715  0.00  0.00    +0.000 HD
BRANCH  14  17
ATOM     17  C   UNL     1       3.316  14.909  19.727  0.00  0.00    +0.000 A 
ATOM     18  C   UNL     1       3.181  16.271  19.976  0.00  0.00    +0.000 A 
ATOM     19  N   UNL     1       4.012  17.201  19.435  0.00  0.00    +0.000 NA
ATOM     20  C   UNL     1       4.980  16.710  18.631  0.00  0.00    +0.000 A 
ATOM     21  C   UNL     1       5.119  15.354  18.384  0.00  0.00    +0.000 A 
ATOM     22  N   UNL     1       4.298  14.420  18.923  0.00  0.00    +0.000 NA
ENDBRANCH  14  17
ENDBRANCH   9  11
BRANCH   3  23
ATOM     23  C   UNL     1       2.494   6.648  18.701  0.00  0.00    +0.000 C 
BRANCH  23  24
ATOM     24  C   UNL     1       1.971   5.276  19.042  0.00  0.00    +0.000 A 
ATOM     25  C   UNL     1       1.845   4.286  18.057  0.00  0.00    +0.000 A 
ATOM     26  C   UNL     1       1.397   3.005  18.385  0.00  0.00    +0.000 A 
ATOM     27  C   UNL     1       1.069   2.696  19.707  0.00  0.00    +0.000 A 
ATOM     28  C   UNL     1       1.196   3.667  20.699  0.00  0.00    +0.000 A 
ATOM     29  C   UNL     1       1.644   4.946  20.368  0.00  0.00    +0.000 A 
ENDBRANCH  23  24
ENDBRANCH   3  23
TORSDOF 4
ENDMDL
MODEL 6
REMARK VINA RESULT:      -8.0      3.989      7.119
REMARK  Name = 
REMARK  4 active torsions:
REMARK  status: ('A' for Active; 'I' for Inactive)
REMARK    1  A    between atoms: N_3  and  C_4
REMARK    2  A    between atoms: C_4  and  C_5
REMARK    3  A    between atoms: C_16  and  C_17
REMARK    4  A    between atoms: C_20  and  C_21
REMARK                            x       y       z     vdW  Elec       q    Type
REMARK                         _______ _______ _______ _____ _____    ______ ____
ROOT
ATOM      1  O   UNL     1       1.872   8.955  17.266  0.00  0.00    +0.000 OA
ATOM      2  C   UNL     1       1.760   8.903  18.489  0.00  0.00    +0.000 C 
ATOM      3  N   UNL     1       2.229   7.842  19.214  0.00  0.00    +0.000 N 
ATOM      4  N   UNL     1       1.180   9.924  19.222  0.00  0.00    +0.000 N 
ATOM      5  C   UNL     1       1.088   9.989  20.685  0.00  0.00    +0.000 C 
ATOM      6  C   UNL     1      -0.365   9.952  21.152  0.00  0.00    +0.000 C 
ATOM      7  C   UNL     1      -1.262  10.938  20.403  0.00  0.00    +0.000 C 
ATOM      8  C   UNL     1      -1.043  10.893  18.887  0.00  0.00    +0.000 C 
ATOM      9  C   UNL     1       0.443  10.973  18.496  0.00  0.00    +0.000 C 
ATOM     10  H   UNL     1       1.691   7.601  20.030  0.00  0.00    +0.000 HD
ENDROOT
BRANCH   9  11
ATOM     11  C   UNL     1       1.036  12.334  18.734  0.00  0.00    +0.000 A 
ATOM     12  N   UNL     1       0.411  13.495  18.772  0.00  0.00    +0.000 NA
ATOM     13  N   UNL     1       1.344  14.484  18.961  0.00  0.00    +0.000 NA
ATOM     14  C   UNL     1       2.537  13.922  19.025  0.00  0.00    +0.000 A 
ATOM     15  N   UNL     1       2.378  12.563  18.899  0.00  0.00    +0.000 N 
ATOM     16  H   UNL     1       3.123  11.880  18.915  0.00  0.00    +0.000 HD
BRANCH  14  17
ATOM     17  C   UNL     1       3.824  14.576  19.185  0.00  0.00    +0.000 A 
ATOM     18  C   UNL     1       4.264  15.062  20.412  0.00  0.00    +0.000 A 
ATOM     19  N   UNL     1       5.458  15.692  20.567  0.00  0.00    +0.000 NA
ATOM     20  C   UNL     1       6.192  15.819  19.440  0.00  0.00    +0.000 A 
ATOM     21  C   UNL     1       5.759  15.333  18.216  0.00  0.00    +0.000 A 
ATOM     22  N   UNL     1       4.571  14.699  18.055  0.00  0.00    +0.000 NA
ENDBRANCH  14  17
ENDBRANCH   9  11
BRANCH   3  23
ATOM     23  C   UNL     1       2.834   6.701  18.552  0.00  0.00    +0.000 C 
BRANCH  23  24
ATOM     24  C   UNL     1       2.185   5.406  18.971  0.00  0.00    +0.000 A 
ATOM     25  C   UNL     1       1.832   5.175  20.308  0.00  0.00    +0.000 A 
ATOM     26  C   UNL     1       1.196   3.990  20.684  0.00  0.00    +0.000 A 
ATOM     27  C   UNL     1       0.901   3.020  19.724  0.00  0.00    +0.000 A 
ATOM     28  C   UNL     1       1.239   3.238  18.389  0.00  0.00    +0.000 A 
ATOM     29  C   UNL     1       1.874   4.423  18.016  0.00  0.00    +0.000 A 
ENDBRANCH  23  24
ENDBRANCH   3  23
TORSDOF 4
ENDMDL
MODEL 7
REMARK VINA RESULT:      -8.0      4.063      7.174
REMARK  Name = 
REMARK  4 active torsions:
REMARK  status: ('A' for Active; 'I' for Inactive)
REMARK    1  A    between atoms: N_3  and  C_4
REMARK    2  A    between atoms: C_4  and  C_5
REMARK    3  A    between atoms: C_16  and  C_17
REMARK    4  A    between atoms: C_20  and  C_21
REMARK                            x       y       z     vdW  Elec       q    Type
REMARK                         _______ _______ _______ _____ _____    ______ ____
ROOT
ATOM      1  O   UNL     1       1.235   9.169  18.286  0.00  0.00    +0.000 OA
ATOM      2  C   UNL     1       1.493   8.851  19.445  0.00  0.00    +0.000 C 
ATOM      3  N   UNL     1       2.102   7.666  19.753  0.00  0.00    +0.000 N 
ATOM      4  N   UNL     1       1.213   9.680  20.519  0.00  0.00    +0.000 N 
ATOM      5  C   UNL     1       1.567   9.425  21.920  0.00  0.00    +0.000 C 
ATOM      6  C   UNL     1       0.321   9.266  22.787  0.00  0.00    +0.000 C 
ATOM      7  C   UNL     1      -0.707  10.377  22.572  0.00  0.00    +0.000 C 
ATOM      8  C   UNL     1      -0.955  10.665  21.088  0.00  0.00    +0.000 C 
ATOM      9  C   UNL     1       0.347  10.851  20.289  0.00  0.00    +0.000 C 
ATOM     10  H   UNL     1       1.822   7.246  20.624  0.00  0.00    +0.000 HD
ENDROOT
BRANCH   9  11
ATOM     11  C   UNL     1       1.054  12.136  20.617  0.00  0.00    +0.000 A 
ATOM     12  N   UNL     1       0.837  12.943  21.638  0.00  0.00    +0.000 NA
ATOM     13  N   UNL     1       1.670  14.028  21.519  0.00  0.00    +0.000 NA
ATOM     14  C   UNL     1       2.383  13.884  20.417  0.00  0.00    +0.000 A 
ATOM     15  N   UNL     1       2.029  12.693  19.830  0.00  0.00    +0.000 N 
ATOM     16  H   UNL     1       2.417  12.321  18.974  0.00  0.00    +0.000 HD
BRANCH  14  17
ATOM     17  C   UNL     1       3.371  14.796  19.868  0.00  0.00    +0.000 A 
ATOM     18  C   UNL     1       3.908  14.633  18.595  0.00  0.00    +0.000 A 
ATOM     19  N   UNL     1       4.847  15.472  18.082  0.00  0.00    +0.000 NA
ATOM     20  C   UNL     1       5.227  16.478  18.898  0.00  0.00    +0.000 A 
ATOM     21  C   UNL     1       4.691  16.646  20.165  0.00  0.00    +0.000 A 
ATOM     22  N   UNL     1       3.752  15.817  20.682  0.00  0.00    +0.000 NA
ENDBRANCH  14  17
ENDBRANCH   9  11
BRANCH   3  23
ATOM     23  C   UNL     1       2.421   6.704  18.714  0.00  0.00    +0.000 C 
BRANCH  23  24
ATOM     24  C   UNL     1       1.954   5.317  19.077  0.00  0.00    +0.000 A 
ATOM     25  C   UNL     1       1.645   4.983  20.403  0.00  0.00    +0.000 A 
ATOM     26  C   UNL     1       1.176   3.709  20.728  0.00  0.00    +0.000 A 
ATOM     27  C   UNL     1       1.007   2.750  19.727  0.00  0.00    +0.000 A 
ATOM     28  C   UNL     1       1.303   3.068  18.402  0.00  0.00    +0.000 A 
ATOM     29  C   UNL     1       1.771   4.343  18.081  0.00  0.00    +0.000 A 
ENDBRANCH  23  24
ENDBRANCH   3  23
TORSDOF 4
ENDMDL
MODEL 8
REMARK VINA RESULT:      -8.0      3.655      6.834
REMARK  Name = 
REMARK  4 active torsions:
REMARK  status: ('A' for Active; 'I' for Inactive)
REMARK    1  A    between atoms: N_3  and  C_4
REMARK    2  A    between atoms: C_4  and  C_5
REMARK    3  A    between atoms: C_16  and  C_17
REMARK    4  A    between atoms: C_20  and  C_21
REMARK                            x       y       z     vdW  Elec       q    Type
REMARK                         _______ _______ _______ _____ _____    ______ ____
ROOT
ATOM      1  O   UNL     1       2.058   8.997  17.494  0.00  0.00    +0.000 OA
ATOM      2  C   UNL     1       1.890   8.638  18.658  0.00  0.00    +0.000 C 
ATOM      3  N   UNL     1       2.217   7.379  19.082  0.00  0.00    +0.000 N 
ATOM      4  N   UNL     1       1.387   9.488  19.628  0.00  0.00    +0.000 N 
ATOM      5  C   UNL     1       1.240   9.177  21.055  0.00  0.00    +0.000 C 
ATOM      6  C   UNL     1      -0.228   9.179  21.474  0.00  0.00    +0.000 C 
ATOM      7  C   UNL     1      -0.987  10.419  21.002  0.00  0.00    +0.000 C 
ATOM      8  C   UNL     1      -0.710  10.750  19.532  0.00  0.00    +0.000 C 
ATOM      9  C   UNL     1       0.792  10.766  19.196  0.00  0.00    +0.000 C 
ATOM     10  H   UNL     1       1.623   6.993  19.797  0.00  0.00    +0.000 HD
ENDROOT
BRANCH   9  11
ATOM     11  C   UNL     1       1.511  11.942  19.795  0.00  0.00    +0.000 A 
ATOM     12  N   UNL     1       1.447  12.385  21.036  0.00  0.00    +0.000 NA
ATOM     13  N   UNL     1       2.220  13.515  21.134  0.00  0.00    +0.000 NA
ATOM     14  C   UNL     1       2.742  13.764  19.948  0.00  0.00    +0.000 A 
ATOM     15  N   UNL     1       2.326  12.783  19.081  0.00  0.00    +0.000 N 
ATOM     16  H   UNL     1       2.575  12.717  18.104  0.00  0.00    +0.000 HD
BRANCH  14  17
ATOM     17  C   UNL     1       3.600  14.872  19.566  0.00  0.00    +0.000 A 
ATOM     18  C   UNL     1       3.244  15.782  18.574  0.00  0.00    +0.000 A 
ATOM     19  N   UNL     1       4.050  16.810  18.198  0.00  0.00    +0.000 NA
ATOM     20  C   UNL     1       5.229  16.887  18.853  0.00  0.00    +0.000 A 
ATOM     21  C   UNL     1       5.586  15.984  19.843  0.00  0.00    +0.000 A 
ATOM     22  N   UNL     1       4.785  14.960  20.227  0.00  0.00    +0.000 NA
ENDBRANCH  14  17
ENDBRANCH   9  11
BRANCH   3  23
ATOM     23  C   UNL     1       2.729   6.392  18.149  0.00  0.00    +0.000 C 
BRANCH  23  24
ATOM     24  C   UNL     1       2.255   5.003  18.493  0.00  0.00    +0.000 A 
ATOM     25  C   UNL     1       1.516   4.761  19.660  0.00  0.00    +0.000 A 
ATOM     26  C   UNL     1       1.046   3.479  19.954  0.00  0.00    +0.000 A 
ATOM     27  C   UNL     1       1.308   2.421  19.081  0.00  0.00    +0.000 A 
ATOM     28  C   UNL     1       2.035   2.647  17.913  0.00  0.00    +0.000 A 
ATOM     29  C   UNL     1       2.503   3.929  17.622  0.00  0.00    +0.000 A 
ENDBRANCH  23  24
ENDBRANCH   3  23
TORSDOF 4
ENDMDL
MODEL 9
REMARK VINA RESULT:      -8.0      4.075      6.965
REMARK  Name = 
REMARK  4 active torsions:
REMARK  status: ('A' for Active; 'I' for Inactive)
REMARK    1  A    between atoms: N_3  and  C_4
REMARK    2  A    between atoms: C_4  and  C_5
REMARK    3  A    between atoms: C_16  and  C_17
REMARK    4  A    between atoms: C_20  and  C_21
REMARK                            x       y       z     vdW  Elec       q    Type
REMARK                         _______ _______ _______ _____ _____    ______ ____
ROOT
ATOM      1  O   UNL     1       1.004   7.809  20.826  0.00  0.00    +0.000 OA
ATOM      2  C   UNL     1       1.576   8.137  19.788  0.00  0.00    +0.000 C 
ATOM      3  N   UNL     1       2.607   7.404  19.267  0.00  0.00    +0.000 N 
ATOM      4  N   UNL     1       1.199   9.251  19.057  0.00  0.00    +0.000 N 
ATOM      5  C   UNL     1       1.760   9.664  17.766  0.00  0.00    +0.000 C 
ATOM      6  C   UNL     1       2.475  11.009  17.877  0.00  0.00    +0.000 C 
ATOM      7  C   UNL     1       1.645  12.074  18.592  0.00  0.00    +0.000 C 
ATOM      8  C   UNL     1       1.002  11.549  19.880  0.00  0.00    +0.000 C 
ATOM      9  C   UNL     1       0.269  10.211  19.679  0.00  0.00    +0.000 C 
ATOM     10  H   UNL     1       3.322   7.934  18.797  0.00  0.00    +0.000 HD
ENDROOT
BRANCH   9  11
ATOM     11  C   UNL     1      -0.996  10.354  18.879  0.00  0.00    +0.000 A 
ATOM     12  N   UNL     1      -1.286   9.804  17.715  0.00  0.00    +0.000 NA
ATOM     13  N   UNL     1      -2.524  10.246  17.322  0.00  0.00    +0.000 NA
ATOM     14  C   UNL     1      -2.979  11.076  18.242  0.00  0.00    +0.000 A 
ATOM     15  N   UNL     1      -2.045  11.156  19.247  0.00  0.00    +0.000 N 
ATOM     16  H   UNL     1      -2.129  11.716  20.085  0.00  0.00    +0.000 HD
BRANCH  14  17
ATOM     17  C   UNL     1      -4.231  11.812  18.240  0.00  0.00    +0.000 A 
ATOM     18  C   UNL     1      -5.012  11.947  17.096  0.00  0.00    +0.000 A 
ATOM     19  N   UNL     1      -6.175  12.650  17.081  0.00  0.00    +0.000 NA
ATOM     20  C   UNL     1      -6.523  13.214  18.257  0.00  0.00    +0.000 A 
ATOM     21  C   UNL     1      -5.749  13.079  19.400  0.00  0.00    +0.000 A 
ATOM     22  N   UNL     1      -4.590  12.376  19.424  0.00  0.00    +0.000 NA
ENDBRANCH  14  17
ENDBRANCH   9  11
BRANCH   3  23
ATOM     23  C   UNL     1       3.106   6.230  19.958  0.00  0.00    +0.000 C 
BRANCH  23  24
ATOM     24  C   UNL     1       2.335   4.991  19.578  0.00  0.00    +0.000 A 
ATOM     25  C   UNL     1       1.647   4.244  20.545  0.00  0.00    +0.000 A 
ATOM     26  C   UNL     1       0.902   3.120  20.182  0.00  0.00    +0.000 A 
ATOM     27  C   UNL     1       0.835   2.728  18.844  0.00  0.00    +0.000 A 
ATOM     28  C   UNL     1       1.508   3.464  17.869  0.00  0.00    +0.000 A 
ATOM     29  C   UNL     1       2.251   4.588  18.235  0.00  0.00    +0.000 A 
ENDBRANCH  23  24
ENDBRANCH   3  23
TORSDOF 4
ENDMDL
