MODEL 1
REMARK VINA RESULT:      -8.6      0.000      0.000
REMARK  Name = 
REMARK  6 active torsions:
REMARK  status: ('A' for Active; 'I' for Inactive)
REMARK    1  A    between atoms: C_2  and  C_3
REMARK    2  A    between atoms: C_3  and  O_4
REMARK    3  A    between atoms: O_4  and  C_5
REMARK    4  A    between atoms: C_5  and  C_7
REMARK    5  A    between atoms: C_8  and  C_9
REMARK    6  A    between atoms: N_19  and  C_20
REMARK                            x       y       z     vdW  Elec       q    Type
REMARK                         _______ _______ _______ _____ _____    ______ ____
ROOT
ATOM      1  O   UNL     1       6.367   4.945  20.028  0.00  0.00    +0.000 OA
ATOM      2  C   UNL     1       6.646   4.946  18.826  0.00  0.00    +0.000 C 
ATOM      3  N   UNL     1       5.853   4.370  17.848  0.00  0.00    +0.000 N 
ATOM      4  C   UNL     1       4.639   3.741  17.995  0.00  0.00    +0.000 C 
ATOM      5  O   UNL     1       4.064   3.270  17.019  0.00  0.00    +0.000 OA
ATOM      6  N   UNL     1       4.130   3.722  19.259  0.00  0.00    +0.000 N 
ATOM      7  H   UNL     1       6.134   4.470  16.877  0.00  0.00    +0.000 HD
ATOM      8  H   UNL     1       4.771   3.980  20.007  0.00  0.00    +0.000 HD
ENDROOT
BRANCH   6   9
ATOM      9  C   UNL     1       2.842   3.161  19.603  0.00  0.00    +0.000 C 
ATOM     10  C   UNL     1       2.766   2.693  21.052  0.00  0.00    +0.000 C 
ATOM     11  C   UNL     1       1.272   2.649  21.348  0.00  0.00    +0.000 C 
ATOM     12  C   UNL     1       0.629   3.700  20.444  0.00  0.00    +0.000 C 
ATOM     13  C   UNL     1       1.726   4.199  19.511  0.00  0.00    +0.000 C 
ENDBRANCH   6   9
BRANCH   2  14
ATOM     14  C   UNL     1       7.943   5.570  18.311  0.00  0.00    +0.000 C 
BRANCH  14  15
ATOM     15  O   UNL     1       8.075   6.957  18.620  0.00  0.00    +0.000 OA
BRANCH  15  16
ATOM     16  C   UNL     1       7.641   7.788  17.646  0.00  0.00    +0.000 C 
ATOM     17  O   UNL     1       6.979   7.455  16.675  0.00  0.00    +0.000 OA
BRANCH  16  18
ATOM     18  C   UNL     1       8.105   9.156  17.951  0.00  0.00    +0.000 C 
ATOM     19  C   UNL     1       9.078   9.344  18.855  0.00  0.00    +0.000 C 
BRANCH  19  20
ATOM     20  C   UNL     1       9.641  10.652  19.226  0.00  0.00    +0.000 A 
ATOM     21  C   UNL     1      10.291  11.493  18.309  0.00  0.00    +0.000 A 
ATOM     22  C   UNL     1      10.788  12.739  18.706  0.00  0.00    +0.000 A 
ATOM     23  C   UNL     1      10.632  13.165  20.022  0.00  0.00    +0.000 A 
ATOM     24  C   UNL     1       9.973  12.343  20.928  0.00  0.00    +0.000 A 
ATOM     25  F   UNL     1       9.813  12.753  22.193  0.00  0.00    +0.000 F 
ATOM     26  C   UNL     1       9.474  11.102  20.543  0.00  0.00    +0.000 A 
ENDBRANCH  19  20
ENDBRANCH  16  18
ENDBRANCH  15  16
ENDBRANCH  14  15
ENDBRANCH   2  14
TORSDOF 6
ENDMDL
MODEL 2
REMARK VINA RESULT:      -8.3      1.890      2.336
REMARK  Name = 
REMARK  6 active torsions:
REMARK  status: ('A' for Active; 'I' for Inactive)
REMARK    1  A    between atoms: C_2  and  C_3
REMARK    2  A    between atoms: C_3  and  O_4
REMARK    3  A    between atoms: O_4  and  C_5
REMARK    4  A    between atoms: C_5  and  C_7
REMARK    5  A    between atoms: C_8  and  C_9
REMARK    6  A    between atoms: N_19  and  C_20
REMARK                            x       y       z     vdW  Elec       q    Type
REMARK                         _______ _______ _______ _____ _____    ______ ____
ROOT
ATOM      1  O   UNL     1       5.760   4.496  17.663  0.00  0.00    +0.000 OA
ATOM      2  C   UNL     1       5.765   5.674  17.297  0.00  0.00    +0.000 C 
ATOM      3  N   UNL     1       4.678   6.523  17.411  0.00  0.00    +0.000 N 
ATOM      4  C   UNL     1       3.442   6.260  17.956  0.00  0.00    +0.000 C 
ATOM      5  O   UNL     1       2.574   7.126  17.970  0.00  0.00    +0.000 OA
ATOM      6  N   UNL     1       3.284   5.017  18.494  0.00  0.00    +0.000 N 
ATOM      7  H   UNL     1       4.791   7.494  17.135  0.00  0.00    +0.000 HD
ATOM      8  H   UNL     1       4.002   4.332  18.266  0.00  0.00    +0.000 HD
ENDROOT
BRANCH   6   9
ATOM      9  C   UNL     1       2.082   4.574  19.164  0.00  0.00    +0.000 C 
ATOM     10  C   UNL     1       1.501   3.301  18.561  0.00  0.00    +0.000 C 
ATOM     11  C   UNL     1       0.622   2.734  19.670  0.00  0.00    +0.000 C 
ATOM     12  C   UNL     1       1.241   3.204  20.984  0.00  0.00    +0.000 C 
ATOM     13  C   UNL     1       2.350   4.183  20.616  0.00  0.00    +0.000 C 
ENDBRANCH   6   9
BRANCH   2  14
ATOM     14  C   UNL     1       6.995   6.296  16.638  0.00  0.00    +0.000 C 
BRANCH  14  15
ATOM     15  O   UNL     1       7.199   7.666  16.982  0.00  0.00    +0.000 OA
BRANCH  15  16
ATOM     16  C   UNL     1       8.002   7.858  18.053  0.00  0.00    +0.000 C 
ATOM     17  O   UNL     1       8.333   6.996  18.852  0.00  0.00    +0.000 OA
BRANCH  16  18
ATOM     18  C   UNL     1       8.403   9.279  18.095  0.00  0.00    +0.000 C 
ATOM     19  C   UNL     1       9.249   9.705  19.046  0.00  0.00    +0.000 C 
BRANCH  19  20
ATOM     20  C   UNL     1       9.740  11.085  19.178  0.00  0.00    +0.000 A 
ATOM     21  C   UNL     1      10.067  11.665  20.413  0.00  0.00    +0.000 A 
ATOM     22  C   UNL     1      10.554  12.975  20.484  0.00  0.00    +0.000 A 
ATOM     23  C   UNL     1      10.729  13.718  19.320  0.00  0.00    +0.000 A 
ATOM     24  C   UNL     1      10.422  13.141  18.094  0.00  0.00    +0.000 A 
ATOM     25  F   UNL     1      10.598  13.848  16.970  0.00  0.00    +0.000 F 
ATOM     26  C   UNL     1       9.938  11.838  18.013  0.00  0.00    +0.000 A 
ENDBRANCH  19  20
ENDBRANCH  16  18
ENDBRANCH  15  16
ENDBRANCH  14  15
ENDBRANCH   2  14
TORSDOF 6
ENDMDL
MODEL 3
REMARK VINA RESULT:      -8.0      3.544      7.444
REMARK  Name = 
REMARK  6 active torsions:
REMARK  status: ('A' for Active; 'I' for Inactive)
REMARK    1  A    between atoms: C_2  and  C_3
REMARK    2  A    between atoms: C_3  and  O_4
REMARK    3  A    between atoms: O_4  and  C_5
REMARK    4  A    between atoms: C_5  and  C_7
REMARK    5  A    between atoms: C_8  and  C_9
REMARK    6  A    between atoms: N_19  and  C_20
REMARK                            x       y       z     vdW  Elec       q    Type
REMARK                         _______ _______ _______ _____ _____    ______ ____
ROOT
ATOM      1  O   UNL     1       5.123   3.057  19.888  0.00  0.00    +0.000 OA
ATOM      2  C   UNL     1       4.226   2.853  19.067  0.00  0.00    +0.000 C 
ATOM      3  N   UNL     1       4.084   3.559  17.885  0.00  0.00    +0.000 N 
ATOM      4  C   UNL     1       4.887   4.558  17.386  0.00  0.00    +0.000 C 
ATOM      5  O   UNL     1       4.615   5.096  16.318  0.00  0.00    +0.000 OA
ATOM      6  N   UNL     1       5.989   4.860  18.130  0.00  0.00    +0.000 N 
ATOM      7  H   UNL     1       3.348   3.283  17.242  0.00  0.00    +0.000 HD
ATOM      8  H   UNL     1       6.014   4.480  19.074  0.00  0.00    +0.000 HD
ENDROOT
BRANCH   6   9
ATOM      9  C   UNL     1       6.982   5.837  17.743  0.00  0.00    +0.000 C 
ATOM     10  C   UNL     1       6.372   7.170  17.323  0.00  0.00    +0.000 C 
ATOM     11  C   UNL     1       7.517   8.164  17.474  0.00  0.00    +0.000 C 
ATOM     12  C   UNL     1       8.419   7.609  18.574  0.00  0.00    +0.000 C 
ATOM     13  C   UNL     1       7.890   6.219  18.910  0.00  0.00    +0.000 C 
ENDBRANCH   6   9
BRANCH   2  14
ATOM     14  C   UNL     1       3.149   1.797  19.313  0.00  0.00    +0.000 C 
BRANCH  14  15
ATOM     15  O   UNL     1       1.884   2.343  19.687  0.00  0.00    +0.000 OA
BRANCH  15  16
ATOM     16  C   UNL     1       1.890   3.009  20.864  0.00  0.00    +0.000 C 
ATOM     17  O   UNL     1       2.227   2.539  21.940  0.00  0.00    +0.000 OA
BRANCH  16  18
ATOM     18  C   UNL     1       1.419   4.389  20.629  0.00  0.00    +0.000 C 
ATOM     19  C   UNL     1       2.293   5.336  20.256  0.00  0.00    +0.000 C 
BRANCH  19  20
ATOM     20  C   UNL     1       1.943   6.737  19.970  0.00  0.00    +0.000 A 
ATOM     21  C   UNL     1       1.350   7.585  20.917  0.00  0.00    +0.000 A 
ATOM     22  C   UNL     1       1.058   8.917  20.604  0.00  0.00    +0.000 A 
ATOM     23  C   UNL     1       1.367   9.421  19.344  0.00  0.00    +0.000 A 
ATOM     24  C   UNL     1       1.971   8.589  18.410  0.00  0.00    +0.000 A 
ATOM     25  F   UNL     1       2.278   9.072  17.199  0.00  0.00    +0.000 F 
ATOM     26  C   UNL     1       2.265   7.262  18.712  0.00  0.00    +0.000 A 
ENDBRANCH  19  20
ENDBRANCH  16  18
ENDBRANCH  15  16
ENDBRANCH  14  15
ENDBRANCH   2  14
TORSDOF 6
ENDMDL
MODEL 4
REMARK VINA RESULT:      -8.0      1.618      2.193
REMARK  Name = 
REMARK  6 active torsions:
REMARK  status: ('A' for Active; 'I' for Inactive)
REMARK    1  A    between atoms: C_2  and  C_3
REMARK    2  A    between atoms: C_3  and  O_4
REMARK    3  A    between atoms: O_4  and  C_5
REMARK    4  A    between atoms: C_5  and  C_7
REMARK    5  A    between atoms: C_8  and  C_9
REMARK    6  A    between atoms: N_19  and  C_20
REMARK                            x       y       z     vdW  Elec       q    Type
REMARK                         _______ _______ _______ _____ _____    ______ ____
ROOT
ATOM      1  O   UNL     1       4.602   6.788  17.042  0.00  0.00    +0.000 OA
ATOM      2  C   UNL     1       5.573   6.041  17.189  0.00  0.00    +0.000 C 
ATOM      3  N   UNL     1       5.536   4.855  17.901  0.00  0.00    +0.000 N 
ATOM      4  C   UNL     1       4.461   4.271  18.531  0.00  0.00    +0.000 C 
ATOM      5  O   UNL     1       4.598   3.213  19.135  0.00  0.00    +0.000 OA
ATOM      6  N   UNL     1       3.270   4.923  18.399  0.00  0.00    +0.000 N 
ATOM      7  H   UNL     1       6.370   4.276  17.921  0.00  0.00    +0.000 HD
ATOM      8  H   UNL     1       3.314   5.872  18.034  0.00  0.00    +0.000 HD
ENDROOT
BRANCH   6   9
ATOM      9  C   UNL     1       2.020   4.437  18.937  0.00  0.00    +0.000 C 
ATOM     10  C   UNL     1       1.578   3.117  18.316  0.00  0.00    +0.000 C 
ATOM     11  C   UNL     1       0.602   2.538  19.333  0.00  0.00    +0.000 C 
ATOM     12  C   UNL     1       1.036   3.079  20.693  0.00  0.00    +0.000 C 
ATOM     13  C   UNL     1       2.132   4.104  20.424  0.00  0.00    +0.000 C 
ENDBRANCH   6   9
BRANCH   2  14
ATOM     14  C   UNL     1       6.942   6.395  16.610  0.00  0.00    +0.000 C 
BRANCH  14  15
ATOM     15  O   UNL     1       7.340   7.744  16.857  0.00  0.00    +0.000 OA
BRANCH  15  16
ATOM     16  C   UNL     1       8.023   7.920  18.010  0.00  0.00    +0.000 C 
ATOM     17  O   UNL     1       8.288   7.041  18.817  0.00  0.00    +0.000 OA
BRANCH  16  18
ATOM     18  C   UNL     1       8.389   9.345  18.130  0.00  0.00    +0.000 C 
ATOM     19  C   UNL     1       9.291   9.727  19.047  0.00  0.00    +0.000 C 
BRANCH  19  20
ATOM     20  C   UNL     1       9.754  11.110  19.247  0.00  0.00    +0.000 A 
ATOM     21  C   UNL     1       9.932  11.680  20.517  0.00  0.00    +0.000 A 
ATOM     22  C   UNL     1      10.398  12.992  20.655  0.00  0.00    +0.000 A 
ATOM     23  C   UNL     1      10.702  13.746  19.525  0.00  0.00    +0.000 A 
ATOM     24  C   UNL     1      10.544  13.179  18.267  0.00  0.00    +0.000 A 
ATOM     25  F   UNL     1      10.844  13.898  17.177  0.00  0.00    +0.000 F 
ATOM     26  C   UNL     1      10.082  11.874  18.119  0.00  0.00    +0.000 A 
ENDBRANCH  19  20
ENDBRANCH  16  18
ENDBRANCH  15  16
ENDBRANCH  14  15
ENDBRANCH   2  14
TORSDOF 6
ENDMDL
MODEL 5
REMARK VINA RESULT:      -8.0      1.252      1.445
REMARK  Name = 
REMARK  6 active torsions:
REMARK  status: ('A' for Active; 'I' for Inactive)
REMARK    1  A    between atoms: C_2  and  C_3
REMARK    2  A    between atoms: C_3  and  O_4
REMARK    3  A    between atoms: O_4  and  C_5
REMARK    4  A    between atoms: C_5  and  C_7
REMARK    5  A    between atoms: C_8  and  C_9
REMARK    6  A    between atoms: N_19  and  C_20
REMARK                            x       y       z     vdW  Elec       q    Type
REMARK                         _______ _______ _______ _____ _____    ______ ____
ROOT
ATOM      1  O   UNL     1       6.317   4.991  19.920  0.00  0.00    +0.000 OA
ATOM      2  C   UNL     1       6.554   4.925  18.711  0.00  0.00    +0.000 C 
ATOM      3  N   UNL     1       5.767   4.237  17.805  0.00  0.00    +0.000 N 
ATOM      4  C   UNL     1       4.599   3.547  18.039  0.00  0.00    +0.000 C 
ATOM      5  O   UNL     1       4.022   2.976  17.120  0.00  0.00    +0.000 OA
ATOM      6  N   UNL     1       4.135   3.586  19.321  0.00  0.00    +0.000 N 
ATOM      7  H   UNL     1       6.007   4.285  16.820  0.00  0.00    +0.000 HD
ATOM      8  H   UNL     1       4.783   3.933  20.025  0.00  0.00    +0.000 HD
ENDROOT
BRANCH   6   9
ATOM      9  C   UNL     1       2.897   2.974  19.750  0.00  0.00    +0.000 C 
ATOM     10  C   UNL     1       2.822   2.783  21.260  0.00  0.00    +0.000 C 
ATOM     11  C   UNL     1       1.330   2.647  21.541  0.00  0.00    +0.000 C 
ATOM     12  C   UNL     1       0.618   3.438  20.445  0.00  0.00    +0.000 C 
ATOM     13  C   UNL     1       1.690   3.859  19.447  0.00  0.00    +0.000 C 
ENDBRANCH   6   9
BRANCH   2  14
ATOM     14  C   UNL     1       7.791   5.588  18.107  0.00  0.00    +0.000 C 
BRANCH  14  15
ATOM     15  O   UNL     1       8.013   6.920  18.571  0.00  0.00    +0.000 OA
BRANCH  15  16
ATOM     16  C   UNL     1       7.700   7.881  17.673  0.00  0.00    +0.000 C 
ATOM     17  O   UNL     1       6.750   7.851  16.907  0.00  0.00    +0.000 OA
BRANCH  16  18
ATOM     18  C   UNL     1       8.699   8.965  17.774  0.00  0.00    +0.000 C 
ATOM     19  C   UNL     1       8.416  10.068  18.484  0.00  0.00    +0.000 C 
BRANCH  19  20
ATOM     20  C   UNL     1       9.334  11.202  18.678  0.00  0.00    +0.000 A 
ATOM     21  C   UNL     1      10.500  11.117  19.453  0.00  0.00    +0.000 A 
ATOM     22  C   UNL     1      11.354  12.218  19.588  0.00  0.00    +0.000 A 
ATOM     23  C   UNL     1      11.057  13.413  18.939  0.00  0.00    +0.000 A 
ATOM     24  C   UNL     1       9.913  13.495  18.156  0.00  0.00    +0.000 A 
ATOM     25  F   UNL     1       9.628  14.640  17.522  0.00  0.00    +0.000 F 
ATOM     26  C   UNL     1       9.057  12.405  18.016  0.00  0.00    +0.000 A 
ENDBRANCH  19  20
ENDBRANCH  16  18
ENDBRANCH  15  16
ENDBRANCH  14  15
ENDBRANCH   2  14
TORSDOF 6
ENDMDL
MODEL 6
REMARK VINA RESULT:      -7.9      1.853      2.266
REMARK  Name = 
REMARK  6 active torsions:
REMARK  status: ('A' for Active; 'I' for Inactive)
REMARK    1  A    between atoms: C_2  and  C_3
REMARK    2  A    between atoms: C_3  and  O_4
REMARK    3  A    between atoms: O_4  and  C_5
REMARK    4  A    between atoms: C_5  and  C_7
REMARK    5  A    between atoms: C_8  and  C_9
REMARK    6  A    between atoms: N_19  and  C_20
REMARK                            x       y       z     vdW  Elec       q    Type
REMARK                         _______ _______ _______ _____ _____    ______ ____
ROOT
ATOM      1  O   UNL     1       4.898   4.779  16.804  0.00  0.00    +0.000 OA
ATOM      2  C   UNL     1       5.044   6.004  16.839  0.00  0.00    +0.000 C 
ATOM      3  N   UNL     1       4.230   6.859  17.562  0.00  0.00    +0.000 N 
ATOM      4  C   UNL     1       3.166   6.541  18.375  0.00  0.00    +0.000 C 
ATOM      5  O   UNL     1       2.534   7.427  18.942  0.00  0.00    +0.000 OA
ATOM      6  N   UNL     1       2.910   5.210  18.524  0.00  0.00    +0.000 N 
ATOM      7  H   UNL     1       4.460   7.848  17.579  0.00  0.00    +0.000 HD
ATOM      8  H   UNL     1       3.380   4.585  17.871  0.00  0.00    +0.000 HD
ENDROOT
BRANCH   6   9
ATOM      9  C   UNL     1       1.875   4.678  19.381  0.00  0.00    +0.000 C 
ATOM     10  C   UNL     1       1.286   3.372  18.861  0.00  0.00    +0.000 C 
ATOM     11  C   UNL     1       0.653   2.736  20.093  0.00  0.00    +0.000 C 
ATOM     12  C   UNL     1       1.458   3.238  21.290  0.00  0.00    +0.000 C 
ATOM     13  C   UNL     1       2.417   4.295  20.757  0.00  0.00    +0.000 C 
ENDBRANCH   6   9
BRANCH   2  14
ATOM     14  C   UNL     1       6.145   6.696  16.038  0.00  0.00    +0.000 C 
BRANCH  14  15
ATOM     15  O   UNL     1       7.459   6.457  16.542  0.00  0.00    +0.000 OA
BRANCH  15  16
ATOM     16  C   UNL     1       7.664   6.910  17.799  0.00  0.00    +0.000 C 
ATOM     17  O   UNL     1       7.657   6.223  18.809  0.00  0.00    +0.000 OA
BRANCH  16  18
ATOM     18  C   UNL     1       7.892   8.368  17.745  0.00  0.00    +0.000 C 
ATOM     19  C   UNL     1       8.743   8.942  18.609  0.00  0.00    +0.000 C 
BRANCH  19  20
ATOM     20  C   UNL     1       9.072  10.376  18.639  0.00  0.00    +0.000 A 
ATOM     21  C   UNL     1       8.555  11.298  17.716  0.00  0.00    +0.000 A 
ATOM     22  C   UNL     1       8.878  12.657  17.802  0.00  0.00    +0.000 A 
ATOM     23  C   UNL     1       9.714  13.112  18.817  0.00  0.00    +0.000 A 
ATOM     24  C   UNL     1      10.214  12.205  19.743  0.00  0.00    +0.000 A 
ATOM     25  F   UNL     1      11.011  12.639  20.728  0.00  0.00    +0.000 F 
ATOM     26  C   UNL     1       9.897  10.851  19.667  0.00  0.00    +0.000 A 
ENDBRANCH  19  20
ENDBRANCH  16  18
ENDBRANCH  15  16
ENDBRANCH  14  15
ENDBRANCH   2  14
TORSDOF 6
ENDMDL
MODEL 7
REMARK VINA RESULT:      -7.9      4.921      8.486
REMARK  Name = 
REMARK  6 active torsions:
REMARK  status: ('A' for Active; 'I' for Inactive)
REMARK    1  A    between atoms: C_2  and  C_3
REMARK    2  A    between atoms: C_3  and  O_4
REMARK    3  A    between atoms: O_4  and  C_5
REMARK    4  A    between atoms: C_5  and  C_7
REMARK    5  A    between atoms: C_8  and  C_9
REMARK    6  A    between atoms: N_19  and  C_20
REMARK                            x       y       z     vdW  Elec       q    Type
REMARK                         _______ _______ _______ _____ _____    ______ ____
ROOT
ATOM      1  O   UNL     1       5.574   4.581  15.968  0.00  0.00    +0.000 OA
ATOM      2  C   UNL     1       6.501   5.395  15.994  0.00  0.00    +0.000 C 
ATOM      3  N   UNL     1       7.345   5.639  14.925  0.00  0.00    +0.000 N 
ATOM      4  C   UNL     1       7.312   5.084  13.666  0.00  0.00    +0.000 C 
ATOM      5  O   UNL     1       8.148   5.402  12.827  0.00  0.00    +0.000 OA
ATOM      6  N   UNL     1       6.288   4.216  13.429  0.00  0.00    +0.000 N 
ATOM      7  H   UNL     1       8.045   6.369  15.018  0.00  0.00    +0.000 HD
ATOM      8  H   UNL     1       5.770   3.895  14.245  0.00  0.00    +0.000 HD
ENDROOT
BRANCH   6   9
ATOM      9  C   UNL     1       6.050   3.578  12.153  0.00  0.00    +0.000 C 
ATOM     10  C   UNL     1       6.528   2.131  12.115  0.00  0.00    +0.000 C 
ATOM     11  C   UNL     1       5.745   1.514  10.962  0.00  0.00    +0.000 C 
ATOM     12  C   UNL     1       4.435   2.295  10.873  0.00  0.00    +0.000 C 
ATOM     13  C   UNL     1       4.559   3.463  11.843  0.00  0.00    +0.000 C 
ENDBRANCH   6   9
BRANCH   2  14
ATOM     14  C   UNL     1       6.821   6.195  17.256  0.00  0.00    +0.000 C 
BRANCH  14  15
ATOM     15  O   UNL     1       7.641   5.492  18.189  0.00  0.00    +0.000 OA
BRANCH  15  16
ATOM     16  C   UNL     1       7.098   5.363  19.421  0.00  0.00    +0.000 C 
ATOM     17  O   UNL     1       7.717   5.394  20.474  0.00  0.00    +0.000 OA
BRANCH  16  18
ATOM     18  C   UNL     1       5.641   5.173  19.277  0.00  0.00    +0.000 C 
ATOM     19  C   UNL     1       5.117   3.941  19.368  0.00  0.00    +0.000 C 
BRANCH  19  20
ATOM     20  C   UNL     1       3.683   3.626  19.267  0.00  0.00    +0.000 A 
ATOM     21  C   UNL     1       3.023   2.770  20.162  0.00  0.00    +0.000 A 
ATOM     22  C   UNL     1       1.652   2.522  20.038  0.00  0.00    +0.000 A 
ATOM     23  C   UNL     1       0.921   3.134  19.024  0.00  0.00    +0.000 A 
ATOM     24  C   UNL     1       1.568   3.996  18.147  0.00  0.00    +0.000 A 
ATOM     25  F   UNL     1       0.867   4.595  17.175  0.00  0.00    +0.000 F 
ATOM     26  C   UNL     1       2.932   4.251  18.263  0.00  0.00    +0.000 A 
ENDBRANCH  19  20
ENDBRANCH  16  18
ENDBRANCH  15  16
ENDBRANCH  14  15
ENDBRANCH   2  14
TORSDOF 6
ENDMDL
MODEL 8
REMARK VINA RESULT:      -7.8      3.737      9.305
REMARK  Name = 
REMARK  6 active torsions:
REMARK  status: ('A' for Active; 'I' for Inactive)
REMARK    1  A    between atoms: C_2  and  C_3
REMARK    2  A    between atoms: C_3  and  O_4
REMARK    3  A    between atoms: O_4  and  C_5
REMARK    4  A    between atoms: C_5  and  C_7
REMARK    5  A    between atoms: C_8  and  C_9
REMARK    6  A    between atoms: N_19  and  C_20
REMARK                            x       y       z     vdW  Elec       q    Type
REMARK                         _______ _______ _______ _____ _____    ______ ____
ROOT
ATOM      1  O   UNL     1       8.564   7.284  18.949  0.00  0.00    +0.000 OA
ATOM      2  C   UNL     1       7.835   7.425  17.964  0.00  0.00    +0.000 C 
ATOM      3  N   UNL     1       7.534   8.650  17.394  0.00  0.00    +0.000 N 
ATOM      4  C   UNL     1       7.986   9.897  17.762  0.00  0.00    +0.000 C 
ATOM      5  O   UNL     1       7.611  10.895  17.155  0.00  0.00    +0.000 OA
ATOM      6  N   UNL     1       8.879   9.924  18.791  0.00  0.00    +0.000 N 
ATOM      7  H   UNL     1       6.970   8.666  16.550  0.00  0.00    +0.000 HD
ATOM      8  H   UNL     1       8.975   9.064  19.328  0.00  0.00    +0.000 HD
ENDROOT
BRANCH   6   9
ATOM      9  C   UNL     1       9.510  11.129  19.281  0.00  0.00    +0.000 C 
ATOM     10  C   UNL     1       9.564  11.194  20.803  0.00  0.00    +0.000 C 
ATOM     11  C   UNL     1      10.676  12.197  21.091  0.00  0.00    +0.000 C 
ATOM     12  C   UNL     1      11.639  12.112  19.909  0.00  0.00    +0.000 C 
ATOM     13  C   UNL     1      10.980  11.207  18.874  0.00  0.00    +0.000 C 
ENDBRANCH   6   9
BRANCH   2  14
ATOM     14  C   UNL     1       7.159   6.228  17.298  0.00  0.00    +0.000 C 
BRANCH  14  15
ATOM     15  O   UNL     1       6.063   6.582  16.455  0.00  0.00    +0.000 OA
BRANCH  15  16
ATOM     16  C   UNL     1       5.464   5.532  15.849  0.00  0.00    +0.000 C 
ATOM     17  O   UNL     1       5.604   5.218  14.677  0.00  0.00    +0.000 OA
BRANCH  16  18
ATOM     18  C   UNL     1       4.614   4.838  16.837  0.00  0.00    +0.000 C 
ATOM     19  C   UNL     1       3.645   5.512  17.474  0.00  0.00    +0.000 C 
BRANCH  19  20
ATOM     20  C   UNL     1       2.721   4.928  18.458  0.00  0.00    +0.000 A 
ATOM     21  C   UNL     1       2.537   5.460  19.744  0.00  0.00    +0.000 A 
ATOM     22  C   UNL     1       1.627   4.881  20.636  0.00  0.00    +0.000 A 
ATOM     23  C   UNL     1       0.882   3.771  20.250  0.00  0.00    +0.000 A 
ATOM     24  C   UNL     1       1.048   3.253  18.972  0.00  0.00    +0.000 A 
ATOM     25  F   UNL     1       0.327   2.190  18.593  0.00  0.00    +0.000 F 
ATOM     26  C   UNL     1       1.950   3.822  18.077  0.00  0.00    +0.000 A 
ENDBRANCH  19  20
ENDBRANCH  16  18
ENDBRANCH  15  16
ENDBRANCH  14  15
ENDBRANCH   2  14
TORSDOF 6
ENDMDL
MODEL 9
REMARK VINA RESULT:      -7.8      1.509      2.006
REMARK  Name = 
REMARK  6 active torsions:
REMARK  status: ('A' for Active; 'I' for Inactive)
REMARK    1  A    between atoms: C_2  and  C_3
REMARK    2  A    between atoms: C_3  and  O_4
REMARK    3  A    between atoms: O_4  and  C_5
REMARK    4  A    between atoms: C_5  and  C_7
REMARK    5  A    between atoms: C_8  and  C_9
REMARK    6  A    between atoms: N_19  and  C_20
REMARK                            x       y       z     vdW  Elec       q    Type
REMARK                         _______ _______ _______ _____ _____    ______ ____
ROOT
ATOM      1  O   UNL     1       5.613   3.738  16.397  0.00  0.00    +0.000 OA
ATOM      2  C   UNL     1       6.020   4.766  16.946  0.00  0.00    +0.000 C 
ATOM      3  N   UNL     1       5.451   5.310  18.084  0.00  0.00    +0.000 N 
ATOM      4  C   UNL     1       4.395   4.832  18.824  0.00  0.00    +0.000 C 
ATOM      5  O   UNL     1       4.001   5.446  19.810  0.00  0.00    +0.000 OA
ATOM      6  N   UNL     1       3.870   3.644  18.408  0.00  0.00    +0.000 N 
ATOM      7  H   UNL     1       5.888   6.128  18.500  0.00  0.00    +0.000 HD
ATOM      8  H   UNL     1       4.155   3.324  17.485  0.00  0.00    +0.000 HD
ENDROOT
BRANCH   6   9
ATOM      9  C   UNL     1       2.797   2.953  19.089  0.00  0.00    +0.000 C 
ATOM     10  C   UNL     1       3.038   2.812  20.587  0.00  0.00    +0.000 C 
ATOM     11  C   UNL     1       1.648   2.570  21.163  0.00  0.00    +0.000 C 
ATOM     12  C   UNL     1       0.669   3.262  20.216  0.00  0.00    +0.000 C 
ATOM     13  C   UNL     1       1.484   3.730  19.015  0.00  0.00    +0.000 C 
ENDBRANCH   6   9
BRANCH   2  14
ATOM     14  C   UNL     1       7.194   5.559  16.376  0.00  0.00    +0.000 C 
BRANCH  14  15
ATOM     15  O   UNL     1       7.857   6.377  17.339  0.00  0.00    +0.000 OA
BRANCH  15  16
ATOM     16  C   UNL     1       7.370   7.635  17.432  0.00  0.00    +0.000 C 
ATOM     17  O   UNL     1       6.331   8.030  16.925  0.00  0.00    +0.000 OA
BRANCH  16  18
ATOM     18  C   UNL     1       8.303   8.446  18.239  0.00  0.00    +0.000 C 
ATOM     19  C   UNL     1       8.547   9.720  17.897  0.00  0.00    +0.000 C 
BRANCH  19  20
ATOM     20  C   UNL     1       9.435  10.634  18.633  0.00  0.00    +0.000 A 
ATOM     21  C   UNL     1       9.427  10.745  20.032  0.00  0.00    +0.000 A 
ATOM     22  C   UNL     1      10.309  11.611  20.688  0.00  0.00    +0.000 A 
ATOM     23  C   UNL     1      11.216  12.370  19.953  0.00  0.00    +0.000 A 
ATOM     24  C   UNL     1      11.238  12.249  18.569  0.00  0.00    +0.000 A 
ATOM     25  F   UNL     1      12.115  12.970  17.859  0.00  0.00    +0.000 F 
ATOM     26  C   UNL     1      10.365  11.389  17.908  0.00  0.00    +0.000 A 
ENDBRANCH  19  20
ENDBRANCH  16  18
ENDBRANCH  15  16
ENDBRANCH  14  15
ENDBRANCH   2  14
TORSDOF 6
ENDMDL
