MODEL 1
REMARK VINA RESULT:      -6.3      0.000      0.000
REMARK  Name = 
REMARK  9 active torsions:
REMARK  status: ('A' for Active; 'I' for Inactive)
REMARK    1  A    between atoms: C_1  and  O_2
REMARK    2  A    between atoms: O_2  and  C_3
REMARK    3  A    between atoms: C_4  and  C_5
REMARK    4  A    between atoms: C_4  and  N_11
REMARK    5  A    between atoms: N_11  and  C_12
REMARK    6  A    between atoms: C_12  and  C_13
REMARK    7  A    between atoms: C_13  and  O_14
REMARK    8  A    between atoms: O_14  and  C_15
REMARK    9  A    between atoms: C_16  and  C_18
REMARK                            x       y       z     vdW  Elec       q    Type
REMARK                         _______ _______ _______ _____ _____    ______ ____
ROOT
ATOM      1  C   UNL     1       4.739   3.857  16.713  0.00  0.00    +0.000 C 
ATOM      2  C   UNL     1       4.629   4.757  17.709  0.00  0.00    +0.000 C 
ENDROOT
BRANCH   2   3
ATOM      3  C   UNL     1       5.784   5.653  17.974  0.00  0.00    +0.000 A 
ATOM      4  C   UNL     1       6.002   6.816  17.230  0.00  0.00    +0.000 A 
ATOM      5  C   UNL     1       7.144   7.596  17.431  0.00  0.00    +0.000 A 
ATOM      6  C   UNL     1       8.097   7.201  18.371  0.00  0.00    +0.000 A 
ATOM      7  C   UNL     1       7.903   6.036  19.110  0.00  0.00    +0.000 A 
ATOM      8  C   UNL     1       6.752   5.266  18.915  0.00  0.00    +0.000 A 
ENDBRANCH   2   3
BRANCH   2   9
ATOM      9  N   UNL     1       3.467   4.879  18.478  0.00  0.00    +0.000 N 
ATOM     10  C   UNL     1       3.242   3.956  19.537  0.00  0.00    +0.000 C 
ATOM     11  O   UNL     1       4.081   3.128  19.897  0.00  0.00    +0.000 OA
BRANCH  10  12
ATOM     12  C   UNL     1       1.915   4.108  20.283  0.00  0.00    +0.000 C 
ATOM     13 CL   UNL     1       1.742   2.934  21.607  0.00  0.00    +0.000 Cl
ENDBRANCH  10  12
BRANCH   9  14
ATOM     14  C   UNL     1       2.438   5.891  18.158  0.00  0.00    +0.000 C 
BRANCH  14  15
ATOM     15  C   UNL     1       2.532   7.336  18.663  0.00  0.00    +0.000 C 
BRANCH  15  16
ATOM     16  O   UNL     1       2.576   8.273  17.593  0.00  0.00    +0.000 OA
ATOM     17  C   UNL     1       1.793   9.425  17.889  0.00  0.00    +0.000 C 
ENDBRANCH  15  16
ENDBRANCH  14  15
ENDBRANCH   9  14
ENDBRANCH   2   9
BRANCH   1  19
ATOM     18  C   UNL     1       5.600   4.229  14.580  0.00  0.00    +0.000 C 
ATOM     19  O   UNL     1       5.839   3.753  15.897  0.00  0.00    +0.000 OA
ENDBRANCH   1  19
TORSDOF 7
ENDMDL
MODEL 2
REMARK VINA RESULT:      -6.0      0.694      1.306
REMARK  Name = 
REMARK  9 active torsions:
REMARK  status: ('A' for Active; 'I' for Inactive)
REMARK    1  A    between atoms: C_1  and  O_2
REMARK    2  A    between atoms: O_2  and  C_3
REMARK    3  A    between atoms: C_4  and  C_5
REMARK    4  A    between atoms: C_4  and  N_11
REMARK    5  A    between atoms: N_11  and  C_12
REMARK    6  A    between atoms: C_12  and  C_13
REMARK    7  A    between atoms: C_13  and  O_14
REMARK    8  A    between atoms: O_14  and  C_15
REMARK    9  A    between atoms: C_16  and  C_18
REMARK                            x       y       z     vdW  Elec       q    Type
REMARK                         _______ _______ _______ _____ _____    ______ ____
ROOT
ATOM      1  C   UNL     1       4.731   3.919  16.559  0.00  0.00    +0.000 C 
ATOM      2  C   UNL     1       4.706   4.821  17.559  0.00  0.00    +0.000 C 
ENDROOT
BRANCH   2   3
ATOM      3  C   UNL     1       5.935   5.614  17.817  0.00  0.00    +0.000 A 
ATOM      4  C   UNL     1       6.844   5.260  18.820  0.00  0.00    +0.000 A 
ATOM      5  C   UNL     1       7.945   6.070  19.110  0.00  0.00    +0.000 A 
ATOM      6  C   UNL     1       8.134   7.262  18.410  0.00  0.00    +0.000 A 
ATOM      7  C   UNL     1       7.230   7.637  17.420  0.00  0.00    +0.000 A 
ATOM      8  C   UNL     1       6.136   6.817  17.122  0.00  0.00    +0.000 A 
ENDBRANCH   2   3
BRANCH   2   9
ATOM      9  N   UNL     1       3.565   5.037  18.338  0.00  0.00    +0.000 N 
ATOM     10  C   UNL     1       3.334   4.204  19.469  0.00  0.00    +0.000 C 
ATOM     11  O   UNL     1       4.155   3.378  19.874  0.00  0.00    +0.000 OA
BRANCH  10  12
ATOM     12  C   UNL     1       2.028   4.454  20.225  0.00  0.00    +0.000 C 
ATOM     13 CL   UNL     1       0.811   3.196  19.913  0.00  0.00    +0.000 Cl
ENDBRANCH  10  12
BRANCH   9  14
ATOM     14  C   UNL     1       2.561   6.055  17.963  0.00  0.00    +0.000 C 
BRANCH  14  15
ATOM     15  C   UNL     1       2.791   7.552  18.201  0.00  0.00    +0.000 C 
BRANCH  15  16
ATOM     16  O   UNL     1       1.983   8.054  19.259  0.00  0.00    +0.000 OA
ATOM     17  C   UNL     1       1.391   9.300  18.904  0.00  0.00    +0.000 C 
ENDBRANCH  15  16
ENDBRANCH  14  15
ENDBRANCH   9  14
ENDBRANCH   2   9
BRANCH   1  19
ATOM     18  C   UNL     1       5.611   4.243  14.426  0.00  0.00    +0.000 C 
ATOM     19  O   UNL     1       5.812   3.725  15.734  0.00  0.00    +0.000 OA
ENDBRANCH   1  19
TORSDOF 7
ENDMDL
MODEL 3
REMARK VINA RESULT:      -6.0      2.642      5.700
REMARK  Name = 
REMARK  9 active torsions:
REMARK  status: ('A' for Active; 'I' for Inactive)
REMARK    1  A    between atoms: C_1  and  O_2
REMARK    2  A    between atoms: O_2  and  C_3
REMARK    3  A    between atoms: C_4  and  C_5
REMARK    4  A    between atoms: C_4  and  N_11
REMARK    5  A    between atoms: N_11  and  C_12
REMARK    6  A    between atoms: C_12  and  C_13
REMARK    7  A    between atoms: C_13  and  O_14
REMARK    8  A    between atoms: O_14  and  C_15
REMARK    9  A    between atoms: C_16  and  C_18
REMARK                            x       y       z     vdW  Elec       q    Type
REMARK                         _______ _______ _______ _____ _____    ______ ____
ROOT
ATOM      1  C   UNL     1       3.371   7.426  17.570  0.00  0.00    +0.000 C 
ATOM      2  C   UNL     1       3.754   6.154  17.790  0.00  0.00    +0.000 C 
ENDROOT
BRANCH   2   3
ATOM      3  C   UNL     1       2.821   5.258  18.520  0.00  0.00    +0.000 A 
ATOM      4  C   UNL     1       2.027   4.319  17.853  0.00  0.00    +0.000 A 
ATOM      5  C   UNL     1       1.087   3.551  18.545  0.00  0.00    +0.000 A 
ATOM      6  C   UNL     1       0.917   3.733  19.917  0.00  0.00    +0.000 A 
ATOM      7  C   UNL     1       1.687   4.675  20.594  0.00  0.00    +0.000 A 
ATOM      8  C   UNL     1       2.637   5.433  19.900  0.00  0.00    +0.000 A 
ENDBRANCH   2   3
BRANCH   2   9
ATOM      9  N   UNL     1       4.984   5.659  17.344  0.00  0.00    +0.000 N 
ATOM     10  C   UNL     1       5.441   6.016  16.045  0.00  0.00    +0.000 C 
ATOM     11  O   UNL     1       4.868   6.844  15.335  0.00  0.00    +0.000 OA
BRANCH  10  12
ATOM     12  C   UNL     1       6.757   5.374  15.602  0.00  0.00    +0.000 C 
ATOM     13 CL   UNL     1       6.505   3.982  14.524  0.00  0.00    +0.000 Cl
ENDBRANCH  10  12
BRANCH   9  14
ATOM     14  C   UNL     1       5.771   4.711  18.162  0.00  0.00    +0.000 C 
BRANCH  14  15
ATOM     15  C   UNL     1       6.535   5.158  19.415  0.00  0.00    +0.000 C 
BRANCH  15  16
ATOM     16  O   UNL     1       7.909   5.408  19.141  0.00  0.00    +0.000 OA
ATOM     17  C   UNL     1       8.109   6.752  18.714  0.00  0.00    +0.000 C 
ENDBRANCH  15  16
ENDBRANCH  14  15
ENDBRANCH   9  14
ENDBRANCH   2   9
BRANCH   1  19
ATOM     18  C   UNL     1       2.083   9.346  17.860  0.00  0.00    +0.000 C 
ATOM     19  O   UNL     1       2.147   7.929  17.937  0.00  0.00    +0.000 OA
ENDBRANCH   1  19
TORSDOF 7
ENDMDL
MODEL 4
REMARK VINA RESULT:      -5.9      2.382      5.593
REMARK  Name = 
REMARK  9 active torsions:
REMARK  status: ('A' for Active; 'I' for Inactive)
REMARK    1  A    between atoms: C_1  and  O_2
REMARK    2  A    between atoms: O_2  and  C_3
REMARK    3  A    between atoms: C_4  and  C_5
REMARK    4  A    between atoms: C_4  and  N_11
REMARK    5  A    between atoms: N_11  and  C_12
REMARK    6  A    between atoms: C_12  and  C_13
REMARK    7  A    between atoms: C_13  and  O_14
REMARK    8  A    between atoms: O_14  and  C_15
REMARK    9  A    between atoms: C_16  and  C_18
REMARK                            x       y       z     vdW  Elec       q    Type
REMARK                         _______ _______ _______ _____ _____    ______ ____
ROOT
ATOM      1  C   UNL     1       3.056   7.145  17.788  0.00  0.00    +0.000 C 
ATOM      2  C   UNL     1       3.409   5.867  18.025  0.00  0.00    +0.000 C 
ENDROOT
BRANCH   2   3
ATOM      3  C   UNL     1       2.412   4.973  18.667  0.00  0.00    +0.000 A 
ATOM      4  C   UNL     1       2.100   5.073  20.027  0.00  0.00    +0.000 A 
ATOM      5  C   UNL     1       1.230   4.163  20.634  0.00  0.00    +0.000 A 
ATOM      6  C   UNL     1       0.678   3.124  19.884  0.00  0.00    +0.000 A 
ATOM      7  C   UNL     1       0.991   3.000  18.532  0.00  0.00    +0.000 A 
ATOM      8  C   UNL     1       1.852   3.921  17.925  0.00  0.00    +0.000 A 
ENDBRANCH   2   3
BRANCH   2   9
ATOM      9  N   UNL     1       4.666   5.363  17.673  0.00  0.00    +0.000 N 
ATOM     10  C   UNL     1       5.684   5.297  18.665  0.00  0.00    +0.000 C 
ATOM     11  O   UNL     1       5.480   5.543  19.855  0.00  0.00    +0.000 OA
BRANCH  10  12
ATOM     12  C   UNL     1       7.051   4.806  18.184  0.00  0.00    +0.000 C 
ATOM     13 CL   UNL     1       8.392   5.514  19.114  0.00  0.00    +0.000 Cl
ENDBRANCH  10  12
BRANCH   9  14
ATOM     14  C   UNL     1       4.976   4.979  16.279  0.00  0.00    +0.000 C 
BRANCH  14  15
ATOM     15  C   UNL     1       5.530   5.985  15.262  0.00  0.00    +0.000 C 
BRANCH  15  16
ATOM     16  O   UNL     1       6.389   5.363  14.312  0.00  0.00    +0.000 OA
ATOM     17  C   UNL     1       6.392   3.949  14.474  0.00  0.00    +0.000 C 
ENDBRANCH  15  16
ENDBRANCH  14  15
ENDBRANCH   9  14
ENDBRANCH   2   9
BRANCH   1  19
ATOM     18  C   UNL     1       1.791   9.076  18.100  0.00  0.00    +0.000 C 
ATOM     19  O   UNL     1       1.811   7.656  18.061  0.00  0.00    +0.000 OA
ENDBRANCH   1  19
TORSDOF 7
ENDMDL
MODEL 5
REMARK VINA RESULT:      -5.9      2.603      5.787
REMARK  Name = 
REMARK  9 active torsions:
REMARK  status: ('A' for Active; 'I' for Inactive)
REMARK    1  A    between atoms: C_1  and  O_2
REMARK    2  A    between atoms: O_2  and  C_3
REMARK    3  A    between atoms: C_4  and  C_5
REMARK    4  A    between atoms: C_4  and  N_11
REMARK    5  A    between atoms: N_11  and  C_12
REMARK    6  A    between atoms: C_12  and  C_13
REMARK    7  A    between atoms: C_13  and  O_14
REMARK    8  A    between atoms: O_14  and  C_15
REMARK    9  A    between atoms: C_16  and  C_18
REMARK                            x       y       z     vdW  Elec       q    Type
REMARK                         _______ _______ _______ _____ _____    ______ ____
ROOT
ATOM      1  C   UNL     1       3.354   7.472  17.755  0.00  0.00    +0.000 C 
ATOM      2  C   UNL     1       3.597   6.150  17.835  0.00  0.00    +0.000 C 
ENDROOT
BRANCH   2   3
ATOM      3  C   UNL     1       2.614   5.300  18.556  0.00  0.00    +0.000 A 
ATOM      4  C   UNL     1       2.489   5.336  19.948  0.00  0.00    +0.000 A 
ATOM      5  C   UNL     1       1.626   4.462  20.615  0.00  0.00    +0.000 A 
ATOM      6  C   UNL     1       0.891   3.524  19.890  0.00  0.00    +0.000 A 
ATOM      7  C   UNL     1       1.016   3.464  18.504  0.00  0.00    +0.000 A 
ATOM      8  C   UNL     1       1.871   4.349  17.839  0.00  0.00    +0.000 A 
ENDBRANCH   2   3
BRANCH   2   9
ATOM      9  N   UNL     1       4.725   5.563  17.255  0.00  0.00    +0.000 N 
ATOM     10  C   UNL     1       5.208   6.072  16.017  0.00  0.00    +0.000 C 
ATOM     11  O   UNL     1       4.757   7.090  15.487  0.00  0.00    +0.000 OA
BRANCH  10  12
ATOM     12  C   UNL     1       6.400   5.329  15.410  0.00  0.00    +0.000 C 
ATOM     13 CL   UNL     1       5.905   4.135  14.189  0.00  0.00    +0.000 Cl
ENDBRANCH  10  12
BRANCH   9  14
ATOM     14  C   UNL     1       5.372   4.379  17.860  0.00  0.00    +0.000 C 
BRANCH  14  15
ATOM     15  C   UNL     1       6.290   4.489  19.084  0.00  0.00    +0.000 C 
BRANCH  15  16
ATOM     16  O   UNL     1       7.626   4.817  18.720  0.00  0.00    +0.000 OA
ATOM     17  C   UNL     1       7.876   6.208  18.893  0.00  0.00    +0.000 C 
ENDBRANCH  15  16
ENDBRANCH  14  15
ENDBRANCH   9  14
ENDBRANCH   2   9
BRANCH   1  19
ATOM     18  C   UNL     1       2.039   9.395  17.773  0.00  0.00    +0.000 C 
ATOM     19  O   UNL     1       2.226   8.073  18.258  0.00  0.00    +0.000 OA
ENDBRANCH   1  19
TORSDOF 7
ENDMDL
MODEL 6
REMARK VINA RESULT:      -5.8      1.696      3.965
REMARK  Name = 
REMARK  9 active torsions:
REMARK  status: ('A' for Active; 'I' for Inactive)
REMARK    1  A    between atoms: C_1  and  O_2
REMARK    2  A    between atoms: O_2  and  C_3
REMARK    3  A    between atoms: C_4  and  C_5
REMARK    4  A    between atoms: C_4  and  N_11
REMARK    5  A    between atoms: N_11  and  C_12
REMARK    6  A    between atoms: C_12  and  C_13
REMARK    7  A    between atoms: C_13  and  O_14
REMARK    8  A    between atoms: O_14  and  C_15
REMARK    9  A    between atoms: C_16  and  C_18
REMARK                            x       y       z     vdW  Elec       q    Type
REMARK                         _______ _______ _______ _____ _____    ______ ____
ROOT
ATOM      1  C   UNL     1       2.312   7.077  18.183  0.00  0.00    +0.000 C 
ATOM      2  C   UNL     1       2.913   5.884  18.353  0.00  0.00    +0.000 C 
ENDROOT
BRANCH   2   3
ATOM      3  C   UNL     1       4.386   5.811  18.173  0.00  0.00    +0.000 A 
ATOM      4  C   UNL     1       5.247   5.540  19.241  0.00  0.00    +0.000 A 
ATOM      5  C   UNL     1       6.634   5.567  19.072  0.00  0.00    +0.000 A 
ATOM      6  C   UNL     1       7.175   5.891  17.828  0.00  0.00    +0.000 A 
ATOM      7  C   UNL     1       6.331   6.180  16.757  0.00  0.00    +0.000 A 
ATOM      8  C   UNL     1       4.943   6.138  16.927  0.00  0.00    +0.000 A 
ENDBRANCH   2   3
BRANCH   2   9
ATOM      9  N   UNL     1       2.200   4.734  18.704  0.00  0.00    +0.000 N 
ATOM     10  C   UNL     1       1.610   4.655  19.997  0.00  0.00    +0.000 C 
ATOM     11  O   UNL     1       1.587   5.604  20.784  0.00  0.00    +0.000 OA
BRANCH  10  12
ATOM     12  C   UNL     1       0.911   3.336  20.331  0.00  0.00    +0.000 C 
ATOM     13 CL   UNL     1       1.560   2.578  21.803  0.00  0.00    +0.000 Cl
ENDBRANCH  10  12
BRANCH   9  14
ATOM     14  C   UNL     1       2.118   3.574  17.791  0.00  0.00    +0.000 C 
BRANCH  14  15
ATOM     15  C   UNL     1       3.286   2.596  17.612  0.00  0.00    +0.000 C 
BRANCH  15  16
ATOM     16  O   UNL     1       3.360   1.653  18.676  0.00  0.00    +0.000 OA
ATOM     17  C   UNL     1       4.375   2.013  19.608  0.00  0.00    +0.000 C 
ENDBRANCH  15  16
ENDBRANCH  14  15
ENDBRANCH   9  14
ENDBRANCH   2   9
BRANCH   1  19
ATOM     18  C   UNL     1       2.139   9.378  17.859  0.00  0.00    +0.000 C 
ATOM     19  O   UNL     1       2.988   8.239  17.901  0.00  0.00    +0.000 OA
ENDBRANCH   1  19
TORSDOF 7
ENDMDL
MODEL 7
REMARK VINA RESULT:      -5.8      2.683      5.046
REMARK  Name = 
REMARK  9 active torsions:
REMARK  status: ('A' for Active; 'I' for Inactive)
REMARK    1  A    between atoms: C_1  and  O_2
REMARK    2  A    between atoms: O_2  and  C_3
REMARK    3  A    between atoms: C_4  and  C_5
REMARK    4  A    between atoms: C_4  and  N_11
REMARK    5  A    between atoms: N_11  and  C_12
REMARK    6  A    between atoms: C_12  and  C_13
REMARK    7  A    between atoms: C_13  and  O_14
REMARK    8  A    between atoms: O_14  and  C_15
REMARK    9  A    between atoms: C_16  and  C_18
REMARK                            x       y       z     vdW  Elec       q    Type
REMARK                         _______ _______ _______ _____ _____    ______ ____
ROOT
ATOM      1  C   UNL     1       3.444   3.722  17.703  0.00  0.00    +0.000 C 
ATOM      2  C   UNL     1       4.048   4.915  17.870  0.00  0.00    +0.000 C 
ENDROOT
BRANCH   2   3
ATOM      3  C   UNL     1       3.219   6.062  18.321  0.00  0.00    +0.000 A 
ATOM      4  C   UNL     1       3.039   7.199  17.527  0.00  0.00    +0.000 A 
ATOM      5  C   UNL     1       2.334   8.306  18.006  0.00  0.00    +0.000 A 
ATOM      6  C   UNL     1       1.817   8.293  19.302  0.00  0.00    +0.000 A 
ATOM      7  C   UNL     1       2.001   7.175  20.112  0.00  0.00    +0.000 A 
ATOM      8  C   UNL     1       2.696   6.063  19.624  0.00  0.00    +0.000 A 
ENDBRANCH   2   3
BRANCH   2   9
ATOM      9  N   UNL     1       5.417   5.094  17.648  0.00  0.00    +0.000 N 
ATOM     10  C   UNL     1       6.303   5.093  18.761  0.00  0.00    +0.000 C 
ATOM     11  O   UNL     1       5.942   4.815  19.907  0.00  0.00    +0.000 OA
BRANCH  10  12
ATOM     12  C   UNL     1       7.773   5.370  18.443  0.00  0.00    +0.000 C 
ATOM     13 CL   UNL     1       8.179   7.097  18.561  0.00  0.00    +0.000 Cl
ENDBRANCH  10  12
BRANCH   9  14
ATOM     14  C   UNL     1       5.945   5.365  16.294  0.00  0.00    +0.000 C 
BRANCH  14  15
ATOM     15  C   UNL     1       6.287   4.237  15.313  0.00  0.00    +0.000 C 
BRANCH  15  16
ATOM     16  O   UNL     1       5.463   4.272  14.152  0.00  0.00    +0.000 OA
ATOM     17  C   UNL     1       6.101   3.628  13.053  0.00  0.00    +0.000 C 
ENDBRANCH  15  16
ENDBRANCH  14  15
ENDBRANCH   9  14
ENDBRANCH   2   9
BRANCH   1  19
ATOM     18  C   UNL     1       1.892   2.268  18.654  0.00  0.00    +0.000 C 
ATOM     19  O   UNL     1       2.117   3.495  17.973  0.00  0.00    +0.000 OA
ENDBRANCH   1  19
TORSDOF 7
ENDMDL
MODEL 8
REMARK VINA RESULT:      -5.8      1.758      3.031
REMARK  Name = 
REMARK  9 active torsions:
REMARK  status: ('A' for Active; 'I' for Inactive)
REMARK    1  A    between atoms: C_1  and  O_2
REMARK    2  A    between atoms: O_2  and  C_3
REMARK    3  A    between atoms: C_4  and  C_5
REMARK    4  A    between atoms: C_4  and  N_11
REMARK    5  A    between atoms: N_11  and  C_12
REMARK    6  A    between atoms: C_12  and  C_13
REMARK    7  A    between atoms: C_13  and  O_14
REMARK    8  A    between atoms: O_14  and  C_15
REMARK    9  A    between atoms: C_16  and  C_18
REMARK                            x       y       z     vdW  Elec       q    Type
REMARK                         _______ _______ _______ _____ _____    ______ ____
ROOT
ATOM      1  C   UNL     1       5.731   4.574  19.358  0.00  0.00    +0.000 C 
ATOM      2  C   UNL     1       4.705   4.569  18.486  0.00  0.00    +0.000 C 
ENDROOT
BRANCH   2   3
ATOM      3  C   UNL     1       5.011   4.735  17.042  0.00  0.00    +0.000 A 
ATOM      4  C   UNL     1       5.420   3.660  16.246  0.00  0.00    +0.000 A 
ATOM      5  C   UNL     1       5.795   3.854  14.914  0.00  0.00    +0.000 A 
ATOM      6  C   UNL     1       5.784   5.138  14.369  0.00  0.00    +0.000 A 
ATOM      7  C   UNL     1       5.395   6.222  15.153  0.00  0.00    +0.000 A 
ATOM      8  C   UNL     1       5.008   6.022  16.483  0.00  0.00    +0.000 A 
ENDBRANCH   2   3
BRANCH   2   9
ATOM      9  N   UNL     1       3.379   4.399  18.898  0.00  0.00    +0.000 N 
ATOM     10  C   UNL     1       2.952   3.114  19.335  0.00  0.00    +0.000 C 
ATOM     11  O   UNL     1       3.724   2.166  19.491  0.00  0.00    +0.000 OA
BRANCH  10  12
ATOM     12  C   UNL     1       1.471   2.992  19.698  0.00  0.00    +0.000 C 
ATOM     13 CL   UNL     1       1.217   2.742  21.440  0.00  0.00    +0.000 Cl
ENDBRANCH  10  12
BRANCH   9  14
ATOM     14  C   UNL     1       2.401   5.504  18.809  0.00  0.00    +0.000 C 
BRANCH  14  15
ATOM     15  C   UNL     1       2.540   6.783  19.644  0.00  0.00    +0.000 C 
BRANCH  15  16
ATOM     16  O   UNL     1       1.633   6.805  20.741  0.00  0.00    +0.000 OA
ATOM     17  C   UNL     1       1.219   8.135  21.036  0.00  0.00    +0.000 C 
ENDBRANCH  15  16
ENDBRANCH  14  15
ENDBRANCH   9  14
ENDBRANCH   2   9
BRANCH   1  19
ATOM     18  C   UNL     1       7.626   5.930  19.319  0.00  0.00    +0.000 C 
ATOM     19  O   UNL     1       7.049   4.675  18.984  0.00  0.00    +0.000 OA
ENDBRANCH   1  19
TORSDOF 7
ENDMDL
MODEL 9
REMARK VINA RESULT:      -5.7      1.582      3.816
REMARK  Name = 
REMARK  9 active torsions:
REMARK  status: ('A' for Active; 'I' for Inactive)
REMARK    1  A    between atoms: C_1  and  O_2
REMARK    2  A    between atoms: O_2  and  C_3
REMARK    3  A    between atoms: C_4  and  C_5
REMARK    4  A    between atoms: C_4  and  N_11
REMARK    5  A    between atoms: N_11  and  C_12
REMARK    6  A    between atoms: C_12  and  C_13
REMARK    7  A    between atoms: C_13  and  O_14
REMARK    8  A    between atoms: O_14  and  C_15
REMARK    9  A    between atoms: C_16  and  C_18
REMARK                            x       y       z     vdW  Elec       q    Type
REMARK                         _______ _______ _______ _____ _____    ______ ____
ROOT
ATOM      1  C   UNL     1       2.231   7.199  18.229  0.00  0.00    +0.000 C 
ATOM      2  C   UNL     1       2.790   5.978  18.328  0.00  0.00    +0.000 C 
ENDROOT
BRANCH   2   3
ATOM      3  C   UNL     1       4.249   5.854  18.078  0.00  0.00    +0.000 A 
ATOM      4  C   UNL     1       4.776   5.828  16.783  0.00  0.00    +0.000 A 
ATOM      5  C   UNL     1       6.140   5.616  16.565  0.00  0.00    +0.000 A 
ATOM      6  C   UNL     1       6.992   5.405  17.650  0.00  0.00    +0.000 A 
ATOM      7  C   UNL     1       6.481   5.412  18.946  0.00  0.00    +0.000 A 
ATOM      8  C   UNL     1       5.117   5.637  19.160  0.00  0.00    +0.000 A 
ENDBRANCH   2   3
BRANCH   2   9
ATOM      9  N   UNL     1       2.047   4.844  18.670  0.00  0.00    +0.000 N 
ATOM     10  C   UNL     1       1.713   4.623  20.035  0.00  0.00    +0.000 C 
ATOM     11  O   UNL     1       1.938   5.448  20.924  0.00  0.00    +0.000 OA
BRANCH  10  12
ATOM     12  C   UNL     1       0.964   3.323  20.336  0.00  0.00    +0.000 C 
ATOM     13 CL   UNL     1       1.555   2.527  21.813  0.00  0.00    +0.000 Cl
ENDBRANCH  10  12
BRANCH   9  14
ATOM     14  C   UNL     1       1.676   3.836  17.654  0.00  0.00    +0.000 C 
BRANCH  14  15
ATOM     15  C   UNL     1       2.552   2.611  17.364  0.00  0.00    +0.000 C 
BRANCH  15  16
ATOM     16  O   UNL     1       3.794   2.668  18.058  0.00  0.00    +0.000 OA
ATOM     17  C   UNL     1       3.874   1.650  19.049  0.00  0.00    +0.000 C 
ENDBRANCH  15  16
ENDBRANCH  14  15
ENDBRANCH   9  14
ENDBRANCH   2   9
BRANCH   1  19
ATOM     18  C   UNL     1       2.117   9.498  17.865  0.00  0.00    +0.000 C 
ATOM     19  O   UNL     1       2.941   8.343  17.958  0.00  0.00    +0.000 OA
ENDBRANCH   1  19
TORSDOF 7
ENDMDL
