MODEL 1
REMARK VINA RESULT:      -7.3      0.000      0.000
REMARK  Name = 
REMARK  6 active torsions:
REMARK  status: ('A' for Active; 'I' for Inactive)
REMARK    1  A    between atoms: C_1  and  O_2
REMARK    2  A    between atoms: O_2  and  C_3
REMARK    3  A    between atoms: C_8  and  N_9
REMARK    4  A    between atoms: N_12  and  C_13
REMARK    5  A    between atoms: C_13  and  C_14
REMARK    6  A    between atoms: C_14  and  C_15
REMARK                            x       y       z     vdW  Elec       q    Type
REMARK                         _______ _______ _______ _____ _____    ______ ____
ROOT
ATOM      1  N   UNL     1       6.205   6.842  16.789  0.00  0.00    +0.000 N 
ATOM      2  C   UNL     1       7.165   7.267  17.687  0.00  0.00    +0.000 C 
ATOM      3  O   UNL     1       7.488   6.688  18.720  0.00  0.00    +0.000 OA
ATOM      4  N   UNL     1       7.749   8.466  17.317  0.00  0.00    +0.000 N 
ATOM      5  H   UNL     1       6.331   7.088  15.816  0.00  0.00    +0.000 HD
ATOM      6  H   UNL     1       7.160   9.066  16.757  0.00  0.00    +0.000 HD
ENDROOT
BRANCH   1  12
ATOM      7  C   UNL     1       5.430   4.523  16.521  0.00  0.00    +0.000 A 
ATOM      8  C   UNL     1       4.434   3.550  16.714  0.00  0.00    +0.000 A 
ATOM      9  C   UNL     1       3.297   3.833  17.467  0.00  0.00    +0.000 A 
ATOM     10  C   UNL     1       3.129   5.099  18.010  0.00  0.00    +0.000 A 
ATOM     11  C   UNL     1       4.087   6.089  17.782  0.00  0.00    +0.000 A 
ATOM     12  C   UNL     1       5.247   5.819  17.044  0.00  0.00    +0.000 A 
BRANCH   7  14
ATOM     13  C   UNL     1       6.450   4.128  14.423  0.00  0.00    +0.000 C 
ATOM     14  O   UNL     1       6.601   4.265  15.840  0.00  0.00    +0.000 OA
ENDBRANCH   7  14
ENDBRANCH   1  12
BRANCH   4  15
ATOM     15  C   UNL     1       8.655   9.127  18.256  0.00  0.00    +0.000 C 
BRANCH  15  16
ATOM     16  C   UNL     1       8.611  10.656  18.151  0.00  0.00    +0.000 C 
BRANCH  16  17
ATOM     17  C   UNL     1       9.911  11.308  18.567  0.00  0.00    +0.000 A 
ATOM     18  C   UNL     1      10.308  11.296  19.913  0.00  0.00    +0.000 A 
ATOM     19  C   UNL     1      11.507  11.897  20.309  0.00  0.00    +0.000 A 
ATOM     20  C   UNL     1      12.317  12.524  19.365  0.00  0.00    +0.000 A 
ATOM     21  C   UNL     1      11.931  12.547  18.027  0.00  0.00    +0.000 A 
ATOM     22  C   UNL     1      10.734  11.945  17.628  0.00  0.00    +0.000 A 
ENDBRANCH  16  17
ENDBRANCH  15  16
ENDBRANCH   4  15
TORSDOF 5
ENDMDL
MODEL 2
REMARK VINA RESULT:      -7.3      1.048      2.101
REMARK  Name = 
REMARK  6 active torsions:
REMARK  status: ('A' for Active; 'I' for Inactive)
REMARK    1  A    between atoms: C_1  and  O_2
REMARK    2  A    between atoms: O_2  and  C_3
REMARK    3  A    between atoms: C_8  and  N_9
REMARK    4  A    between atoms: N_12  and  C_13
REMARK    5  A    between atoms: C_13  and  C_14
REMARK    6  A    between atoms: C_14  and  C_15
REMARK                            x       y       z     vdW  Elec       q    Type
REMARK                         _______ _______ _______ _____ _____    ______ ____
ROOT
ATOM      1  N   UNL     1       6.211   6.850  16.615  0.00  0.00    +0.000 N 
ATOM      2  C   UNL     1       7.168   7.214  17.542  0.00  0.00    +0.000 C 
ATOM      3  O   UNL     1       7.494   6.563  18.530  0.00  0.00    +0.000 OA
ATOM      4  N   UNL     1       7.745   8.440  17.261  0.00  0.00    +0.000 N 
ATOM      5  H   UNL     1       6.336   7.167  15.662  0.00  0.00    +0.000 HD
ATOM      6  H   UNL     1       7.153   9.076  16.746  0.00  0.00    +0.000 HD
ENDROOT
BRANCH   1  12
ATOM      7  C   UNL     1       4.006   6.074  17.381  0.00  0.00    +0.000 A 
ATOM      8  C   UNL     1       3.113   5.017  17.624  0.00  0.00    +0.000 A 
ATOM      9  C   UNL     1       3.425   3.716  17.236  0.00  0.00    +0.000 A 
ATOM     10  C   UNL     1       4.645   3.453  16.629  0.00  0.00    +0.000 A 
ATOM     11  C   UNL     1       5.562   4.487  16.429  0.00  0.00    +0.000 A 
ATOM     12  C   UNL     1       5.259   5.806  16.793  0.00  0.00    +0.000 A 
BRANCH   7  14
ATOM     13  C   UNL     1       2.410   7.585  18.257  0.00  0.00    +0.000 C 
ATOM     14  O   UNL     1       3.708   7.386  17.687  0.00  0.00    +0.000 OA
ENDBRANCH   7  14
ENDBRANCH   1  12
BRANCH   4  15
ATOM     15  C   UNL     1       8.646   9.036  18.246  0.00  0.00    +0.000 C 
BRANCH  15  16
ATOM     16  C   UNL     1       8.561  10.566  18.284  0.00  0.00    +0.000 C 
BRANCH  16  17
ATOM     17  C   UNL     1       9.881  11.216  18.639  0.00  0.00    +0.000 A 
ATOM     18  C   UNL     1      10.271  11.334  19.983  0.00  0.00    +0.000 A 
ATOM     19  C   UNL     1      11.487  11.935  20.322  0.00  0.00    +0.000 A 
ATOM     20  C   UNL     1      12.322  12.432  19.323  0.00  0.00    +0.000 A 
ATOM     21  C   UNL     1      11.943  12.326  17.988  0.00  0.00    +0.000 A 
ATOM     22  C   UNL     1      10.728  11.723  17.645  0.00  0.00    +0.000 A 
ENDBRANCH  16  17
ENDBRANCH  15  16
ENDBRANCH   4  15
TORSDOF 5
ENDMDL
MODEL 3
REMARK VINA RESULT:      -7.1      1.234      1.431
REMARK  Name = 
REMARK  6 active torsions:
REMARK  status: ('A' for Active; 'I' for Inactive)
REMARK    1  A    between atoms: C_1  and  O_2
REMARK    2  A    between atoms: O_2  and  C_3
REMARK    3  A    between atoms: C_8  and  N_9
REMARK    4  A    between atoms: N_12  and  C_13
REMARK    5  A    between atoms: C_13  and  C_14
REMARK    6  A    between atoms: C_14  and  C_15
REMARK                            x       y       z     vdW  Elec       q    Type
REMARK                         _______ _______ _______ _____ _____    ______ ____
ROOT
ATOM      1  N   UNL     1       6.615   7.280  16.745  0.00  0.00    +0.000 N 
ATOM      2  C   UNL     1       7.554   7.637  17.693  0.00  0.00    +0.000 C 
ATOM      3  O   UNL     1       7.982   6.913  18.587  0.00  0.00    +0.000 OA
ATOM      4  N   UNL     1       7.980   8.947  17.556  0.00  0.00    +0.000 N 
ATOM      5  H   UNL     1       6.673   7.723  15.837  0.00  0.00    +0.000 HD
ATOM      6  H   UNL     1       7.304   9.568  17.134  0.00  0.00    +0.000 HD
ENDROOT
BRANCH   1  12
ATOM      7  C   UNL     1       6.161   4.944  16.124  0.00  0.00    +0.000 A 
ATOM      8  C   UNL     1       5.296   3.836  16.133  0.00  0.00    +0.000 A 
ATOM      9  C   UNL     1       4.108   3.864  16.859  0.00  0.00    +0.000 A 
ATOM     10  C   UNL     1       3.757   5.008  17.561  0.00  0.00    +0.000 A 
ATOM     11  C   UNL     1       4.583   6.133  17.518  0.00  0.00    +0.000 A 
ATOM     12  C   UNL     1       5.792   6.119  16.809  0.00  0.00    +0.000 A 
BRANCH   7  14
ATOM     13  C   UNL     1       7.290   4.939  14.045  0.00  0.00    +0.000 C 
ATOM     14  O   UNL     1       7.377   4.934  15.474  0.00  0.00    +0.000 OA
ENDBRANCH   7  14
ENDBRANCH   1  12
BRANCH   4  15
ATOM     15  C   UNL     1       8.840   9.518  18.591  0.00  0.00    +0.000 C 
BRANCH  15  16
ATOM     16  C   UNL     1       9.517  10.821  18.151  0.00  0.00    +0.000 C 
BRANCH  16  17
ATOM     17  C   UNL     1       9.701  11.799  19.291  0.00  0.00    +0.000 A 
ATOM     18  C   UNL     1       9.372  11.424  20.603  0.00  0.00    +0.000 A 
ATOM     19  C   UNL     1       9.536  12.320  21.664  0.00  0.00    +0.000 A 
ATOM     20  C   UNL     1      10.023  13.603  21.424  0.00  0.00    +0.000 A 
ATOM     21  C   UNL     1      10.348  13.988  20.126  0.00  0.00    +0.000 A 
ATOM     22  C   UNL     1      10.188  13.093  19.063  0.00  0.00    +0.000 A 
ENDBRANCH  16  17
ENDBRANCH  15  16
ENDBRANCH   4  15
TORSDOF 5
ENDMDL
MODEL 4
REMARK VINA RESULT:      -7.1      4.719      6.624
REMARK  Name = 
REMARK  6 active torsions:
REMARK  status: ('A' for Active; 'I' for Inactive)
REMARK    1  A    between atoms: C_1  and  O_2
REMARK    2  A    between atoms: O_2  and  C_3
REMARK    3  A    between atoms: C_8  and  N_9
REMARK    4  A    between atoms: N_12  and  C_13
REMARK    5  A    between atoms: C_13  and  C_14
REMARK    6  A    between atoms: C_14  and  C_15
REMARK                            x       y       z     vdW  Elec       q    Type
REMARK                         _______ _______ _______ _____ _____    ______ ____
ROOT
ATOM      1  N   UNL     1       4.843   3.184  19.120  0.00  0.00    +0.000 N 
ATOM      2  C   UNL     1       5.677   4.285  19.108  0.00  0.00    +0.000 C 
ATOM      3  O   UNL     1       5.549   5.290  19.800  0.00  0.00    +0.000 OA
ATOM      4  N   UNL     1       6.709   4.163  18.194  0.00  0.00    +0.000 N 
ATOM      5  H   UNL     1       5.251   2.284  18.905  0.00  0.00    +0.000 HD
ATOM      6  H   UNL     1       6.502   3.572  17.401  0.00  0.00    +0.000 HD
ENDROOT
BRANCH   1  12
ATOM      7  C   UNL     1       2.451   3.758  19.104  0.00  0.00    +0.000 A 
ATOM      8  C   UNL     1       1.207   3.779  19.759  0.00  0.00    +0.000 A 
ATOM      9  C   UNL     1       1.038   3.149  20.990  0.00  0.00    +0.000 A 
ATOM     10  C   UNL     1       2.116   2.518  21.594  0.00  0.00    +0.000 A 
ATOM     11  C   UNL     1       3.369   2.534  20.977  0.00  0.00    +0.000 A 
ATOM     12  C   UNL     1       3.556   3.144  19.729  0.00  0.00    +0.000 A 
BRANCH   7  14
ATOM     13  C   UNL     1       2.553   5.738  17.814  0.00  0.00    +0.000 C 
ATOM     14  O   UNL     1       2.644   4.309  17.855  0.00  0.00    +0.000 OA
ENDBRANCH   7  14
ENDBRANCH   1  12
BRANCH   4  15
ATOM     15  C   UNL     1       7.569   5.319  17.945  0.00  0.00    +0.000 C 
BRANCH  15  16
ATOM     16  C   UNL     1       7.076   6.187  16.781  0.00  0.00    +0.000 C 
BRANCH  16  17
ATOM     17  C   UNL     1       6.625   5.369  15.591  0.00  0.00    +0.000 A 
ATOM     18  C   UNL     1       5.323   4.849  15.545  0.00  0.00    +0.000 A 
ATOM     19  C   UNL     1       4.896   4.089  14.450  0.00  0.00    +0.000 A 
ATOM     20  C   UNL     1       5.770   3.835  13.395  0.00  0.00    +0.000 A 
ATOM     21  C   UNL     1       7.066   4.342  13.433  0.00  0.00    +0.000 A 
ATOM     22  C   UNL     1       7.495   5.104  14.524  0.00  0.00    +0.000 A 
ENDBRANCH  16  17
ENDBRANCH  15  16
ENDBRANCH   4  15
TORSDOF 5
ENDMDL
MODEL 5
REMARK VINA RESULT:      -7.1      0.994      1.452
REMARK  Name = 
REMARK  6 active torsions:
REMARK  status: ('A' for Active; 'I' for Inactive)
REMARK    1  A    between atoms: C_1  and  O_2
REMARK    2  A    between atoms: O_2  and  C_3
REMARK    3  A    between atoms: C_8  and  N_9
REMARK    4  A    between atoms: N_12  and  C_13
REMARK    5  A    between atoms: C_13  and  C_14
REMARK    6  A    between atoms: C_14  and  C_15
REMARK                            x       y       z     vdW  Elec       q    Type
REMARK                         _______ _______ _______ _____ _____    ______ ____
ROOT
ATOM      1  N   UNL     1       5.838   6.363  17.277  0.00  0.00    +0.000 N 
ATOM      2  C   UNL     1       7.041   6.804  17.793  0.00  0.00    +0.000 C 
ATOM      3  O   UNL     1       7.800   6.151  18.503  0.00  0.00    +0.000 OA
ATOM      4  N   UNL     1       7.325   8.112  17.441  0.00  0.00    +0.000 N 
ATOM      5  H   UNL     1       5.539   6.746  16.390  0.00  0.00    +0.000 HD
ATOM      6  H   UNL     1       6.513   8.687  17.266  0.00  0.00    +0.000 HD
ENDROOT
BRANCH   1  12
ATOM      7  C   UNL     1       4.717   4.236  16.756  0.00  0.00    +0.000 A 
ATOM      8  C   UNL     1       3.970   3.125  17.186  0.00  0.00    +0.000 A 
ATOM      9  C   UNL     1       3.706   2.922  18.538  0.00  0.00    +0.000 A 
ATOM     10  C   UNL     1       4.160   3.841  19.473  0.00  0.00    +0.000 A 
ATOM     11  C   UNL     1       4.859   4.975  19.055  0.00  0.00    +0.000 A 
ATOM     12  C   UNL     1       5.152   5.188  17.701  0.00  0.00    +0.000 A 
BRANCH   7  14
ATOM     13  C   UNL     1       6.284   3.818  15.034  0.00  0.00    +0.000 C 
ATOM     14  O   UNL     1       5.058   4.439  15.436  0.00  0.00    +0.000 OA
ENDBRANCH   7  14
ENDBRANCH   1  12
BRANCH   4  15
ATOM     15  C   UNL     1       8.476   8.771  18.056  0.00  0.00    +0.000 C 
BRANCH  15  16
ATOM     16  C   UNL     1       8.452  10.295  17.884  0.00  0.00    +0.000 C 
BRANCH  16  17
ATOM     17  C   UNL     1       9.633  10.976  18.542  0.00  0.00    +0.000 A 
ATOM     18  C   UNL     1      10.706  11.436  17.764  0.00  0.00    +0.000 A 
ATOM     19  C   UNL     1      11.802  12.065  18.362  0.00  0.00    +0.000 A 
ATOM     20  C   UNL     1      11.841  12.233  19.745  0.00  0.00    +0.000 A 
ATOM     21  C   UNL     1      10.784  11.775  20.527  0.00  0.00    +0.000 A 
ATOM     22  C   UNL     1       9.685  11.148  19.932  0.00  0.00    +0.000 A 
ENDBRANCH  16  17
ENDBRANCH  15  16
ENDBRANCH   4  15
TORSDOF 5
ENDMDL
MODEL 6
REMARK VINA RESULT:      -7.0      5.273      6.921
REMARK  Name = 
REMARK  6 active torsions:
REMARK  status: ('A' for Active; 'I' for Inactive)
REMARK    1  A    between atoms: C_1  and  O_2
REMARK    2  A    between atoms: O_2  and  C_3
REMARK    3  A    between atoms: C_8  and  N_9
REMARK    4  A    between atoms: N_12  and  C_13
REMARK    5  A    between atoms: C_13  and  C_14
REMARK    6  A    between atoms: C_14  and  C_15
REMARK                            x       y       z     vdW  Elec       q    Type
REMARK                         _______ _______ _______ _____ _____    ______ ____
ROOT
ATOM      1  N   UNL     1       4.891   4.619  19.480  0.00  0.00    +0.000 N 
ATOM      2  C   UNL     1       5.366   4.573  18.183  0.00  0.00    +0.000 C 
ATOM      3  O   UNL     1       4.679   4.490  17.170  0.00  0.00    +0.000 OA
ATOM      4  N   UNL     1       6.748   4.612  18.119  0.00  0.00    +0.000 N 
ATOM      5  H   UNL     1       5.435   5.132  20.161  0.00  0.00    +0.000 HD
ATOM      6  H   UNL     1       7.218   4.240  18.932  0.00  0.00    +0.000 HD
ENDROOT
BRANCH   1  12
ATOM      7  C   UNL     1       3.125   2.964  19.920  0.00  0.00    +0.000 A 
ATOM      8  C   UNL     1       1.784   2.679  20.229  0.00  0.00    +0.000 A 
ATOM      9  C   UNL     1       0.892   3.701  20.545  0.00  0.00    +0.000 A 
ATOM     10  C   UNL     1       1.322   5.020  20.527  0.00  0.00    +0.000 A 
ATOM     11  C   UNL     1       2.640   5.320  20.172  0.00  0.00    +0.000 A 
ATOM     12  C   UNL     1       3.558   4.305  19.871  0.00  0.00    +0.000 A 
BRANCH   7  14
ATOM     13  C   UNL     1       3.810   1.214  18.483  0.00  0.00    +0.000 C 
ATOM     14  O   UNL     1       4.057   1.979  19.668  0.00  0.00    +0.000 OA
ENDBRANCH   7  14
ENDBRANCH   1  12
BRANCH   4  15
ATOM     15  C   UNL     1       7.398   4.395  16.828  0.00  0.00    +0.000 C 
BRANCH  15  16
ATOM     16  C   UNL     1       7.023   5.455  15.785  0.00  0.00    +0.000 C 
BRANCH  16  17
ATOM     17  C   UNL     1       6.918   4.888  14.386  0.00  0.00    +0.000 A 
ATOM     18  C   UNL     1       7.755   5.367  13.366  0.00  0.00    +0.000 A 
ATOM     19  C   UNL     1       7.665   4.851  12.070  0.00  0.00    +0.000 A 
ATOM     20  C   UNL     1       6.733   3.858  11.777  0.00  0.00    +0.000 A 
ATOM     21  C   UNL     1       5.894   3.379  12.780  0.00  0.00    +0.000 A 
ATOM     22  C   UNL     1       5.982   3.891  14.078  0.00  0.00    +0.000 A 
ENDBRANCH  16  17
ENDBRANCH  15  16
ENDBRANCH   4  15
TORSDOF 5
ENDMDL
MODEL 7
REMARK VINA RESULT:      -7.0      3.950      5.899
REMARK  Name = 
REMARK  6 active torsions:
REMARK  status: ('A' for Active; 'I' for Inactive)
REMARK    1  A    between atoms: C_1  and  O_2
REMARK    2  A    between atoms: O_2  and  C_3
REMARK    3  A    between atoms: C_8  and  N_9
REMARK    4  A    between atoms: N_12  and  C_13
REMARK    5  A    between atoms: C_13  and  C_14
REMARK    6  A    between atoms: C_14  and  C_15
REMARK                            x       y       z     vdW  Elec       q    Type
REMARK                         _______ _______ _______ _____ _____    ______ ____
ROOT
ATOM      1  N   UNL     1       2.987   4.394  17.526  0.00  0.00    +0.000 N 
ATOM      2  C   UNL     1       4.005   3.689  16.916  0.00  0.00    +0.000 C 
ATOM      3  O   UNL     1       4.391   2.568  17.233  0.00  0.00    +0.000 OA
ATOM      4  N   UNL     1       4.595   4.391  15.879  0.00  0.00    +0.000 N 
ATOM      5  H   UNL     1       2.453   5.037  16.955  0.00  0.00    +0.000 HD
ATOM      6  H   UNL     1       4.548   5.396  15.970  0.00  0.00    +0.000 HD
ENDROOT
BRANCH   1  12
ATOM      7  C   UNL     1       2.560   4.917  19.892  0.00  0.00    +0.000 A 
ATOM      8  C   UNL     1       2.047   4.532  21.142  0.00  0.00    +0.000 A 
ATOM      9  C   UNL     1       1.335   3.344  21.286  0.00  0.00    +0.000 A 
ATOM     10  C   UNL     1       1.152   2.514  20.190  0.00  0.00    +0.000 A 
ATOM     11  C   UNL     1       1.700   2.861  18.953  0.00  0.00    +0.000 A 
ATOM     12  C   UNL     1       2.404   4.061  18.782  0.00  0.00    +0.000 A 
BRANCH   7  14
ATOM     13  C   UNL     1       2.352   7.258  19.620  0.00  0.00    +0.000 C 
ATOM     14  O   UNL     1       3.212   6.116  19.691  0.00  0.00    +0.000 OA
ENDBRANCH   7  14
ENDBRANCH   1  12
BRANCH   4  15
ATOM     15  C   UNL     1       5.799   3.845  15.255  0.00  0.00    +0.000 C 
BRANCH  15  16
ATOM     16  C   UNL     1       6.940   4.865  15.168  0.00  0.00    +0.000 C 
BRANCH  16  17
ATOM     17  C   UNL     1       7.297   5.460  16.512  0.00  0.00    +0.000 A 
ATOM     18  C   UNL     1       7.349   6.853  16.677  0.00  0.00    +0.000 A 
ATOM     19  C   UNL     1       7.679   7.413  17.915  0.00  0.00    +0.000 A 
ATOM     20  C   UNL     1       7.970   6.587  18.998  0.00  0.00    +0.000 A 
ATOM     21  C   UNL     1       7.927   5.204  18.845  0.00  0.00    +0.000 A 
ATOM     22  C   UNL     1       7.595   4.640  17.610  0.00  0.00    +0.000 A 
ENDBRANCH  16  17
ENDBRANCH  15  16
ENDBRANCH   4  15
TORSDOF 5
ENDMDL
MODEL 8
REMARK VINA RESULT:      -7.0      4.830      6.825
REMARK  Name = 
REMARK  6 active torsions:
REMARK  status: ('A' for Active; 'I' for Inactive)
REMARK    1  A    between atoms: C_1  and  O_2
REMARK    2  A    between atoms: O_2  and  C_3
REMARK    3  A    between atoms: C_8  and  N_9
REMARK    4  A    between atoms: N_12  and  C_13
REMARK    5  A    between atoms: C_13  and  C_14
REMARK    6  A    between atoms: C_14  and  C_15
REMARK                            x       y       z     vdW  Elec       q    Type
REMARK                         _______ _______ _______ _____ _____    ______ ____
ROOT
ATOM      1  N   UNL     1       4.401   5.358  19.401  0.00  0.00    +0.000 N 
ATOM      2  C   UNL     1       4.705   5.617  18.079  0.00  0.00    +0.000 C 
ATOM      3  O   UNL     1       3.968   5.412  17.119  0.00  0.00    +0.000 OA
ATOM      4  N   UNL     1       5.978   6.135  17.915  0.00  0.00    +0.000 N 
ATOM      5  H   UNL     1       4.822   5.950  20.104  0.00  0.00    +0.000 HD
ATOM      6  H   UNL     1       6.639   5.862  18.628  0.00  0.00    +0.000 HD
ENDROOT
BRANCH   1  12
ATOM      7  C   UNL     1       3.447   3.172  20.005  0.00  0.00    +0.000 A 
ATOM      8  C   UNL     1       2.332   2.397  20.364  0.00  0.00    +0.000 A 
ATOM      9  C   UNL     1       1.100   2.994  20.622  0.00  0.00    +0.000 A 
ATOM     10  C   UNL     1       0.963   4.369  20.495  0.00  0.00    +0.000 A 
ATOM     11  C   UNL     1       2.051   5.145  20.089  0.00  0.00    +0.000 A 
ATOM     12  C   UNL     1       3.304   4.565  19.844  0.00  0.00    +0.000 A 
BRANCH   7  14
ATOM     13  C   UNL     1       5.033   1.559  20.697  0.00  0.00    +0.000 C 
ATOM     14  O   UNL     1       4.699   2.629  19.806  0.00  0.00    +0.000 OA
ENDBRANCH   7  14
ENDBRANCH   1  12
BRANCH   4  15
ATOM     15  C   UNL     1       6.504   6.294  16.560  0.00  0.00    +0.000 C 
BRANCH  15  16
ATOM     16  C   UNL     1       7.320   5.084  16.091  0.00  0.00    +0.000 C 
BRANCH  16  17
ATOM     17  C   UNL     1       7.023   4.698  14.658  0.00  0.00    +0.000 A 
ATOM     18  C   UNL     1       5.973   3.813  14.369  0.00  0.00    +0.000 A 
ATOM     19  C   UNL     1       5.691   3.448  13.049  0.00  0.00    +0.000 A 
ATOM     20  C   UNL     1       6.461   3.957  12.005  0.00  0.00    +0.000 A 
ATOM     21  C   UNL     1       7.508   4.832  12.281  0.00  0.00    +0.000 A 
ATOM     22  C   UNL     1       7.792   5.201  13.599  0.00  0.00    +0.000 A 
ENDBRANCH  16  17
ENDBRANCH  15  16
ENDBRANCH   4  15
TORSDOF 5
ENDMDL
MODEL 9
REMARK VINA RESULT:      -7.0      5.198      7.235
REMARK  Name = 
REMARK  6 active torsions:
REMARK  status: ('A' for Active; 'I' for Inactive)
REMARK    1  A    between atoms: C_1  and  O_2
REMARK    2  A    between atoms: O_2  and  C_3
REMARK    3  A    between atoms: C_8  and  N_9
REMARK    4  A    between atoms: N_12  and  C_13
REMARK    5  A    between atoms: C_13  and  C_14
REMARK    6  A    between atoms: C_14  and  C_15
REMARK                            x       y       z     vdW  Elec       q    Type
REMARK                         _______ _______ _______ _____ _____    ______ ____
ROOT
ATOM      1  N   UNL     1       4.529   4.885  19.336  0.00  0.00    +0.000 N 
ATOM      2  C   UNL     1       5.127   4.484  18.158  0.00  0.00    +0.000 C 
ATOM      3  O   UNL     1       4.641   3.719  17.331  0.00  0.00    +0.000 OA
ATOM      4  N   UNL     1       6.388   5.028  17.987  0.00  0.00    +0.000 N 
ATOM      5  H   UNL     1       4.757   5.805  19.689  0.00  0.00    +0.000 HD
ATOM      6  H   UNL     1       6.871   5.250  18.846  0.00  0.00    +0.000 HD
ENDROOT
BRANCH   1  12
ATOM      7  C   UNL     1       2.128   4.920  19.871  0.00  0.00    +0.000 A 
ATOM      8  C   UNL     1       1.024   4.340  20.520  0.00  0.00    +0.000 A 
ATOM      9  C   UNL     1       1.138   3.106  21.155  0.00  0.00    +0.000 A 
ATOM     10  C   UNL     1       2.362   2.452  21.175  0.00  0.00    +0.000 A 
ATOM     11  C   UNL     1       3.478   3.042  20.578  0.00  0.00    +0.000 A 
ATOM     12  C   UNL     1       3.380   4.274  19.916  0.00  0.00    +0.000 A 
BRANCH   7  14
ATOM     13  C   UNL     1       2.035   7.281  19.992  0.00  0.00    +0.000 C 
ATOM     14  O   UNL     1       2.042   6.106  19.173  0.00  0.00    +0.000 OA
ENDBRANCH   7  14
ENDBRANCH   1  12
BRANCH   4  15
ATOM     15  C   UNL     1       7.212   4.557  16.874  0.00  0.00    +0.000 C 
BRANCH  15  16
ATOM     16  C   UNL     1       7.230   5.533  15.692  0.00  0.00    +0.000 C 
BRANCH  16  17
ATOM     17  C   UNL     1       6.914   4.860  14.374  0.00  0.00    +0.000 A 
ATOM     18  C   UNL     1       7.722   5.095  13.250  0.00  0.00    +0.000 A 
ATOM     19  C   UNL     1       7.438   4.480  12.027  0.00  0.00    +0.000 A 
ATOM     20  C   UNL     1       6.340   3.631  11.912  0.00  0.00    +0.000 A 
ATOM     21  C   UNL     1       5.529   3.394  13.018  0.00  0.00    +0.000 A 
ATOM     22  C   UNL     1       5.811   4.006  14.244  0.00  0.00    +0.000 A 
ENDBRANCH  16  17
ENDBRANCH  15  16
ENDBRANCH   4  15
TORSDOF 5
ENDMDL
