MODEL 1
REMARK VINA RESULT:      -7.5      0.000      0.000
REMARK  Name = 
REMARK  13 active torsions:
REMARK  status: ('A' for Active; 'I' for Inactive)
REMARK    1  A    between atoms: C_2  and  CA_15
REMARK    2  A    between atoms: N_3  and  CA_4
REMARK    3  A    between atoms: CA_4  and  CB_5
REMARK    4  A    between atoms: CA_4  and  C_12
REMARK    5  A    between atoms: CB_5  and  CG_6
REMARK    6  A    between atoms: C_12  and  OXT_14
REMARK    7  A    between atoms: CA_15  and  C_16
REMARK    8  A    between atoms: CA_15  and  N_19
REMARK    9  A    between atoms: C_16  and  C_17
REMARK   10  A    between atoms: C_17  and  S_18
REMARK   11  A    between atoms: C_20  and  C_22
REMARK   12  A    between atoms: C_22  and  C_23
REMARK   13  A    between atoms: C_22  and  C_29
REMARK                            x       y       z     vdW  Elec       q    Type
REMARK                         _______ _______ _______ _____ _____    ______ ____
ROOT
ATOM      1  CA  UNL     1       1.510   9.647  18.339  0.00  0.00    +0.000 C 
ENDROOT
BRANCH   1   3
ATOM      2  O   UNL     1      -0.815  10.183  18.829  0.00  0.00    +0.000 OA
ATOM      3  C   UNL     1       0.310   9.942  19.262  0.00  0.00    +0.000 C 
ATOM      4  N   UNL     1       0.576   9.926  20.623  0.00  0.00    +0.000 N 
ATOM      5  H   UNL     1       1.542  10.049  20.919  0.00  0.00    +0.000 HD
BRANCH   4   6
ATOM      6  CA  UNL     1      -0.508  10.257  21.586  0.00  0.00    +0.000 C 
BRANCH   6   7
ATOM      7  C   UNL     1      -0.321   9.485  22.903  0.00  0.00    +0.000 C 
ATOM      8  O   UNL     1       0.376   9.860  23.829  0.00  0.00    +0.000 OA
BRANCH   7   9
ATOM      9  OXT UNL     1      -0.973   8.295  22.929  0.00  0.00    +0.000 OA
ATOM     10  HXT UNL     1      -0.778   7.802  22.105  0.00  0.00    +0.000 HD
ENDBRANCH   7   9
ENDBRANCH   6   7
BRANCH   6  11
ATOM     11  CB  UNL     1      -0.594  11.756  21.927  0.00  0.00    +0.000 C 
BRANCH  11  12
ATOM     12  CG  UNL     1      -1.989  12.333  22.026  0.00  0.00    +0.000 A 
ATOM     13  CD1 UNL     1      -2.630  12.947  20.941  0.00  0.00    +0.000 A 
ATOM     14  CE1 UNL     1      -3.889  13.527  21.097  0.00  0.00    +0.000 A 
ATOM     15  CZ  UNL     1      -4.541  13.457  22.324  0.00  0.00    +0.000 A 
ATOM     16  CE2 UNL     1      -3.947  12.788  23.391  0.00  0.00    +0.000 A 
ATOM     17  CD2 UNL     1      -2.682  12.223  23.242  0.00  0.00    +0.000 A 
ENDBRANCH  11  12
ENDBRANCH   6  11
ENDBRANCH   4   6
ENDBRANCH   1   3
BRANCH   1  18
ATOM     18  N   UNL     1       2.304   8.561  18.906  0.00  0.00    +0.000 N 
ATOM     19  C   UNL     1       2.286   7.308  18.320  0.00  0.00    +0.000 C 
ATOM     20  O   UNL     1       1.548   7.091  17.357  0.00  0.00    +0.000 OA
ATOM     21  H   UNL     1       2.990   8.781  19.621  0.00  0.00    +0.000 HD
BRANCH  19  22
ATOM     22  C   UNL     1       3.207   6.231  18.953  0.00  0.00    +0.000 C 
BRANCH  22  23
ATOM     23  C   UNL     1       2.453   4.932  19.251  0.00  0.00    +0.000 A 
ATOM     24  C   UNL     1       2.166   3.986  18.253  0.00  0.00    +0.000 A 
ATOM     25  C   UNL     1       1.355   2.880  18.514  0.00  0.00    +0.000 A 
ATOM     26  C   UNL     1       0.850   2.674  19.792  0.00  0.00    +0.000 A 
ATOM     27  C   UNL     1       1.181   3.560  20.816  0.00  0.00    +0.000 A 
ATOM     28  C   UNL     1       1.977   4.679  20.551  0.00  0.00    +0.000 A 
ENDBRANCH  22  23
BRANCH  22  29
ATOM     29  C   UNL     1       4.485   6.060  18.133  0.00  0.00    +0.000 A 
ATOM     30  C   UNL     1       5.627   5.466  18.707  0.00  0.00    +0.000 A 
ATOM     31  C   UNL     1       6.835   5.408  18.005  0.00  0.00    +0.000 A 
ATOM     32  C   UNL     1       6.924   5.936  16.719  0.00  0.00    +0.000 A 
ATOM     33  C   UNL     1       5.801   6.502  16.125  0.00  0.00    +0.000 A 
ATOM     34  C   UNL     1       4.592   6.558  16.822  0.00  0.00    +0.000 A 
ENDBRANCH  22  29
ENDBRANCH  19  22
ENDBRANCH   1  18
BRANCH   1  35
ATOM     35  C   UNL     1       2.333  10.929  18.130  0.00  0.00    +0.000 C 
BRANCH  35  36
ATOM     36  C   UNL     1       1.577  12.205  18.489  0.00  0.00    +0.000 C 
BRANCH  36  37
ATOM     37  S   UNL     1       2.721  13.620  18.543  0.00  0.00    +0.000 S 
ATOM     38  H   UNL     1       2.396  14.136  17.348  0.00  0.00    +0.000 HD
ENDBRANCH  36  37
ENDBRANCH  35  36
ENDBRANCH   1  35
TORSDOF 13
ENDMDL
MODEL 2
REMARK VINA RESULT:      -7.4      2.896      5.048
REMARK  Name = 
REMARK  13 active torsions:
REMARK  status: ('A' for Active; 'I' for Inactive)
REMARK    1  A    between atoms: C_2  and  CA_15
REMARK    2  A    between atoms: N_3  and  CA_4
REMARK    3  A    between atoms: CA_4  and  CB_5
REMARK    4  A    between atoms: CA_4  and  C_12
REMARK    5  A    between atoms: CB_5  and  CG_6
REMARK    6  A    between atoms: C_12  and  OXT_14
REMARK    7  A    between atoms: CA_15  and  C_16
REMARK    8  A    between atoms: CA_15  and  N_19
REMARK    9  A    between atoms: C_16  and  C_17
REMARK   10  A    between atoms: C_17  and  S_18
REMARK   11  A    between atoms: C_20  and  C_22
REMARK   12  A    between atoms: C_22  and  C_23
REMARK   13  A    between atoms: C_22  and  C_29
REMARK                            x       y       z     vdW  Elec       q    Type
REMARK                         _______ _______ _______ _____ _____    ______ ____
ROOT
ATOM      1  CA  UNL     1       1.727   8.445  19.711  0.00  0.00    +0.000 C 
ENDROOT
BRANCH   1   3
ATOM      2  O   UNL     1       1.370   9.445  17.518  0.00  0.00    +0.000 OA
ATOM      3  C   UNL     1       1.101   9.446  18.718  0.00  0.00    +0.000 C 
ATOM      4  N   UNL     1       0.211  10.361  19.261  0.00  0.00    +0.000 N 
ATOM      5  H   UNL     1       0.266  10.540  20.262  0.00  0.00    +0.000 HD
BRANCH   4   6
ATOM      6  CA  UNL     1      -0.396  11.401  18.389  0.00  0.00    +0.000 C 
BRANCH   6   7
ATOM      7  C   UNL     1      -1.761  10.935  17.855  0.00  0.00    +0.000 C 
ATOM      8  O   UNL     1      -2.826  11.148  18.406  0.00  0.00    +0.000 OA
BRANCH   7   9
ATOM      9  OXT UNL     1      -1.674  10.205  16.714  0.00  0.00    +0.000 OA
ATOM     10  HXT UNL     1      -2.157  10.667  15.998  0.00  0.00    +0.000 HD
ENDBRANCH   7   9
ENDBRANCH   6   7
BRANCH   6  11
ATOM     11  CB  UNL     1      -0.602  12.754  19.094  0.00  0.00    +0.000 C 
BRANCH  11  12
ATOM     12  CG  UNL     1       0.442  13.812  18.815  0.00  0.00    +0.000 A 
ATOM     13  CD1 UNL     1       1.743  13.495  18.400  0.00  0.00    +0.000 A 
ATOM     14  CE1 UNL     1       2.695  14.500  18.221  0.00  0.00    +0.000 A 
ATOM     15  CZ  UNL     1       2.342  15.834  18.408  0.00  0.00    +0.000 A 
ATOM     16  CE2 UNL     1       1.035  16.167  18.751  0.00  0.00    +0.000 A 
ATOM     17  CD2 UNL     1       0.088  15.163  18.946  0.00  0.00    +0.000 A 
ENDBRANCH  11  12
ENDBRANCH   6  11
ENDBRANCH   4   6
ENDBRANCH   1   3
BRANCH   1  18
ATOM     18  N   UNL     1       1.926   7.161  19.047  0.00  0.00    +0.000 N 
ATOM     19  C   UNL     1       3.087   6.920  18.334  0.00  0.00    +0.000 C 
ATOM     20  O   UNL     1       3.925   7.814  18.205  0.00  0.00    +0.000 OA
ATOM     21  H   UNL     1       1.288   6.400  19.257  0.00  0.00    +0.000 HD
BRANCH  19  22
ATOM     22  C   UNL     1       3.240   5.506  17.713  0.00  0.00    +0.000 C 
BRANCH  22  23
ATOM     23  C   UNL     1       4.684   5.217  17.291  0.00  0.00    +0.000 A 
ATOM     24  C   UNL     1       5.039   4.973  15.953  0.00  0.00    +0.000 A 
ATOM     25  C   UNL     1       6.330   4.570  15.608  0.00  0.00    +0.000 A 
ATOM     26  C   UNL     1       7.305   4.446  16.591  0.00  0.00    +0.000 A 
ATOM     27  C   UNL     1       6.995   4.752  17.914  0.00  0.00    +0.000 A 
ATOM     28  C   UNL     1       5.697   5.136  18.264  0.00  0.00    +0.000 A 
ENDBRANCH  22  23
BRANCH  22  29
ATOM     29  C   UNL     1       2.608   4.446  18.614  0.00  0.00    +0.000 A 
ATOM     30  C   UNL     1       1.611   3.585  18.112  0.00  0.00    +0.000 A 
ATOM     31  C   UNL     1       0.945   2.689  18.954  0.00  0.00    +0.000 A 
ATOM     32  C   UNL     1       1.264   2.634  20.309  0.00  0.00    +0.000 A 
ATOM     33  C   UNL     1       2.263   3.456  20.819  0.00  0.00    +0.000 A 
ATOM     34  C   UNL     1       2.932   4.349  19.979  0.00  0.00    +0.000 A 
ENDBRANCH  22  29
ENDBRANCH  19  22
ENDBRANCH   1  18
BRANCH   1  35
ATOM     35  C   UNL     1       0.839   8.330  20.961  0.00  0.00    +0.000 C 
BRANCH  35  36
ATOM     36  C   UNL     1       1.340   9.150  22.145  0.00  0.00    +0.000 C 
BRANCH  36  37
ATOM     37  S   UNL     1      -0.057   9.662  23.193  0.00  0.00    +0.000 S 
ATOM     38  H   UNL     1      -0.911   8.705  22.803  0.00  0.00    +0.000 HD
ENDBRANCH  36  37
ENDBRANCH  35  36
ENDBRANCH   1  35
TORSDOF 13
ENDMDL
MODEL 3
REMARK VINA RESULT:      -7.4      0.556      1.290
REMARK  Name = 
REMARK  13 active torsions:
REMARK  status: ('A' for Active; 'I' for Inactive)
REMARK    1  A    between atoms: C_2  and  CA_15
REMARK    2  A    between atoms: N_3  and  CA_4
REMARK    3  A    between atoms: CA_4  and  CB_5
REMARK    4  A    between atoms: CA_4  and  C_12
REMARK    5  A    between atoms: CB_5  and  CG_6
REMARK    6  A    between atoms: C_12  and  OXT_14
REMARK    7  A    between atoms: CA_15  and  C_16
REMARK    8  A    between atoms: CA_15  and  N_19
REMARK    9  A    between atoms: C_16  and  C_17
REMARK   10  A    between atoms: C_17  and  S_18
REMARK   11  A    between atoms: C_20  and  C_22
REMARK   12  A    between atoms: C_22  and  C_23
REMARK   13  A    between atoms: C_22  and  C_29
REMARK                            x       y       z     vdW  Elec       q    Type
REMARK                         _______ _______ _______ _____ _____    ______ ____
ROOT
ATOM      1  CA  UNL     1       1.373   9.635  18.376  0.00  0.00    +0.000 C 
ENDROOT
BRANCH   1   3
ATOM      2  O   UNL     1      -0.955  10.211  18.805  0.00  0.00    +0.000 OA
ATOM      3  C   UNL     1       0.156   9.961  19.267  0.00  0.00    +0.000 C 
ATOM      4  N   UNL     1       0.390   9.962  20.634  0.00  0.00    +0.000 N 
ATOM      5  H   UNL     1       1.352  10.075  20.951  0.00  0.00    +0.000 HD
BRANCH   4   6
ATOM      6  CA  UNL     1      -0.710  10.322  21.567  0.00  0.00    +0.000 C 
BRANCH   6   7
ATOM      7  C   UNL     1      -0.544   9.594  22.911  0.00  0.00    +0.000 C 
ATOM      8  O   UNL     1       0.030  10.058  23.880  0.00  0.00    +0.000 OA
BRANCH   7   9
ATOM      9  OXT UNL     1      -1.061   8.339  22.914  0.00  0.00    +0.000 OA
ATOM     10  HXT UNL     1      -0.381   7.710  22.598  0.00  0.00    +0.000 HD
ENDBRANCH   7   9
ENDBRANCH   6   7
BRANCH   6  11
ATOM     11  CB  UNL     1      -0.805  11.831  21.856  0.00  0.00    +0.000 C 
BRANCH  11  12
ATOM     12  CG  UNL     1      -2.200  12.382  22.052  0.00  0.00    +0.000 A 
ATOM     13  CD1 UNL     1      -2.805  12.468  23.313  0.00  0.00    +0.000 A 
ATOM     14  CE1 UNL     1      -4.120  12.918  23.439  0.00  0.00    +0.000 A 
ATOM     15  CZ  UNL     1      -4.825  13.331  22.313  0.00  0.00    +0.000 A 
ATOM     16  CE2 UNL     1      -4.212  13.317  21.063  0.00  0.00    +0.000 A 
ATOM     17  CD2 UNL     1      -2.904  12.852  20.934  0.00  0.00    +0.000 A 
ENDBRANCH  11  12
ENDBRANCH   6  11
ENDBRANCH   4   6
ENDBRANCH   1   3
BRANCH   1  18
ATOM     18  N   UNL     1       2.022   8.422  18.866  0.00  0.00    +0.000 N 
ATOM     19  C   UNL     1       2.842   7.687  18.029  0.00  0.00    +0.000 C 
ATOM     20  O   UNL     1       2.972   8.019  16.849  0.00  0.00    +0.000 OA
ATOM     21  H   UNL     1       2.002   8.227  19.862  0.00  0.00    +0.000 HD
BRANCH  19  22
ATOM     22  C   UNL     1       3.539   6.448  18.651  0.00  0.00    +0.000 C 
BRANCH  22  23
ATOM     23  C   UNL     1       2.541   5.341  19.001  0.00  0.00    +0.000 A 
ATOM     24  C   UNL     1       2.079   5.135  20.312  0.00  0.00    +0.000 A 
ATOM     25  C   UNL     1       1.283   4.035  20.636  0.00  0.00    +0.000 A 
ATOM     26  C   UNL     1       0.896   3.141  19.645  0.00  0.00    +0.000 A 
ATOM     27  C   UNL     1       1.282   3.365  18.325  0.00  0.00    +0.000 A 
ATOM     28  C   UNL     1       2.096   4.456  18.002  0.00  0.00    +0.000 A 
ENDBRANCH  22  23
BRANCH  22  29
ATOM     29  C   UNL     1       4.721   6.001  17.791  0.00  0.00    +0.000 A 
ATOM     30  C   UNL     1       5.893   5.502  18.392  0.00  0.00    +0.000 A 
ATOM     31  C   UNL     1       7.021   5.198  17.624  0.00  0.00    +0.000 A 
ATOM     32  C   UNL     1       6.997   5.381  16.243  0.00  0.00    +0.000 A 
ATOM     33  C   UNL     1       5.841   5.847  15.627  0.00  0.00    +0.000 A 
ATOM     34  C   UNL     1       4.712   6.148  16.392  0.00  0.00    +0.000 A 
ENDBRANCH  22  29
ENDBRANCH  19  22
ENDBRANCH   1  18
BRANCH   1  35
ATOM     35  C   UNL     1       2.328  10.839  18.341  0.00  0.00    +0.000 C 
BRANCH  35  36
ATOM     36  C   UNL     1       1.613  12.187  18.372  0.00  0.00    +0.000 C 
BRANCH  36  37
ATOM     37  S   UNL     1       2.284  13.223  19.709  0.00  0.00    +0.000 S 
ATOM     38  H   UNL     1       3.557  13.226  19.289  0.00  0.00    +0.000 HD
ENDBRANCH  36  37
ENDBRANCH  35  36
ENDBRANCH   1  35
TORSDOF 13
ENDMDL
MODEL 4
REMARK VINA RESULT:      -7.4      0.911      3.280
REMARK  Name = 
REMARK  13 active torsions:
REMARK  status: ('A' for Active; 'I' for Inactive)
REMARK    1  A    between atoms: C_2  and  CA_15
REMARK    2  A    between atoms: N_3  and  CA_4
REMARK    3  A    between atoms: CA_4  and  CB_5
REMARK    4  A    between atoms: CA_4  and  C_12
REMARK    5  A    between atoms: CB_5  and  CG_6
REMARK    6  A    between atoms: C_12  and  OXT_14
REMARK    7  A    between atoms: CA_15  and  C_16
REMARK    8  A    between atoms: CA_15  and  N_19
REMARK    9  A    between atoms: C_16  and  C_17
REMARK   10  A    between atoms: C_17  and  S_18
REMARK   11  A    between atoms: C_20  and  C_22
REMARK   12  A    between atoms: C_22  and  C_23
REMARK   13  A    between atoms: C_22  and  C_29
REMARK                            x       y       z     vdW  Elec       q    Type
REMARK                         _______ _______ _______ _____ _____    ______ ____
ROOT
ATOM      1  CA  UNL     1       1.335  10.037  17.997  0.00  0.00    +0.000 C 
ENDROOT
BRANCH   1   3
ATOM      2  O   UNL     1      -0.706   9.288  19.096  0.00  0.00    +0.000 OA
ATOM      3  C   UNL     1       0.381   9.854  19.195  0.00  0.00    +0.000 C 
ATOM      4  N   UNL     1       0.820  10.376  20.403  0.00  0.00    +0.000 N 
ATOM      5  H   UNL     1       1.538  11.097  20.375  0.00  0.00    +0.000 HD
BRANCH   4   6
ATOM      6  CA  UNL     1      -0.060  10.298  21.599  0.00  0.00    +0.000 C 
BRANCH   6   7
ATOM      7  C   UNL     1       0.607   9.475  22.713  0.00  0.00    +0.000 C 
ATOM      8  O   UNL     1       0.354   9.589  23.900  0.00  0.00    +0.000 OA
BRANCH   7   9
ATOM      9  OXT UNL     1       1.563   8.624  22.260  0.00  0.00    +0.000 OA
ATOM     10  HXT UNL     1       1.286   8.261  21.393  0.00  0.00    +0.000 HD
ENDBRANCH   7   9
ENDBRANCH   6   7
BRANCH   6  11
ATOM     11  CB  UNL     1      -0.429  11.673  22.184  0.00  0.00    +0.000 C 
BRANCH  11  12
ATOM     12  CG  UNL     1      -1.869  12.102  22.011  0.00  0.00    +0.000 A 
ATOM     13  CD1 UNL     1      -2.424  12.389  20.756  0.00  0.00    +0.000 A 
ATOM     14  CE1 UNL     1      -3.737  12.848  20.649  0.00  0.00    +0.000 A 
ATOM     15  CZ  UNL     1      -4.523  12.979  21.790  0.00  0.00    +0.000 A 
ATOM     16  CE2 UNL     1      -4.008  12.630  23.035  0.00  0.00    +0.000 A 
ATOM     17  CD2 UNL     1      -2.691  12.187  23.145  0.00  0.00    +0.000 A 
ENDBRANCH  11  12
ENDBRANCH   6  11
ENDBRANCH   4   6
ENDBRANCH   1   3
BRANCH   1  18
ATOM     18  N   UNL     1       1.845   8.734  17.579  0.00  0.00    +0.000 N 
ATOM     19  C   UNL     1       2.329   7.844  18.521  0.00  0.00    +0.000 C 
ATOM     20  O   UNL     1       2.392   8.177  19.706  0.00  0.00    +0.000 OA
ATOM     21  H   UNL     1       1.681   8.430  16.625  0.00  0.00    +0.000 HD
BRANCH  19  22
ATOM     22  C   UNL     1       2.793   6.460  17.995  0.00  0.00    +0.000 C 
BRANCH  22  23
ATOM     23  C   UNL     1       4.317   6.313  18.027  0.00  0.00    +0.000 A 
ATOM     24  C   UNL     1       5.148   6.908  17.062  0.00  0.00    +0.000 A 
ATOM     25  C   UNL     1       6.518   6.645  17.024  0.00  0.00    +0.000 A 
ATOM     26  C   UNL     1       7.094   5.816  17.979  0.00  0.00    +0.000 A 
ATOM     27  C   UNL     1       6.302   5.273  18.989  0.00  0.00    +0.000 A 
ATOM     28  C   UNL     1       4.926   5.519  19.016  0.00  0.00    +0.000 A 
ENDBRANCH  22  23
BRANCH  22  29
ATOM     29  C   UNL     1       2.024   5.332  18.682  0.00  0.00    +0.000 A 
ATOM     30  C   UNL     1       1.822   5.352  20.077  0.00  0.00    +0.000 A 
ATOM     31  C   UNL     1       1.221   4.273  20.731  0.00  0.00    +0.000 A 
ATOM     32  C   UNL     1       0.806   3.158  20.006  0.00  0.00    +0.000 A 
ATOM     33  C   UNL     1       0.971   3.130  18.626  0.00  0.00    +0.000 A 
ATOM     34  C   UNL     1       1.569   4.208  17.969  0.00  0.00    +0.000 A 
ENDBRANCH  22  29
ENDBRANCH  19  22
ENDBRANCH   1  18
BRANCH   1  35
ATOM     35  C   UNL     1       2.460  11.016  18.373  0.00  0.00    +0.000 C 
BRANCH  35  36
ATOM     36  C   UNL     1       2.183  12.456  17.952  0.00  0.00    +0.000 C 
BRANCH  36  37
ATOM     37  S   UNL     1       2.243  13.557  19.399  0.00  0.00    +0.000 S 
ATOM     38  H   UNL     1       3.237  12.926  20.042  0.00  0.00    +0.000 HD
ENDBRANCH  36  37
ENDBRANCH  35  36
ENDBRANCH   1  35
TORSDOF 13
ENDMDL
MODEL 5
REMARK VINA RESULT:      -7.3      0.944      3.459
REMARK  Name = 
REMARK  13 active torsions:
REMARK  status: ('A' for Active; 'I' for Inactive)
REMARK    1  A    between atoms: C_2  and  CA_15
REMARK    2  A    between atoms: N_3  and  CA_4
REMARK    3  A    between atoms: CA_4  and  CB_5
REMARK    4  A    between atoms: CA_4  and  C_12
REMARK    5  A    between atoms: CB_5  and  CG_6
REMARK    6  A    between atoms: C_12  and  OXT_14
REMARK    7  A    between atoms: CA_15  and  C_16
REMARK    8  A    between atoms: CA_15  and  N_19
REMARK    9  A    between atoms: C_16  and  C_17
REMARK   10  A    between atoms: C_17  and  S_18
REMARK   11  A    between atoms: C_20  and  C_22
REMARK   12  A    between atoms: C_22  and  C_23
REMARK   13  A    between atoms: C_22  and  C_29
REMARK                            x       y       z     vdW  Elec       q    Type
REMARK                         _______ _______ _______ _____ _____    ______ ____
ROOT
ATOM      1  CA  UNL     1       1.415  10.041  17.961  0.00  0.00    +0.000 C 
ENDROOT
BRANCH   1   3
ATOM      2  O   UNL     1      -0.682   9.338  18.983  0.00  0.00    +0.000 OA
ATOM      3  C   UNL     1       0.418   9.867  19.126  0.00  0.00    +0.000 C 
ATOM      4  N   UNL     1       0.836  10.351  20.356  0.00  0.00    +0.000 N 
ATOM      5  H   UNL     1       1.577  11.050  20.365  0.00  0.00    +0.000 HD
BRANCH   4   6
ATOM      6  CA  UNL     1      -0.083  10.280  21.524  0.00  0.00    +0.000 C 
BRANCH   6   7
ATOM      7  C   UNL     1       0.517   9.403  22.635  0.00  0.00    +0.000 C 
ATOM      8  O   UNL     1       0.431   9.645  23.826  0.00  0.00    +0.000 OA
BRANCH   7   9
ATOM      9  OXT UNL     1       1.211   8.334  22.167  0.00  0.00    +0.000 OA
ATOM     10  HXT UNL     1       2.158   8.571  22.095  0.00  0.00    +0.000 HD
ENDBRANCH   7   9
ENDBRANCH   6   7
BRANCH   6  11
ATOM     11  CB  UNL     1      -0.415  11.654  22.133  0.00  0.00    +0.000 C 
BRANCH  11  12
ATOM     12  CG  UNL     1      -1.844  12.122  21.971  0.00  0.00    +0.000 A 
ATOM     13  CD1 UNL     1      -2.711  12.286  23.060  0.00  0.00    +0.000 A 
ATOM     14  CE1 UNL     1      -4.041  12.654  22.858  0.00  0.00    +0.000 A 
ATOM     15  CZ  UNL     1      -4.505  12.909  21.570  0.00  0.00    +0.000 A 
ATOM     16  CE2 UNL     1      -3.637  12.818  20.486  0.00  0.00    +0.000 A 
ATOM     17  CD2 UNL     1      -2.311  12.435  20.685  0.00  0.00    +0.000 A 
ENDBRANCH  11  12
ENDBRANCH   6  11
ENDBRANCH   4   6
ENDBRANCH   1   3
BRANCH   1  18
ATOM     18  N   UNL     1       1.911   8.733  17.546  0.00  0.00    +0.000 N 
ATOM     19  C   UNL     1       2.370   7.833  18.491  0.00  0.00    +0.000 C 
ATOM     20  O   UNL     1       2.423   8.162  19.679  0.00  0.00    +0.000 OA
ATOM     21  H   UNL     1       1.754   8.433  16.589  0.00  0.00    +0.000 HD
BRANCH  19  22
ATOM     22  C   UNL     1       2.820   6.443  17.968  0.00  0.00    +0.000 C 
BRANCH  22  23
ATOM     23  C   UNL     1       4.344   6.286  17.989  0.00  0.00    +0.000 A 
ATOM     24  C   UNL     1       5.000   5.470  18.926  0.00  0.00    +0.000 A 
ATOM     25  C   UNL     1       6.392   5.451  19.022  0.00  0.00    +0.000 A 
ATOM     26  C   UNL     1       7.159   6.216  18.152  0.00  0.00    +0.000 A 
ATOM     27  C   UNL     1       6.533   6.978  17.167  0.00  0.00    +0.000 A 
ATOM     28  C   UNL     1       5.137   7.013  17.083  0.00  0.00    +0.000 A 
ENDBRANCH  22  23
BRANCH  22  29
ATOM     29  C   UNL     1       2.048   5.324  18.665  0.00  0.00    +0.000 A 
ATOM     30  C   UNL     1       1.860   5.349  20.061  0.00  0.00    +0.000 A 
ATOM     31  C   UNL     1       1.256   4.276  20.724  0.00  0.00    +0.000 A 
ATOM     32  C   UNL     1       0.824   3.163  20.005  0.00  0.00    +0.000 A 
ATOM     33  C   UNL     1       0.975   3.131  18.623  0.00  0.00    +0.000 A 
ATOM     34  C   UNL     1       1.575   4.203  17.958  0.00  0.00    +0.000 A 
ENDBRANCH  22  29
ENDBRANCH  19  22
ENDBRANCH   1  18
BRANCH   1  35
ATOM     35  C   UNL     1       2.546  10.993  18.384  0.00  0.00    +0.000 C 
BRANCH  35  36
ATOM     36  C   UNL     1       2.296  12.448  18.002  0.00  0.00    +0.000 C 
BRANCH  36  37
ATOM     37  S   UNL     1       2.446  13.517  19.467  0.00  0.00    +0.000 S 
ATOM     38  H   UNL     1       1.442  14.352  19.162  0.00  0.00    +0.000 HD
ENDBRANCH  36  37
ENDBRANCH  35  36
ENDBRANCH   1  35
TORSDOF 13
ENDMDL
MODEL 6
REMARK VINA RESULT:      -7.3      2.764      5.745
REMARK  Name = 
REMARK  13 active torsions:
REMARK  status: ('A' for Active; 'I' for Inactive)
REMARK    1  A    between atoms: C_2  and  CA_15
REMARK    2  A    between atoms: N_3  and  CA_4
REMARK    3  A    between atoms: CA_4  and  CB_5
REMARK    4  A    between atoms: CA_4  and  C_12
REMARK    5  A    between atoms: CB_5  and  CG_6
REMARK    6  A    between atoms: C_12  and  OXT_14
REMARK    7  A    between atoms: CA_15  and  C_16
REMARK    8  A    between atoms: CA_15  and  N_19
REMARK    9  A    between atoms: C_16  and  C_17
REMARK   10  A    between atoms: C_17  and  S_18
REMARK   11  A    between atoms: C_20  and  C_22
REMARK   12  A    between atoms: C_22  and  C_23
REMARK   13  A    between atoms: C_22  and  C_29
REMARK                            x       y       z     vdW  Elec       q    Type
REMARK                         _______ _______ _______ _____ _____    ______ ____
ROOT
ATOM      1  CA  UNL     1       1.284   9.637  19.676  0.00  0.00    +0.000 C 
ENDROOT
BRANCH   1   3
ATOM      2  O   UNL     1       2.217  11.044  17.919  0.00  0.00    +0.000 OA
ATOM      3  C   UNL     1       1.536  10.969  18.940  0.00  0.00    +0.000 C 
ATOM      4  N   UNL     1       0.949  12.092  19.504  0.00  0.00    +0.000 N 
ATOM      5  H   UNL     1       0.685  12.047  20.486  0.00  0.00    +0.000 HD
BRANCH   4   6
ATOM      6  CA  UNL     1       1.186  13.428  18.896  0.00  0.00    +0.000 C 
BRANCH   6   7
ATOM      7  C   UNL     1      -0.141  14.069  18.455  0.00  0.00    +0.000 C 
ATOM      8  O   UNL     1      -0.519  15.175  18.799  0.00  0.00    +0.000 OA
BRANCH   7   9
ATOM      9  OXT UNL     1      -0.898  13.261  17.671  0.00  0.00    +0.000 OA
ATOM     10  HXT UNL     1      -1.645  12.908  18.198  0.00  0.00    +0.000 HD
ENDBRANCH   7   9
ENDBRANCH   6   7
BRANCH   6  11
ATOM     11  CB  UNL     1       1.899  14.417  19.835  0.00  0.00    +0.000 C 
BRANCH  11  12
ATOM     12  CG  UNL     1       3.241  14.930  19.362  0.00  0.00    +0.000 A 
ATOM     13  CD1 UNL     1       3.906  14.390  18.253  0.00  0.00    +0.000 A 
ATOM     14  CE1 UNL     1       5.174  14.848  17.894  0.00  0.00    +0.000 A 
ATOM     15  CZ  UNL     1       5.769  15.882  18.610  0.00  0.00    +0.000 A 
ATOM     16  CE2 UNL     1       5.090  16.475  19.671  0.00  0.00    +0.000 A 
ATOM     17  CD2 UNL     1       3.830  16.008  20.041  0.00  0.00    +0.000 A 
ENDBRANCH  11  12
ENDBRANCH   6  11
ENDBRANCH   4   6
ENDBRANCH   1   3
BRANCH   1  18
ATOM     18  N   UNL     1       1.706   8.526  18.828  0.00  0.00    +0.000 N 
ATOM     19  C   UNL     1       2.251   7.388  19.394  0.00  0.00    +0.000 C 
ATOM     20  O   UNL     1       2.442   7.338  20.612  0.00  0.00    +0.000 OA
ATOM     21  H   UNL     1       1.437   8.531  17.849  0.00  0.00    +0.000 HD
BRANCH  19  22
ATOM     22  C   UNL     1       2.613   6.233  18.423  0.00  0.00    +0.000 C 
BRANCH  22  23
ATOM     23  C   UNL     1       4.122   6.138  18.179  0.00  0.00    +0.000 A 
ATOM     24  C   UNL     1       4.737   6.713  17.054  0.00  0.00    +0.000 A 
ATOM     25  C   UNL     1       6.087   6.494  16.774  0.00  0.00    +0.000 A 
ATOM     26  C   UNL     1       6.861   5.731  17.639  0.00  0.00    +0.000 A 
ATOM     27  C   UNL     1       6.290   5.211  18.800  0.00  0.00    +0.000 A 
ATOM     28  C   UNL     1       4.933   5.413  19.070  0.00  0.00    +0.000 A 
ENDBRANCH  22  23
BRANCH  22  29
ATOM     29  C   UNL     1       1.948   4.928  18.860  0.00  0.00    +0.000 A 
ATOM     30  C   UNL     1       1.583   4.729  20.207  0.00  0.00    +0.000 A 
ATOM     31  C   UNL     1       1.080   3.498  20.640  0.00  0.00    +0.000 A 
ATOM     32  C   UNL     1       0.928   2.448  19.738  0.00  0.00    +0.000 A 
ATOM     33  C   UNL     1       1.257   2.632  18.399  0.00  0.00    +0.000 A 
ATOM     34  C   UNL     1       1.757   3.862  17.963  0.00  0.00    +0.000 A 
ENDBRANCH  22  29
ENDBRANCH  19  22
ENDBRANCH   1  18
BRANCH   1  35
ATOM     35  C   UNL     1      -0.196   9.539  20.081  0.00  0.00    +0.000 C 
BRANCH  35  36
ATOM     36  C   UNL     1      -0.408   9.035  21.506  0.00  0.00    +0.000 C 
BRANCH  36  37
ATOM     37  S   UNL     1      -0.571  10.440  22.651  0.00  0.00    +0.000 S 
ATOM     38  H   UNL     1      -1.572  11.058  22.008  0.00  0.00    +0.000 HD
ENDBRANCH  36  37
ENDBRANCH  35  36
ENDBRANCH   1  35
TORSDOF 13
ENDMDL
MODEL 7
REMARK VINA RESULT:      -7.3      2.371      4.526
REMARK  Name = 
REMARK  13 active torsions:
REMARK  status: ('A' for Active; 'I' for Inactive)
REMARK    1  A    between atoms: C_2  and  CA_15
REMARK    2  A    between atoms: N_3  and  CA_4
REMARK    3  A    between atoms: CA_4  and  CB_5
REMARK    4  A    between atoms: CA_4  and  C_12
REMARK    5  A    between atoms: CB_5  and  CG_6
REMARK    6  A    between atoms: C_12  and  OXT_14
REMARK    7  A    between atoms: CA_15  and  C_16
REMARK    8  A    between atoms: CA_15  and  N_19
REMARK    9  A    between atoms: C_16  and  C_17
REMARK   10  A    between atoms: C_17  and  S_18
REMARK   11  A    between atoms: C_20  and  C_22
REMARK   12  A    between atoms: C_22  and  C_23
REMARK   13  A    between atoms: C_22  and  C_29
REMARK                            x       y       z     vdW  Elec       q    Type
REMARK                         _______ _______ _______ _____ _____    ______ ____
ROOT
ATOM      1  CA  UNL     1       1.580   8.768  19.516  0.00  0.00    +0.000 C 
ENDROOT
BRANCH   1   3
ATOM      2  O   UNL     1       1.686  10.057  17.450  0.00  0.00    +0.000 OA
ATOM      3  C   UNL     1       1.008   9.664  18.397  0.00  0.00    +0.000 C 
ATOM      4  N   UNL     1      -0.329  10.009  18.524  0.00  0.00    +0.000 N 
ATOM      5  H   UNL     1      -0.750   9.946  19.449  0.00  0.00    +0.000 HD
BRANCH   4   6
ATOM      6  CA  UNL     1      -0.951  10.917  17.524  0.00  0.00    +0.000 C 
BRANCH   6   7
ATOM      7  C   UNL     1      -2.305  10.361  17.051  0.00  0.00    +0.000 C 
ATOM      8  O   UNL     1      -2.839  10.653  15.996  0.00  0.00    +0.000 OA
BRANCH   7   9
ATOM      9  OXT UNL     1      -2.895   9.534  17.952  0.00  0.00    +0.000 OA
ATOM     10  HXT UNL     1      -3.325  10.071  18.649  0.00  0.00    +0.000 HD
ENDBRANCH   7   9
ENDBRANCH   6   7
BRANCH   6  11
ATOM     11  CB  UNL     1      -1.184  12.345  18.047  0.00  0.00    +0.000 C 
BRANCH  11  12
ATOM     12  CG  UNL     1      -1.160  12.512  19.550  0.00  0.00    +0.000 A 
ATOM     13  CD1 UNL     1       0.003  12.860  20.251  0.00  0.00    +0.000 A 
ATOM     14  CE1 UNL     1      -0.004  12.936  21.644  0.00  0.00    +0.000 A 
ATOM     15  CZ  UNL     1      -1.184  12.711  22.347  0.00  0.00    +0.000 A 
ATOM     16  CE2 UNL     1      -2.362  12.433  21.660  0.00  0.00    +0.000 A 
ATOM     17  CD2 UNL     1      -2.353  12.342  20.269  0.00  0.00    +0.000 A 
ENDBRANCH  11  12
ENDBRANCH   6  11
ENDBRANCH   4   6
ENDBRANCH   1   3
BRANCH   1  18
ATOM     18  N   UNL     1       1.790   7.420  18.999  0.00  0.00    +0.000 N 
ATOM     19  C   UNL     1       2.958   7.107  18.327  0.00  0.00    +0.000 C 
ATOM     20  O   UNL     1       3.794   7.986  18.106  0.00  0.00    +0.000 OA
ATOM     21  H   UNL     1       1.153   6.683  19.286  0.00  0.00    +0.000 HD
BRANCH  19  22
ATOM     22  C   UNL     1       3.123   5.634  17.867  0.00  0.00    +0.000 C 
BRANCH  22  23
ATOM     23  C   UNL     1       4.570   5.307  17.488  0.00  0.00    +0.000 A 
ATOM     24  C   UNL     1       4.931   4.887  16.197  0.00  0.00    +0.000 A 
ATOM     25  C   UNL     1       6.227   4.457  15.909  0.00  0.00    +0.000 A 
ATOM     26  C   UNL     1       7.203   4.481  16.899  0.00  0.00    +0.000 A 
ATOM     27  C   UNL     1       6.887   4.964  18.168  0.00  0.00    +0.000 A 
ATOM     28  C   UNL     1       5.583   5.375  18.462  0.00  0.00    +0.000 A 
ENDBRANCH  22  23
BRANCH  22  29
ATOM     29  C   UNL     1       2.490   4.677  18.876  0.00  0.00    +0.000 A 
ATOM     30  C   UNL     1       1.540   3.723  18.457  0.00  0.00    +0.000 A 
ATOM     31  C   UNL     1       0.871   2.920  19.386  0.00  0.00    +0.000 A 
ATOM     32  C   UNL     1       1.140   3.051  20.746  0.00  0.00    +0.000 A 
ATOM     33  C   UNL     1       2.093   3.966  21.178  0.00  0.00    +0.000 A 
ATOM     34  C   UNL     1       2.766   4.767  20.252  0.00  0.00    +0.000 A 
ENDBRANCH  22  29
ENDBRANCH  19  22
ENDBRANCH   1  18
BRANCH   1  35
ATOM     35  C   UNL     1       0.640   8.793  20.732  0.00  0.00    +0.000 C 
BRANCH  35  36
ATOM     36  C   UNL     1       1.311   9.282  22.013  0.00  0.00    +0.000 C 
BRANCH  36  37
ATOM     37  S   UNL     1       0.074   9.482  23.333  0.00  0.00    +0.000 S 
ATOM     38  H   UNL     1      -0.756  10.289  22.656  0.00  0.00    +0.000 HD
ENDBRANCH  36  37
ENDBRANCH  35  36
ENDBRANCH   1  35
TORSDOF 13
ENDMDL
MODEL 8
REMARK VINA RESULT:      -7.3      0.955      1.586
REMARK  Name = 
REMARK  13 active torsions:
REMARK  status: ('A' for Active; 'I' for Inactive)
REMARK    1  A    between atoms: C_2  and  CA_15
REMARK    2  A    between atoms: N_3  and  CA_4
REMARK    3  A    between atoms: CA_4  and  CB_5
REMARK    4  A    between atoms: CA_4  and  C_12
REMARK    5  A    between atoms: CB_5  and  CG_6
REMARK    6  A    between atoms: C_12  and  OXT_14
REMARK    7  A    between atoms: CA_15  and  C_16
REMARK    8  A    between atoms: CA_15  and  N_19
REMARK    9  A    between atoms: C_16  and  C_17
REMARK   10  A    between atoms: C_17  and  S_18
REMARK   11  A    between atoms: C_20  and  C_22
REMARK   12  A    between atoms: C_22  and  C_23
REMARK   13  A    between atoms: C_22  and  C_29
REMARK                            x       y       z     vdW  Elec       q    Type
REMARK                         _______ _______ _______ _____ _____    ______ ____
ROOT
ATOM      1  CA  UNL     1       1.452   9.632  18.193  0.00  0.00    +0.000 C 
ENDROOT
BRANCH   1   3
ATOM      2  O   UNL     1      -0.857  10.188  18.738  0.00  0.00    +0.000 OA
ATOM      3  C   UNL     1       0.287   9.989  19.140  0.00  0.00    +0.000 C 
ATOM      4  N   UNL     1       0.609  10.080  20.486  0.00  0.00    +0.000 N 
ATOM      5  H   UNL     1       1.586  10.232  20.731  0.00  0.00    +0.000 HD
BRANCH   4   6
ATOM      6  CA  UNL     1      -0.436  10.477  21.466  0.00  0.00    +0.000 C 
BRANCH   6   7
ATOM      7  C   UNL     1      -0.464   9.504  22.656  0.00  0.00    +0.000 C 
ATOM      8  O   UNL     1      -0.934   8.381  22.617  0.00  0.00    +0.000 OA
BRANCH   7   9
ATOM      9  OXT UNL     1       0.047  10.031  23.798  0.00  0.00    +0.000 OA
ATOM     10  HXT UNL     1       0.069   9.339  24.491  0.00  0.00    +0.000 HD
ENDBRANCH   7   9
ENDBRANCH   6   7
BRANCH   6  11
ATOM     11  CB  UNL     1      -0.252  11.899  22.024  0.00  0.00    +0.000 C 
BRANCH  11  12
ATOM     12  CG  UNL     1      -1.520  12.630  22.407  0.00  0.00    +0.000 A 
ATOM     13  CD1 UNL     1      -1.577  13.528  23.482  0.00  0.00    +0.000 A 
ATOM     14  CE1 UNL     1      -2.785  14.126  23.842  0.00  0.00    +0.000 A 
ATOM     15  CZ  UNL     1      -3.936  13.871  23.103  0.00  0.00    +0.000 A 
ATOM     16  CE2 UNL     1      -3.879  13.037  21.990  0.00  0.00    +0.000 A 
ATOM     17  CD2 UNL     1      -2.677  12.425  21.639  0.00  0.00    +0.000 A 
ENDBRANCH  11  12
ENDBRANCH   6  11
ENDBRANCH   4   6
ENDBRANCH   1   3
BRANCH   1  18
ATOM     18  N   UNL     1       2.121   8.429  18.678  0.00  0.00    +0.000 N 
ATOM     19  C   UNL     1       2.945   7.705  17.835  0.00  0.00    +0.000 C 
ATOM     20  O   UNL     1       3.061   8.039  16.653  0.00  0.00    +0.000 OA
ATOM     21  H   UNL     1       2.110   8.233  19.674  0.00  0.00    +0.000 HD
BRANCH  19  22
ATOM     22  C   UNL     1       3.663   6.476  18.452  0.00  0.00    +0.000 C 
BRANCH  22  23
ATOM     23  C   UNL     1       2.673   5.409  18.928  0.00  0.00    +0.000 A 
ATOM     24  C   UNL     1       2.495   5.106  20.289  0.00  0.00    +0.000 A 
ATOM     25  C   UNL     1       1.697   4.035  20.694  0.00  0.00    +0.000 A 
ATOM     26  C   UNL     1       1.024   3.272  19.748  0.00  0.00    +0.000 A 
ATOM     27  C   UNL     1       1.127   3.600  18.397  0.00  0.00    +0.000 A 
ATOM     28  C   UNL     1       1.942   4.660  17.988  0.00  0.00    +0.000 A 
ENDBRANCH  22  23
BRANCH  22  29
ATOM     29  C   UNL     1       4.761   5.964  17.520  0.00  0.00    +0.000 A 
ATOM     30  C   UNL     1       4.517   4.874  16.660  0.00  0.00    +0.000 A 
ATOM     31  C   UNL     1       5.545   4.325  15.887  0.00  0.00    +0.000 A 
ATOM     32  C   UNL     1       6.831   4.856  15.954  0.00  0.00    +0.000 A 
ATOM     33  C   UNL     1       7.086   5.949  16.775  0.00  0.00    +0.000 A 
ATOM     34  C   UNL     1       6.061   6.502  17.546  0.00  0.00    +0.000 A 
ENDBRANCH  22  29
ENDBRANCH  19  22
ENDBRANCH   1  18
BRANCH   1  35
ATOM     35  C   UNL     1       2.409  10.830  18.072  0.00  0.00    +0.000 C 
BRANCH  35  36
ATOM     36  C   UNL     1       1.704  12.182  18.109  0.00  0.00    +0.000 C 
BRANCH  36  37
ATOM     37  S   UNL     1       2.385  13.210  19.447  0.00  0.00    +0.000 S 
ATOM     38  H   UNL     1       1.293  13.207  20.226  0.00  0.00    +0.000 HD
ENDBRANCH  36  37
ENDBRANCH  35  36
ENDBRANCH   1  35
TORSDOF 13
ENDMDL
MODEL 9
REMARK VINA RESULT:      -7.3      2.667      5.338
REMARK  Name = 
REMARK  13 active torsions:
REMARK  status: ('A' for Active; 'I' for Inactive)
REMARK    1  A    between atoms: C_2  and  CA_15
REMARK    2  A    between atoms: N_3  and  CA_4
REMARK    3  A    between atoms: CA_4  and  CB_5
REMARK    4  A    between atoms: CA_4  and  C_12
REMARK    5  A    between atoms: CB_5  and  CG_6
REMARK    6  A    between atoms: C_12  and  OXT_14
REMARK    7  A    between atoms: CA_15  and  C_16
REMARK    8  A    between atoms: CA_15  and  N_19
REMARK    9  A    between atoms: C_16  and  C_17
REMARK   10  A    between atoms: C_17  and  S_18
REMARK   11  A    between atoms: C_20  and  C_22
REMARK   12  A    between atoms: C_22  and  C_23
REMARK   13  A    between atoms: C_22  and  C_29
REMARK                            x       y       z     vdW  Elec       q    Type
REMARK                         _______ _______ _______ _____ _____    ______ ____
ROOT
ATOM      1  CA  UNL     1       1.485   9.126  19.712  0.00  0.00    +0.000 C 
ENDROOT
BRANCH   1   3
ATOM      2  O   UNL     1       0.141  10.035  17.895  0.00  0.00    +0.000 OA
ATOM      3  C   UNL     1       0.777  10.248  18.925  0.00  0.00    +0.000 C 
ATOM      4  N   UNL     1       0.904  11.526  19.447  0.00  0.00    +0.000 N 
ATOM      5  H   UNL     1       1.679  11.704  20.083  0.00  0.00    +0.000 HD
BRANCH   4   6
ATOM      6  CA  UNL     1       0.304  12.678  18.724  0.00  0.00    +0.000 C 
BRANCH   6   7
ATOM      7  C   UNL     1      -1.209  12.476  18.537  0.00  0.00    +0.000 C 
ATOM      8  O   UNL     1      -2.009  12.378  19.450  0.00  0.00    +0.000 OA
BRANCH   7   9
ATOM      9  OXT UNL     1      -1.583  12.363  17.237  0.00  0.00    +0.000 OA
ATOM     10  HXT UNL     1      -0.935  12.833  16.673  0.00  0.00    +0.000 HD
ENDBRANCH   7   9
ENDBRANCH   6   7
BRANCH   6  11
ATOM     11  CB  UNL     1       0.516  14.029  19.430  0.00  0.00    +0.000 C 
BRANCH  11  12
ATOM     12  CG  UNL     1       1.442  15.002  18.735  0.00  0.00    +0.000 A 
ATOM     13  CD1 UNL     1       1.146  16.367  18.610  0.00  0.00    +0.000 A 
ATOM     14  CE1 UNL     1       1.997  17.215  17.901  0.00  0.00    +0.000 A 
ATOM     15  CZ  UNL     1       3.175  16.718  17.351  0.00  0.00    +0.000 A 
ATOM     16  CE2 UNL     1       3.516  15.380  17.527  0.00  0.00    +0.000 A 
ATOM     17  CD2 UNL     1       2.659  14.528  18.222  0.00  0.00    +0.000 A 
ENDBRANCH  11  12
ENDBRANCH   6  11
ENDBRANCH   4   6
ENDBRANCH   1   3
BRANCH   1  18
ATOM     18  N   UNL     1       2.068   8.169  18.776  0.00  0.00    +0.000 N 
ATOM     19  C   UNL     1       2.580   6.970  19.237  0.00  0.00    +0.000 C 
ATOM     20  O   UNL     1       2.605   6.738  20.448  0.00  0.00    +0.000 OA
ATOM     21  H   UNL     1       1.935   8.319  17.780  0.00  0.00    +0.000 HD
BRANCH  19  22
ATOM     22  C   UNL     1       3.122   5.987  18.165  0.00  0.00    +0.000 C 
BRANCH  22  23
ATOM     23  C   UNL     1       4.653   5.967  18.125  0.00  0.00    +0.000 A 
ATOM     24  C   UNL     1       5.421   5.335  19.118  0.00  0.00    +0.000 A 
ATOM     25  C   UNL     1       6.812   5.451  19.141  0.00  0.00    +0.000 A 
ATOM     26  C   UNL     1       7.467   6.164  18.145  0.00  0.00    +0.000 A 
ATOM     27  C   UNL     1       6.732   6.738  17.109  0.00  0.00    +0.000 A 
ATOM     28  C   UNL     1       5.337   6.641  17.096  0.00  0.00    +0.000 A 
ENDBRANCH  22  23
BRANCH  22  29
ATOM     29  C   UNL     1       2.464   4.615  18.304  0.00  0.00    +0.000 A 
ATOM     30  C   UNL     1       1.503   4.383  19.309  0.00  0.00    +0.000 A 
ATOM     31  C   UNL     1       0.978   3.104  19.519  0.00  0.00    +0.000 A 
ATOM     32  C   UNL     1       1.399   2.037  18.729  0.00  0.00    +0.000 A 
ATOM     33  C   UNL     1       2.327   2.250  17.715  0.00  0.00    +0.000 A 
ATOM     34  C   UNL     1       2.849   3.527  17.500  0.00  0.00    +0.000 A 
ENDBRANCH  22  29
ENDBRANCH  19  22
ENDBRANCH   1  18
BRANCH   1  35
ATOM     35  C   UNL     1       0.493   8.467  20.685  0.00  0.00    +0.000 C 
BRANCH  35  36
ATOM     36  C   UNL     1      -0.479   9.453  21.326  0.00  0.00    +0.000 C 
BRANCH  36  37
ATOM     37  S   UNL     1      -0.159   9.579  23.113  0.00  0.00    +0.000 S 
ATOM     38  H   UNL     1      -1.434   9.479  23.514  0.00  0.00    +0.000 HD
ENDBRANCH  36  37
ENDBRANCH  35  36
ENDBRANCH   1  35
TORSDOF 13
ENDMDL
