MODEL 1
REMARK VINA RESULT:      -7.7      0.000      0.000
REMARK  Name = 
REMARK  4 active torsions:
REMARK  status: ('A' for Active; 'I' for Inactive)
REMARK    1  A    between atoms: C_2  and  C_3
REMARK    2  A    between atoms: C_7  and  N_8
REMARK    3  A    between atoms: N_17  and  C_18
REMARK    4  A    between atoms: C_20  and  C_21
REMARK                            x       y       z     vdW  Elec       q    Type
REMARK                         _______ _______ _______ _____ _____    ______ ____
ROOT
ATOM      1  N   UNL     1      -1.621  13.251  21.129  0.00  0.00    +0.000 N 
ATOM      2  C   UNL     1      -0.881  12.282  21.782  0.00  0.00    +0.000 C 
ATOM      3  O   UNL     1      -1.331  11.633  22.724  0.00  0.00    +0.000 OA
ATOM      4  N   UNL     1       0.375  12.020  21.248  0.00  0.00    +0.000 N 
ATOM      5  C   UNL     1       1.000  12.688  20.087  0.00  0.00    +0.000 C 
ATOM      6  C   UNL     1       1.033  11.755  18.852  0.00  0.00    +0.000 C 
ATOM      7  N   UNL     1       1.441  10.406  19.222  0.00  0.00    +0.000 N 
ATOM      8  C   UNL     1       1.844   9.408  18.351  0.00  0.00    +0.000 C 
ATOM      9  O   UNL     1       2.034   9.563  17.154  0.00  0.00    +0.000 OA
ATOM     10  N   UNL     1       1.936   8.230  19.071  0.00  0.00    +0.000 N 
ATOM     11  C   UNL     1       1.521   8.437  20.376  0.00  0.00    +0.000 C 
ATOM     12  O   UNL     1       1.501   7.631  21.295  0.00  0.00    +0.000 OA
ATOM     13  C   UNL     1       0.876   9.813  20.416  0.00  0.00    +0.000 C 
ATOM     14  C   UNL     1       1.028  10.734  21.614  0.00  0.00    +0.000 C 
ATOM     15  H   UNL     1      -1.591  13.130  20.125  0.00  0.00    +0.000 HD
ENDROOT
BRANCH   1  20
ATOM     16  C   UNL     1      -5.521  14.282  22.523  0.00  0.00    +0.000 A 
ATOM     17  C   UNL     1      -4.396  14.715  23.230  0.00  0.00    +0.000 A 
ATOM     18  C   UNL     1      -3.105  14.391  22.781  0.00  0.00    +0.000 A 
ATOM     19 CL   UNL     1      -1.783  15.102  23.645  0.00  0.00    +0.000 Cl
ATOM     20  C   UNL     1      -2.918  13.617  21.621  0.00  0.00    +0.000 A 
ATOM     21  C   UNL     1      -4.063  13.212  20.909  0.00  0.00    +0.000 A 
ATOM     22 CL   UNL     1      -3.922  12.253  19.474  0.00  0.00    +0.000 Cl
ATOM     23  C   UNL     1      -5.351  13.533  21.357  0.00  0.00    +0.000 A 
BRANCH  16  25
ATOM     24  N   UNL     1      -7.902  14.907  23.345  0.00  0.00    +0.000 NA
ATOM     25  C   UNL     1      -6.840  14.622  22.982  0.00  0.00    +0.000 C 
ENDBRANCH  16  25
ENDBRANCH   1  20
BRANCH  10  26
ATOM     26  C   UNL     1       2.082   6.955  18.427  0.00  0.00    +0.000 C 
ATOM     27  C   UNL     1       3.306   6.593  17.638  0.00  0.00    +0.000 C 
ATOM     28  C   UNL     1       2.989   5.834  18.904  0.00  0.00    +0.000 C 
BRANCH  28  29
ATOM     29  C   UNL     1       2.483   4.404  18.844  0.00  0.00    +0.000 A 
ATOM     30  C   UNL     1       1.450   3.949  19.679  0.00  0.00    +0.000 A 
ATOM     31  C   UNL     1       0.962   2.639  19.593  0.00  0.00    +0.000 A 
ATOM     32  C   UNL     1       1.499   1.754  18.662  0.00  0.00    +0.000 A 
ATOM     33  C   UNL     1       2.525   2.177  17.823  0.00  0.00    +0.000 A 
ATOM     34  C   UNL     1       3.005   3.487  17.913  0.00  0.00    +0.000 A 
ENDBRANCH  28  29
ENDBRANCH  10  26
TORSDOF 4
ENDMDL
MODEL 2
REMARK VINA RESULT:      -7.7      0.351      1.624
REMARK  Name = 
REMARK  4 active torsions:
REMARK  status: ('A' for Active; 'I' for Inactive)
REMARK    1  A    between atoms: C_2  and  C_3
REMARK    2  A    between atoms: C_7  and  N_8
REMARK    3  A    between atoms: N_17  and  C_18
REMARK    4  A    between atoms: C_20  and  C_21
REMARK                            x       y       z     vdW  Elec       q    Type
REMARK                         _______ _______ _______ _____ _____    ______ ____
ROOT
ATOM      1  N   UNL     1      -1.652  13.382  20.829  0.00  0.00    +0.000 N 
ATOM      2  C   UNL     1      -1.008  12.388  21.545  0.00  0.00    +0.000 C 
ATOM      3  O   UNL     1      -1.564  11.754  22.439  0.00  0.00    +0.000 OA
ATOM      4  N   UNL     1       0.282  12.085  21.128  0.00  0.00    +0.000 N 
ATOM      5  C   UNL     1       1.034  12.732  20.032  0.00  0.00    +0.000 C 
ATOM      6  C   UNL     1       1.150  11.799  18.802  0.00  0.00    +0.000 C 
ATOM      7  N   UNL     1       1.477  10.437  19.204  0.00  0.00    +0.000 N 
ATOM      8  C   UNL     1       1.926   9.427  18.370  0.00  0.00    +0.000 C 
ATOM      9  O   UNL     1       2.230   9.575  17.197  0.00  0.00    +0.000 OA
ATOM     10  N   UNL     1       1.912   8.246  19.092  0.00  0.00    +0.000 N 
ATOM     11  C   UNL     1       1.385   8.466  20.354  0.00  0.00    +0.000 C 
ATOM     12  O   UNL     1       1.254   7.661  21.264  0.00  0.00    +0.000 OA
ATOM     13  C   UNL     1       0.786   9.863  20.339  0.00  0.00    +0.000 C 
ATOM     14  C   UNL     1       0.856  10.778  21.548  0.00  0.00    +0.000 C 
ATOM     15  H   UNL     1      -1.534  13.260  19.832  0.00  0.00    +0.000 HD
ENDROOT
BRANCH   1  20
ATOM     16  C   UNL     1      -5.553  14.659  22.000  0.00  0.00    +0.000 A 
ATOM     17  C   UNL     1      -5.408  13.753  20.948  0.00  0.00    +0.000 A 
ATOM     18  C   UNL     1      -4.132  13.315  20.554  0.00  0.00    +0.000 A 
ATOM     19 CL   UNL     1      -4.076  12.081  19.341  0.00  0.00    +0.000 Cl
ATOM     20  C   UNL     1      -2.977  13.790  21.201  0.00  0.00    +0.000 A 
ATOM     21  C   UNL     1      -3.145  14.682  22.277  0.00  0.00    +0.000 A 
ATOM     22 CL   UNL     1      -1.775  15.318  23.125  0.00  0.00    +0.000 Cl
ATOM     23  C   UNL     1      -4.417  15.120  22.669  0.00  0.00    +0.000 A 
BRANCH  16  25
ATOM     24  N   UNL     1      -7.916  15.440  22.736  0.00  0.00    +0.000 NA
ATOM     25  C   UNL     1      -6.860  15.098  22.404  0.00  0.00    +0.000 C 
ENDBRANCH  16  25
ENDBRANCH   1  20
BRANCH  10  26
ATOM     26  C   UNL     1       2.075   6.967  18.460  0.00  0.00    +0.000 C 
ATOM     27  C   UNL     1       3.320   6.599  17.708  0.00  0.00    +0.000 C 
ATOM     28  C   UNL     1       2.967   5.848  18.968  0.00  0.00    +0.000 C 
BRANCH  28  29
ATOM     29  C   UNL     1       2.462   4.419  18.903  0.00  0.00    +0.000 A 
ATOM     30  C   UNL     1       1.499   3.932  19.803  0.00  0.00    +0.000 A 
ATOM     31  C   UNL     1       1.009   2.623  19.713  0.00  0.00    +0.000 A 
ATOM     32  C   UNL     1       1.474   1.770  18.716  0.00  0.00    +0.000 A 
ATOM     33  C   UNL     1       2.430   2.225  17.813  0.00  0.00    +0.000 A 
ATOM     34  C   UNL     1       2.911   3.534  17.906  0.00  0.00    +0.000 A 
ENDBRANCH  28  29
ENDBRANCH  10  26
TORSDOF 4
ENDMDL
MODEL 3
REMARK VINA RESULT:      -7.5      0.762      1.107
REMARK  Name = 
REMARK  4 active torsions:
REMARK  status: ('A' for Active; 'I' for Inactive)
REMARK    1  A    between atoms: C_2  and  C_3
REMARK    2  A    between atoms: C_7  and  N_8
REMARK    3  A    between atoms: N_17  and  C_18
REMARK    4  A    between atoms: C_20  and  C_21
REMARK                            x       y       z     vdW  Elec       q    Type
REMARK                         _______ _______ _______ _____ _____    ______ ____
ROOT
ATOM      1  N   UNL     1      -1.641  13.914  20.852  0.00  0.00    +0.000 N 
ATOM      2  C   UNL     1      -0.961  12.956  21.584  0.00  0.00    +0.000 C 
ATOM      3  O   UNL     1      -1.465  12.383  22.547  0.00  0.00    +0.000 OA
ATOM      4  N   UNL     1       0.298  12.614  21.106  0.00  0.00    +0.000 N 
ATOM      5  C   UNL     1       0.985  13.186  19.928  0.00  0.00    +0.000 C 
ATOM      6  C   UNL     1       1.015  12.181  18.752  0.00  0.00    +0.000 C 
ATOM      7  N   UNL     1       1.355  10.841  19.213  0.00  0.00    +0.000 N 
ATOM      8  C   UNL     1       1.743   9.777  18.415  0.00  0.00    +0.000 C 
ATOM      9  O   UNL     1       1.974   9.853  17.218  0.00  0.00    +0.000 OA
ATOM     10  N   UNL     1       1.764   8.642  19.206  0.00  0.00    +0.000 N 
ATOM     11  C   UNL     1       1.320   8.943  20.482  0.00  0.00    +0.000 C 
ATOM     12  O   UNL     1       1.240   8.194  21.446  0.00  0.00    +0.000 OA
ATOM     13  C   UNL     1       0.732  10.343  20.421  0.00  0.00    +0.000 C 
ATOM     14  C   UNL     1       0.886  11.328  21.567  0.00  0.00    +0.000 C 
ATOM     15  H   UNL     1      -1.586  13.732  19.858  0.00  0.00    +0.000 HD
ENDROOT
BRANCH   1  20
ATOM     16  C   UNL     1      -5.534  15.163  22.076  0.00  0.00    +0.000 A 
ATOM     17  C   UNL     1      -4.405  15.806  22.592  0.00  0.00    +0.000 A 
ATOM     18  C   UNL     1      -3.117  15.413  22.194  0.00  0.00    +0.000 A 
ATOM     19 CL   UNL     1      -1.799  16.373  22.778  0.00  0.00    +0.000 Cl
ATOM     20  C   UNL     1      -2.935  14.359  21.280  0.00  0.00    +0.000 A 
ATOM     21  C   UNL     1      -4.085  13.741  20.752  0.00  0.00    +0.000 A 
ATOM     22 CL   UNL     1      -3.950  12.433  19.626  0.00  0.00    +0.000 Cl
ATOM     23  C   UNL     1      -5.371  14.131  21.149  0.00  0.00    +0.000 A 
BRANCH  16  25
ATOM     24  N   UNL     1      -7.916  15.897  22.798  0.00  0.00    +0.000 NA
ATOM     25  C   UNL     1      -6.850  15.574  22.480  0.00  0.00    +0.000 C 
ENDBRANCH  16  25
ENDBRANCH   1  20
BRANCH  10  26
ATOM     26  C   UNL     1       1.877   7.326  18.643  0.00  0.00    +0.000 C 
ATOM     27  C   UNL     1       3.093   6.881  17.883  0.00  0.00    +0.000 C 
ATOM     28  C   UNL     1       2.751   6.212  19.192  0.00  0.00    +0.000 C 
BRANCH  28  29
ATOM     29  C   UNL     1       2.205   4.796  19.218  0.00  0.00    +0.000 A 
ATOM     30  C   UNL     1       2.309   3.941  18.108  0.00  0.00    +0.000 A 
ATOM     31  C   UNL     1       1.838   2.623  18.151  0.00  0.00    +0.000 A 
ATOM     32  C   UNL     1       1.250   2.131  19.314  0.00  0.00    +0.000 A 
ATOM     33  C   UNL     1       1.132   2.955  20.427  0.00  0.00    +0.000 A 
ATOM     34  C   UNL     1       1.608   4.269  20.377  0.00  0.00    +0.000 A 
ENDBRANCH  28  29
ENDBRANCH  10  26
TORSDOF 4
ENDMDL
MODEL 4
REMARK VINA RESULT:      -6.7      6.266      7.734
REMARK  Name = 
REMARK  4 active torsions:
REMARK  status: ('A' for Active; 'I' for Inactive)
REMARK    1  A    between atoms: C_2  and  C_3
REMARK    2  A    between atoms: C_7  and  N_8
REMARK    3  A    between atoms: N_17  and  C_18
REMARK    4  A    between atoms: C_20  and  C_21
REMARK                            x       y       z     vdW  Elec       q    Type
REMARK                         _______ _______ _______ _____ _____    ______ ____
ROOT
ATOM      1  N   UNL     1       0.331  14.847  20.512  0.00  0.00    +0.000 N 
ATOM      2  C   UNL     1       1.275  15.703  21.051  0.00  0.00    +0.000 C 
ATOM      3  O   UNL     1       1.342  15.935  22.256  0.00  0.00    +0.000 OA
ATOM      4  N   UNL     1       2.204  16.217  20.155  0.00  0.00    +0.000 N 
ATOM      5  C   UNL     1       2.264  15.966  18.699  0.00  0.00    +0.000 C 
ATOM      6  C   UNL     1       3.445  15.034  18.337  0.00  0.00    +0.000 C 
ATOM      7  N   UNL     1       4.653  15.410  19.061  0.00  0.00    +0.000 N 
ATOM      8  C   UNL     1       5.940  14.986  18.776  0.00  0.00    +0.000 C 
ATOM      9  O   UNL     1       6.256  14.331  17.795  0.00  0.00    +0.000 OA
ATOM     10  N   UNL     1       6.759  15.392  19.815  0.00  0.00    +0.000 N 
ATOM     11  C   UNL     1       6.005  16.004  20.803  0.00  0.00    +0.000 C 
ATOM     12  O   UNL     1       6.399  16.511  21.843  0.00  0.00    +0.000 OA
ATOM     13  C   UNL     1       4.547  15.738  20.467  0.00  0.00    +0.000 C 
ATOM     14  C   UNL     1       3.466  16.776  20.711  0.00  0.00    +0.000 C 
ATOM     15  H   UNL     1       0.753  14.172  19.888  0.00  0.00    +0.000 HD
ENDROOT
BRANCH   1  20
ATOM     16  C   UNL     1      -2.658  13.101  23.009  0.00  0.00    +0.000 A 
ATOM     17  C   UNL     1      -2.771  14.440  22.625  0.00  0.00    +0.000 A 
ATOM     18  C   UNL     1      -1.801  15.029  21.798  0.00  0.00    +0.000 A 
ATOM     19 CL   UNL     1      -2.116  16.644  21.262  0.00  0.00    +0.000 Cl
ATOM     20  C   UNL     1      -0.691  14.288  21.349  0.00  0.00    +0.000 A 
ATOM     21  C   UNL     1      -0.609  12.934  21.725  0.00  0.00    +0.000 A 
ATOM     22 CL   UNL     1       0.726  11.953  21.221  0.00  0.00    +0.000 Cl
ATOM     23  C   UNL     1      -1.576  12.346  22.552  0.00  0.00    +0.000 A 
BRANCH  16  25
ATOM     24  N   UNL     1      -4.472  12.024  24.520  0.00  0.00    +0.000 NA
ATOM     25  C   UNL     1      -3.658  12.501  23.850  0.00  0.00    +0.000 C 
ENDBRANCH  16  25
ENDBRANCH   1  20
BRANCH  10  26
ATOM     26  C   UNL     1       8.099  14.901  19.963  0.00  0.00    +0.000 C 
ATOM     27  C   UNL     1       8.734  14.698  21.307  0.00  0.00    +0.000 C 
ATOM     28  C   UNL     1       8.474  13.503  20.423  0.00  0.00    +0.000 C 
BRANCH  28  29
ATOM     29  C   UNL     1       9.619  12.785  19.733  0.00  0.00    +0.000 A 
ATOM     30  C   UNL     1       9.508  12.304  18.418  0.00  0.00    +0.000 A 
ATOM     31  C   UNL     1      10.581  11.676  17.774  0.00  0.00    +0.000 A 
ATOM     32  C   UNL     1      11.795  11.516  18.437  0.00  0.00    +0.000 A 
ATOM     33  C   UNL     1      11.933  11.980  19.741  0.00  0.00    +0.000 A 
ATOM     34  C   UNL     1      10.858  12.610  20.376  0.00  0.00    +0.000 A 
ENDBRANCH  28  29
ENDBRANCH  10  26
TORSDOF 4
ENDMDL
MODEL 5
REMARK VINA RESULT:      -6.6      6.225      7.794
REMARK  Name = 
REMARK  4 active torsions:
REMARK  status: ('A' for Active; 'I' for Inactive)
REMARK    1  A    between atoms: C_2  and  C_3
REMARK    2  A    between atoms: C_7  and  N_8
REMARK    3  A    between atoms: N_17  and  C_18
REMARK    4  A    between atoms: C_20  and  C_21
REMARK                            x       y       z     vdW  Elec       q    Type
REMARK                         _______ _______ _______ _____ _____    ______ ____
ROOT
ATOM      1  N   UNL     1       0.418  14.963  19.760  0.00  0.00    +0.000 N 
ATOM      2  C   UNL     1       1.318  15.765  20.437  0.00  0.00    +0.000 C 
ATOM      3  O   UNL     1       1.262  15.939  21.653  0.00  0.00    +0.000 OA
ATOM      4  N   UNL     1       2.351  16.293  19.671  0.00  0.00    +0.000 N 
ATOM      5  C   UNL     1       2.561  16.108  18.219  0.00  0.00    +0.000 C 
ATOM      6  C   UNL     1       3.751  15.161  17.939  0.00  0.00    +0.000 C 
ATOM      7  N   UNL     1       4.883  15.467  18.805  0.00  0.00    +0.000 N 
ATOM      8  C   UNL     1       6.183  15.019  18.637  0.00  0.00    +0.000 C 
ATOM      9  O   UNL     1       6.586  14.401  17.664  0.00  0.00    +0.000 OA
ATOM     10  N   UNL     1       6.894  15.352  19.776  0.00  0.00    +0.000 N 
ATOM     11  C   UNL     1       6.054  15.939  20.708  0.00  0.00    +0.000 C 
ATOM     12  O   UNL     1       6.346  16.386  21.807  0.00  0.00    +0.000 OA
ATOM     13  C   UNL     1       4.634  15.731  20.206  0.00  0.00    +0.000 C 
ATOM     14  C   UNL     1       3.559  16.788  20.385  0.00  0.00    +0.000 C 
ATOM     15  H   UNL     1       0.888  14.306  19.151  0.00  0.00    +0.000 HD
ENDROOT
BRANCH   1  20
ATOM     16  C   UNL     1      -2.967  13.356  21.804  0.00  0.00    +0.000 A 
ATOM     17  C   UNL     1      -1.808  12.587  21.672  0.00  0.00    +0.000 A 
ATOM     18  C   UNL     1      -0.682  13.103  21.009  0.00  0.00    +0.000 A 
ATOM     19 CL   UNL     1       0.747  12.125  21.033  0.00  0.00    +0.000 Cl
ATOM     20  C   UNL     1      -0.702  14.396  20.455  0.00  0.00    +0.000 A 
ATOM     21  C   UNL     1      -1.869  15.165  20.622  0.00  0.00    +0.000 A 
ATOM     22 CL   UNL     1      -1.979  16.764  19.966  0.00  0.00    +0.000 Cl
ATOM     23  C   UNL     1      -2.993  14.651  21.281  0.00  0.00    +0.000 A 
BRANCH  16  25
ATOM     24  N   UNL     1      -5.039  12.393  23.033  0.00  0.00    +0.000 NA
ATOM     25  C   UNL     1      -4.113  12.827  22.490  0.00  0.00    +0.000 C 
ENDBRANCH  16  25
ENDBRANCH   1  20
BRANCH  10  26
ATOM     26  C   UNL     1       8.199  14.816  20.041  0.00  0.00    +0.000 C 
ATOM     27  C   UNL     1       8.617  14.365  21.410  0.00  0.00    +0.000 C 
ATOM     28  C   UNL     1       8.508  13.351  20.297  0.00  0.00    +0.000 C 
BRANCH  28  29
ATOM     29  C   UNL     1       9.753  12.743  19.678  0.00  0.00    +0.000 A 
ATOM     30  C   UNL     1      10.926  12.539  20.422  0.00  0.00    +0.000 A 
ATOM     31  C   UNL     1      12.059  11.943  19.855  0.00  0.00    +0.000 A 
ATOM     32  C   UNL     1      12.040  11.535  18.524  0.00  0.00    +0.000 A 
ATOM     33  C   UNL     1      10.893  11.726  17.762  0.00  0.00    +0.000 A 
ATOM     34  C   UNL     1       9.764  12.319  18.337  0.00  0.00    +0.000 A 
ENDBRANCH  28  29
ENDBRANCH  10  26
TORSDOF 4
ENDMDL
MODEL 6
REMARK VINA RESULT:      -6.6      3.124     10.190
REMARK  Name = 
REMARK  4 active torsions:
REMARK  status: ('A' for Active; 'I' for Inactive)
REMARK    1  A    between atoms: C_2  and  C_3
REMARK    2  A    between atoms: C_7  and  N_8
REMARK    3  A    between atoms: N_17  and  C_18
REMARK    4  A    between atoms: C_20  and  C_21
REMARK                            x       y       z     vdW  Elec       q    Type
REMARK                         _______ _______ _______ _____ _____    ______ ____
ROOT
ATOM      1  N   UNL     1       2.587   8.115  18.605  0.00  0.00    +0.000 N 
ATOM      2  C   UNL     1       1.459   8.586  17.958  0.00  0.00    +0.000 C 
ATOM      3  O   UNL     1       0.636   7.837  17.437  0.00  0.00    +0.000 OA
ATOM      4  N   UNL     1       1.265   9.962  18.011  0.00  0.00    +0.000 N 
ATOM      5  C   UNL     1       2.147  10.957  18.655  0.00  0.00    +0.000 C 
ATOM      6  C   UNL     1       1.519  11.505  19.959  0.00  0.00    +0.000 C 
ATOM      7  N   UNL     1       0.103  11.797  19.779  0.00  0.00    +0.000 N 
ATOM      8  C   UNL     1      -0.689  12.549  20.630  0.00  0.00    +0.000 C 
ATOM      9  O   UNL     1      -0.276  13.179  21.591  0.00  0.00    +0.000 OA
ATOM     10  N   UNL     1      -2.003  12.406  20.220  0.00  0.00    +0.000 N 
ATOM     11  C   UNL     1      -2.078  11.511  19.166  0.00  0.00    +0.000 C 
ATOM     12  O   UNL     1      -3.070  11.173  18.537  0.00  0.00    +0.000 OA
ATOM     13  C   UNL     1      -0.718  10.842  19.065  0.00  0.00    +0.000 C 
ATOM     14  C   UNL     1      -0.101  10.478  17.725  0.00  0.00    +0.000 C 
ATOM     15  H   UNL     1       2.696   8.536  19.519  0.00  0.00    +0.000 HD
ENDROOT
BRANCH   1  20
ATOM     16  C   UNL     1       3.439   3.933  18.612  0.00  0.00    +0.000 A 
ATOM     17  C   UNL     1       3.972   4.747  17.609  0.00  0.00    +0.000 A 
ATOM     18  C   UNL     1       3.709   6.126  17.596  0.00  0.00    +0.000 A 
ATOM     19 CL   UNL     1       4.539   7.062  16.399  0.00  0.00    +0.000 Cl
ATOM     20  C   UNL     1       2.894   6.714  18.582  0.00  0.00    +0.000 A 
ATOM     21  C   UNL     1       2.388   5.881  19.598  0.00  0.00    +0.000 A 
ATOM     22 CL   UNL     1       1.373   6.523  20.846  0.00  0.00    +0.000 Cl
ATOM     23  C   UNL     1       2.649   4.505  19.611  0.00  0.00    +0.000 A 
BRANCH  16  25
ATOM     24  N   UNL     1       3.954   1.389  18.641  0.00  0.00    +0.000 NA
ATOM     25  C   UNL     1       3.718   2.523  18.625  0.00  0.00    +0.000 C 
ENDBRANCH  16  25
ENDBRANCH   1  20
BRANCH  10  26
ATOM     26  C   UNL     1      -3.104  12.846  21.030  0.00  0.00    +0.000 C 
ATOM     27  C   UNL     1      -3.578  14.270  21.033  0.00  0.00    +0.000 C 
ATOM     28  C   UNL     1      -4.490  13.186  20.512  0.00  0.00    +0.000 C 
BRANCH  28  29
ATOM     29  C   UNL     1      -5.702  12.743  21.312  0.00  0.00    +0.000 A 
ATOM     30  C   UNL     1      -6.691  11.913  20.759  0.00  0.00    +0.000 A 
ATOM     31  C   UNL     1      -7.787  11.477  21.513  0.00  0.00    +0.000 A 
ATOM     32  C   UNL     1      -7.917  11.865  22.844  0.00  0.00    +0.000 A 
ATOM     33  C   UNL     1      -6.954  12.689  23.417  0.00  0.00    +0.000 A 
ATOM     34  C   UNL     1      -5.860  13.117  22.659  0.00  0.00    +0.000 A 
ENDBRANCH  28  29
ENDBRANCH  10  26
TORSDOF 4
ENDMDL
MODEL 7
REMARK VINA RESULT:      -6.6      1.271      2.099
REMARK  Name = 
REMARK  4 active torsions:
REMARK  status: ('A' for Active; 'I' for Inactive)
REMARK    1  A    between atoms: C_2  and  C_3
REMARK    2  A    between atoms: C_7  and  N_8
REMARK    3  A    between atoms: N_17  and  C_18
REMARK    4  A    between atoms: C_20  and  C_21
REMARK                            x       y       z     vdW  Elec       q    Type
REMARK                         _______ _______ _______ _____ _____    ______ ____
ROOT
ATOM      1  N   UNL     1      -1.473  12.433  20.457  0.00  0.00    +0.000 N 
ATOM      2  C   UNL     1      -0.824  11.468  21.206  0.00  0.00    +0.000 C 
ATOM      3  O   UNL     1      -1.398  10.806  22.067  0.00  0.00    +0.000 OA
ATOM      4  N   UNL     1       0.500  11.226  20.860  0.00  0.00    +0.000 N 
ATOM      5  C   UNL     1       1.280  11.911  19.807  0.00  0.00    +0.000 C 
ATOM      6  C   UNL     1       1.506  10.989  18.585  0.00  0.00    +0.000 C 
ATOM      7  N   UNL     1       1.873   9.642  19.002  0.00  0.00    +0.000 N 
ATOM      8  C   UNL     1       2.414   8.656  18.194  0.00  0.00    +0.000 C 
ATOM      9  O   UNL     1       2.774   8.823  17.039  0.00  0.00    +0.000 OA
ATOM     10  N   UNL     1       2.415   7.474  18.912  0.00  0.00    +0.000 N 
ATOM     11  C   UNL     1       1.810   7.665  20.144  0.00  0.00    +0.000 C 
ATOM     12  O   UNL     1       1.667   6.851  21.045  0.00  0.00    +0.000 OA
ATOM     13  C   UNL     1       1.148   9.032  20.097  0.00  0.00    +0.000 C 
ATOM     14  C   UNL     1       1.110   9.946  21.310  0.00  0.00    +0.000 C 
ATOM     15  H   UNL     1      -1.295  12.320  19.467  0.00  0.00    +0.000 HD
ENDROOT
BRANCH   1  20
ATOM     16  C   UNL     1      -5.488  13.510  21.425  0.00  0.00    +0.000 A 
ATOM     17  C   UNL     1      -5.224  12.807  20.247  0.00  0.00    +0.000 A 
ATOM     18  C   UNL     1      -3.911  12.438  19.916  0.00  0.00    +0.000 A 
ATOM     19 CL   UNL     1      -3.715  11.442  18.514  0.00  0.00    +0.000 Cl
ATOM     20  C   UNL     1      -2.834  12.778  20.756  0.00  0.00    +0.000 A 
ATOM     21  C   UNL     1      -3.122  13.463  21.951  0.00  0.00    +0.000 A 
ATOM     22 CL   UNL     1      -1.855  13.924  23.038  0.00  0.00    +0.000 Cl
ATOM     23  C   UNL     1      -4.433  13.834  22.281  0.00  0.00    +0.000 A 
BRANCH  16  25
ATOM     24  N   UNL     1      -7.916  14.186  22.043  0.00  0.00    +0.000 NA
ATOM     25  C   UNL     1      -6.836  13.879  21.763  0.00  0.00    +0.000 C 
ENDBRANCH  16  25
ENDBRANCH   1  20
BRANCH  10  26
ATOM     26  C   UNL     1       2.671   6.206  18.290  0.00  0.00    +0.000 C 
ATOM     27  C   UNL     1       3.557   6.070  17.085  0.00  0.00    +0.000 C 
ATOM     28  C   UNL     1       3.974   5.431  18.388  0.00  0.00    +0.000 C 
BRANCH  28  29
ATOM     29  C   UNL     1       3.921   3.924  18.563  0.00  0.00    +0.000 A 
ATOM     30  C   UNL     1       4.367   3.300  19.740  0.00  0.00    +0.000 A 
ATOM     31  C   UNL     1       4.280   1.913  19.911  0.00  0.00    +0.000 A 
ATOM     32  C   UNL     1       3.741   1.118  18.903  0.00  0.00    +0.000 A 
ATOM     33  C   UNL     1       3.294   1.709  17.726  0.00  0.00    +0.000 A 
ATOM     34  C   UNL     1       3.380   3.095  17.564  0.00  0.00    +0.000 A 
ENDBRANCH  28  29
ENDBRANCH  10  26
TORSDOF 4
ENDMDL
MODEL 8
REMARK VINA RESULT:      -6.5      6.378      7.881
REMARK  Name = 
REMARK  4 active torsions:
REMARK  status: ('A' for Active; 'I' for Inactive)
REMARK    1  A    between atoms: C_2  and  C_3
REMARK    2  A    between atoms: C_7  and  N_8
REMARK    3  A    between atoms: N_17  and  C_18
REMARK    4  A    between atoms: C_20  and  C_21
REMARK                            x       y       z     vdW  Elec       q    Type
REMARK                         _______ _______ _______ _____ _____    ______ ____
ROOT
ATOM      1  N   UNL     1       0.607  15.067  21.171  0.00  0.00    +0.000 N 
ATOM      2  C   UNL     1       1.596  15.724  21.882  0.00  0.00    +0.000 C 
ATOM      3  O   UNL     1       1.668  15.678  23.108  0.00  0.00    +0.000 OA
ATOM      4  N   UNL     1       2.561  16.368  21.117  0.00  0.00    +0.000 N 
ATOM      5  C   UNL     1       2.616  16.444  19.641  0.00  0.00    +0.000 C 
ATOM      6  C   UNL     1       3.743  15.548  19.074  0.00  0.00    +0.000 C 
ATOM      7  N   UNL     1       4.966  15.681  19.856  0.00  0.00    +0.000 N 
ATOM      8  C   UNL     1       6.227  15.254  19.476  0.00  0.00    +0.000 C 
ATOM      9  O   UNL     1       6.511  14.816  18.372  0.00  0.00    +0.000 OA
ATOM     10  N   UNL     1       7.061  15.370  20.575  0.00  0.00    +0.000 N 
ATOM     11  C   UNL     1       6.337  15.790  21.679  0.00  0.00    +0.000 C 
ATOM     12  O   UNL     1       6.753  16.029  22.803  0.00  0.00    +0.000 OA
ATOM     13  C   UNL     1       4.869  15.693  21.300  0.00  0.00    +0.000 C 
ATOM     14  C   UNL     1       3.849  16.713  21.776  0.00  0.00    +0.000 C 
ATOM     15  H   UNL     1       0.993  14.525  20.410  0.00  0.00    +0.000 HD
ENDROOT
BRANCH   1  20
ATOM     16  C   UNL     1      -2.593  13.164  23.259  0.00  0.00    +0.000 A 
ATOM     17  C   UNL     1      -1.582  12.389  22.685  0.00  0.00    +0.000 A 
ATOM     18  C   UNL     1      -0.517  12.999  22.001  0.00  0.00    +0.000 A 
ATOM     19 CL   UNL     1       0.755  11.957  21.460  0.00  0.00    +0.000 Cl
ATOM     20  C   UNL     1      -0.453  14.398  21.869  0.00  0.00    +0.000 A 
ATOM     21  C   UNL     1      -1.467  15.163  22.477  0.00  0.00    +0.000 A 
ATOM     22 CL   UNL     1      -1.466  16.891  22.358  0.00  0.00    +0.000 Cl
ATOM     23  C   UNL     1      -2.530  14.556  23.158  0.00  0.00    +0.000 A 
BRANCH  16  25
ATOM     24  N   UNL     1      -4.541  12.019  24.534  0.00  0.00    +0.000 NA
ATOM     25  C   UNL     1      -3.676  12.536  23.965  0.00  0.00    +0.000 C 
ENDBRANCH  16  25
ENDBRANCH   1  20
BRANCH  10  26
ATOM     26  C   UNL     1       8.369  14.779  20.602  0.00  0.00    +0.000 C 
ATOM     27  C   UNL     1       8.970  14.220  21.858  0.00  0.00    +0.000 C 
ATOM     28  C   UNL     1       8.655  13.292  20.710  0.00  0.00    +0.000 C 
BRANCH  28  29
ATOM     29  C   UNL     1       9.768  12.694  19.870  0.00  0.00    +0.000 A 
ATOM     30  C   UNL     1      10.983  12.276  20.438  0.00  0.00    +0.000 A 
ATOM     31  C   UNL     1      11.992  11.691  19.663  0.00  0.00    +0.000 A 
ATOM     32  C   UNL     1      11.804  11.509  18.296  0.00  0.00    +0.000 A 
ATOM     33  C   UNL     1      10.612  11.915  17.705  0.00  0.00    +0.000 A 
ATOM     34  C   UNL     1       9.608  12.496  18.486  0.00  0.00    +0.000 A 
ENDBRANCH  28  29
ENDBRANCH  10  26
TORSDOF 4
ENDMDL
MODEL 9
REMARK VINA RESULT:      -6.3      6.559      7.693
REMARK  Name = 
REMARK  4 active torsions:
REMARK  status: ('A' for Active; 'I' for Inactive)
REMARK    1  A    between atoms: C_2  and  C_3
REMARK    2  A    between atoms: C_7  and  N_8
REMARK    3  A    between atoms: N_17  and  C_18
REMARK    4  A    between atoms: C_20  and  C_21
REMARK                            x       y       z     vdW  Elec       q    Type
REMARK                         _______ _______ _______ _____ _____    ______ ____
ROOT
ATOM      1  N   UNL     1      -0.401  15.287  21.298  0.00  0.00    +0.000 N 
ATOM      2  C   UNL     1       0.793  15.669  21.882  0.00  0.00    +0.000 C 
ATOM      3  O   UNL     1       1.119  15.309  23.011  0.00  0.00    +0.000 OA
ATOM      4  N   UNL     1       1.646  16.415  21.078  0.00  0.00    +0.000 N 
ATOM      5  C   UNL     1       1.393  16.858  19.690  0.00  0.00    +0.000 C 
ATOM      6  C   UNL     1       2.247  16.056  18.679  0.00  0.00    +0.000 C 
ATOM      7  N   UNL     1       3.616  15.898  19.154  0.00  0.00    +0.000 N 
ATOM      8  C   UNL     1       4.701  15.492  18.396  0.00  0.00    +0.000 C 
ATOM      9  O   UNL     1       4.683  15.328  17.186  0.00  0.00    +0.000 OA
ATOM     10  N   UNL     1       5.758  15.265  19.259  0.00  0.00    +0.000 N 
ATOM     11  C   UNL     1       5.349  15.443  20.570  0.00  0.00    +0.000 C 
ATOM     12  O   UNL     1       6.023  15.359  21.587  0.00  0.00    +0.000 OA
ATOM     13  C   UNL     1       3.833  15.551  20.543  0.00  0.00    +0.000 C 
ATOM     14  C   UNL     1       3.079  16.488  21.470  0.00  0.00    +0.000 C 
ATOM     15  H   UNL     1      -0.261  14.928  20.362  0.00  0.00    +0.000 HD
ENDROOT
BRANCH   1  20
ATOM     16  C   UNL     1      -3.317  13.152  23.569  0.00  0.00    +0.000 A 
ATOM     17  C   UNL     1      -2.292  12.453  22.925  0.00  0.00    +0.000 A 
ATOM     18  C   UNL     1      -1.320  13.140  22.180  0.00  0.00    +0.000 A 
ATOM     19 CL   UNL     1      -0.015  12.193  21.550  0.00  0.00    +0.000 Cl
ATOM     20  C   UNL     1      -1.364  14.541  22.056  0.00  0.00    +0.000 A 
ATOM     21  C   UNL     1      -2.388  15.229  22.734  0.00  0.00    +0.000 A 
ATOM     22 CL   UNL     1      -2.518  16.953  22.630  0.00  0.00    +0.000 Cl
ATOM     23  C   UNL     1      -3.360  14.545  23.476  0.00  0.00    +0.000 A 
BRANCH  16  25
ATOM     24  N   UNL     1      -5.110  11.881  24.949  0.00  0.00    +0.000 NA
ATOM     25  C   UNL     1      -4.305  12.445  24.337  0.00  0.00    +0.000 C 
ENDBRANCH  16  25
ENDBRANCH   1  20
BRANCH  10  26
ATOM     26  C   UNL     1       6.955  14.594  18.836  0.00  0.00    +0.000 C 
ATOM     27  C   UNL     1       7.892  15.189  17.826  0.00  0.00    +0.000 C 
ATOM     28  C   UNL     1       8.366  14.981  19.243  0.00  0.00    +0.000 C 
BRANCH  28  29
ATOM     29  C   UNL     1       9.361  13.885  19.574  0.00  0.00    +0.000 A 
ATOM     30  C   UNL     1      10.551  13.720  18.846  0.00  0.00    +0.000 A 
ATOM     31  C   UNL     1      11.484  12.731  19.180  0.00  0.00    +0.000 A 
ATOM     32  C   UNL     1      11.245  11.882  20.258  0.00  0.00    +0.000 A 
ATOM     33  C   UNL     1      10.074  12.020  20.996  0.00  0.00    +0.000 A 
ATOM     34  C   UNL     1       9.149  13.013  20.658  0.00  0.00    +0.000 A 
ENDBRANCH  28  29
ENDBRANCH  10  26
TORSDOF 4
ENDMDL
