MODEL 1
REMARK VINA RESULT:      -8.9      0.000      0.000
REMARK  Name = 
REMARK  5 active torsions:
REMARK  status: ('A' for Active; 'I' for Inactive)
REMARK    1  A    between atoms: C_2  and  C_11
REMARK    2  A    between atoms: N_3  and  C_4
REMARK    3  A    between atoms: C_4  and  C_5
REMARK    4  A    between atoms: N_13  and  C_14
REMARK    5  A    between atoms: C_14  and  C_15
REMARK                            x       y       z     vdW  Elec       q    Type
REMARK                         _______ _______ _______ _____ _____    ______ ____
ROOT
ATOM      1  C   UNL     1       3.326   6.958  17.829  0.00  0.00    +0.000 A 
ATOM      2  C   UNL     1       2.620   5.758  17.896  0.00  0.00    +0.000 A 
ATOM      3  N   UNL     1       3.520   4.877  18.437  0.00  0.00    +0.000 N 
ATOM      4  C   UNL     1       4.731   5.168  17.829  0.00  0.00    +0.000 A 
ATOM      5  C   UNL     1       5.846   4.344  17.635  0.00  0.00    +0.000 A 
ATOM      6  C   UNL     1       7.024   4.971  17.243  0.00  0.00    +0.000 A 
ATOM      7  C   UNL     1       7.077   6.354  17.131  0.00  0.00    +0.000 A 
ATOM      8  C   UNL     1       5.938   7.165  17.339  0.00  0.00    +0.000 A 
ATOM      9  C   UNL     1       4.702   6.553  17.638  0.00  0.00    +0.000 A 
ENDROOT
BRANCH   1  11
ATOM     10  O   UNL     1       2.627   9.045  17.018  0.00  0.00    +0.000 OA
ATOM     11  C   UNL     1       2.607   8.223  17.934  0.00  0.00    +0.000 C 
ATOM     12  N   UNL     1       1.834   8.416  19.050  0.00  0.00    +0.000 N 
ATOM     13  H   UNL     1       1.886   7.774  19.820  0.00  0.00    +0.000 HD
BRANCH  12  14
ATOM     14  C   UNL     1       1.105   9.656  19.215  0.00  0.00    +0.000 C 
BRANCH  14  15
ATOM     15  C   UNL     1       0.510   9.787  20.590  0.00  0.00    +0.000 A 
ATOM     16  C   UNL     1       0.044  11.020  21.051  0.00  0.00    +0.000 A 
ATOM     17  C   UNL     1      -0.556  11.128  22.311  0.00  0.00    +0.000 A 
ATOM     18  C   UNL     1      -0.690   9.999  23.114  0.00  0.00    +0.000 A 
ATOM     19  C   UNL     1      -0.223   8.769  22.672  0.00  0.00    +0.000 A 
ATOM     20  C   UNL     1       0.377   8.661  21.412  0.00  0.00    +0.000 A 
ENDBRANCH  14  15
ENDBRANCH  12  14
ENDBRANCH   1  11
BRANCH   3  21
ATOM     21  C   UNL     1       3.511   4.559  19.869  0.00  0.00    +0.000 C 
BRANCH  21  22
ATOM     22  C   UNL     1       3.299   3.087  20.240  0.00  0.00    +0.000 C 
ATOM     23  C   UNL     1       2.042   2.898  21.095  0.00  0.00    +0.000 C 
ATOM     24  C   UNL     1       0.765   3.193  20.313  0.00  0.00    +0.000 C 
ATOM     25  C   UNL     1       0.684   2.353  19.040  0.00  0.00    +0.000 C 
ATOM     26  C   UNL     1       1.928   2.491  18.166  0.00  0.00    +0.000 C 
ATOM     27  C   UNL     1       3.210   2.236  18.958  0.00  0.00    +0.000 C 
ENDBRANCH  21  22
ENDBRANCH   3  21
TORSDOF 5
ENDMDL
MODEL 2
REMARK VINA RESULT:      -8.9      3.428      7.610
REMARK  Name = 
REMARK  5 active torsions:
REMARK  status: ('A' for Active; 'I' for Inactive)
REMARK    1  A    between atoms: C_2  and  C_11
REMARK    2  A    between atoms: N_3  and  C_4
REMARK    3  A    between atoms: C_4  and  C_5
REMARK    4  A    between atoms: N_13  and  C_14
REMARK    5  A    between atoms: C_14  and  C_15
REMARK                            x       y       z     vdW  Elec       q    Type
REMARK                         _______ _______ _______ _____ _____    ______ ____
ROOT
ATOM      1  C   UNL     1       5.254   5.547  17.002  0.00  0.00    +0.000 A 
ATOM      2  C   UNL     1       5.211   4.480  17.899  0.00  0.00    +0.000 A 
ATOM      3  N   UNL     1       3.900   4.439  18.296  0.00  0.00    +0.000 N 
ATOM      4  C   UNL     1       3.523   5.762  18.462  0.00  0.00    +0.000 A 
ATOM      5  C   UNL     1       2.509   6.302  19.264  0.00  0.00    +0.000 A 
ATOM      6  C   UNL     1       2.171   7.631  19.031  0.00  0.00    +0.000 A 
ATOM      7  C   UNL     1       2.775   8.337  17.999  0.00  0.00    +0.000 A 
ATOM      8  C   UNL     1       3.792   7.766  17.198  0.00  0.00    +0.000 A 
ATOM      9  C   UNL     1       4.231   6.454  17.474  0.00  0.00    +0.000 A 
ENDROOT
BRANCH   1  11
ATOM     10  O   UNL     1       7.322   6.078  16.031  0.00  0.00    +0.000 OA
ATOM     11  C   UNL     1       6.226   5.532  15.914  0.00  0.00    +0.000 C 
ATOM     12  N   UNL     1       5.906   4.807  14.795  0.00  0.00    +0.000 N 
ATOM     13  H   UNL     1       4.981   4.432  14.681  0.00  0.00    +0.000 HD
BRANCH  12  14
ATOM     14  C   UNL     1       6.825   4.764  13.678  0.00  0.00    +0.000 C 
BRANCH  14  15
ATOM     15  C   UNL     1       6.439   3.722  12.664  0.00  0.00    +0.000 A 
ATOM     16  C   UNL     1       7.412   2.935  12.044  0.00  0.00    +0.000 A 
ATOM     17  C   UNL     1       7.045   1.931  11.139  0.00  0.00    +0.000 A 
ATOM     18  C   UNL     1       5.701   1.715  10.852  0.00  0.00    +0.000 A 
ATOM     19  C   UNL     1       4.724   2.496  11.454  0.00  0.00    +0.000 A 
ATOM     20  C   UNL     1       5.090   3.499  12.358  0.00  0.00    +0.000 A 
ENDBRANCH  14  15
ENDBRANCH  12  14
ENDBRANCH   1  11
BRANCH   3  21
ATOM     21  C   UNL     1       2.945   3.509  17.683  0.00  0.00    +0.000 C 
BRANCH  21  22
ATOM     22  C   UNL     1       2.680   2.204  18.443  0.00  0.00    +0.000 C 
ATOM     23  C   UNL     1       3.480   2.140  19.748  0.00  0.00    +0.000 C 
ATOM     24  C   UNL     1       3.005   3.176  20.763  0.00  0.00    +0.000 C 
ATOM     25  C   UNL     1       1.510   3.042  21.039  0.00  0.00    +0.000 C 
ATOM     26  C   UNL     1       0.672   3.076  19.764  0.00  0.00    +0.000 C 
ATOM     27  C   UNL     1       1.172   2.067  18.729  0.00  0.00    +0.000 C 
ENDBRANCH  21  22
ENDBRANCH   3  21
TORSDOF 5
ENDMDL
MODEL 3
REMARK VINA RESULT:      -8.8      3.409      7.453
REMARK  Name = 
REMARK  5 active torsions:
REMARK  status: ('A' for Active; 'I' for Inactive)
REMARK    1  A    between atoms: C_2  and  C_11
REMARK    2  A    between atoms: N_3  and  C_4
REMARK    3  A    between atoms: C_4  and  C_5
REMARK    4  A    between atoms: N_13  and  C_14
REMARK    5  A    between atoms: C_14  and  C_15
REMARK                            x       y       z     vdW  Elec       q    Type
REMARK                         _______ _______ _______ _____ _____    ______ ____
ROOT
ATOM      1  C   UNL     1       5.328   5.632  17.165  0.00  0.00    +0.000 A 
ATOM      2  C   UNL     1       5.400   4.678  18.180  0.00  0.00    +0.000 A 
ATOM      3  N   UNL     1       4.114   4.601  18.648  0.00  0.00    +0.000 N 
ATOM      4  C   UNL     1       3.655   5.909  18.682  0.00  0.00    +0.000 A 
ATOM      5  C   UNL     1       2.644   6.475  19.469  0.00  0.00    +0.000 A 
ATOM      6  C   UNL     1       2.204   7.742  19.103  0.00  0.00    +0.000 A 
ATOM      7  C   UNL     1       2.710   8.357  17.966  0.00  0.00    +0.000 A 
ATOM      8  C   UNL     1       3.727   7.762  17.183  0.00  0.00    +0.000 A 
ATOM      9  C   UNL     1       4.267   6.522  17.583  0.00  0.00    +0.000 A 
ENDROOT
BRANCH   1  11
ATOM     10  O   UNL     1       7.315   6.161  16.037  0.00  0.00    +0.000 OA
ATOM     11  C   UNL     1       6.247   5.550  16.035  0.00  0.00    +0.000 C 
ATOM     12  N   UNL     1       5.917   4.692  15.016  0.00  0.00    +0.000 N 
ATOM     13  H   UNL     1       5.011   4.260  14.992  0.00  0.00    +0.000 HD
BRANCH  12  14
ATOM     14  C   UNL     1       6.784   4.577  13.864  0.00  0.00    +0.000 C 
BRANCH  14  15
ATOM     15  C   UNL     1       6.215   3.663  12.813  0.00  0.00    +0.000 A 
ATOM     16  C   UNL     1       4.872   3.753  12.441  0.00  0.00    +0.000 A 
ATOM     17  C   UNL     1       4.359   2.937  11.426  0.00  0.00    +0.000 A 
ATOM     18  C   UNL     1       5.190   2.025  10.783  0.00  0.00    +0.000 A 
ATOM     19  C   UNL     1       6.525   1.919  11.149  0.00  0.00    +0.000 A 
ATOM     20  C   UNL     1       7.038   2.735  12.163  0.00  0.00    +0.000 A 
ENDBRANCH  14  15
ENDBRANCH  12  14
ENDBRANCH   1  11
BRANCH   3  21
ATOM     21  C   UNL     1       3.199   3.547  18.199  0.00  0.00    +0.000 C 
BRANCH  21  22
ATOM     22  C   UNL     1       3.126   2.289  19.072  0.00  0.00    +0.000 C 
ATOM     23  C   UNL     1       3.548   2.580  20.516  0.00  0.00    +0.000 C 
ATOM     24  C   UNL     1       2.556   3.494  21.230  0.00  0.00    +0.000 C 
ATOM     25  C   UNL     1       1.141   2.925  21.186  0.00  0.00    +0.000 C 
ATOM     26  C   UNL     1       0.685   2.596  19.767  0.00  0.00    +0.000 C 
ATOM     27  C   UNL     1       1.697   1.713  19.036  0.00  0.00    +0.000 C 
ENDBRANCH  21  22
ENDBRANCH   3  21
TORSDOF 5
ENDMDL
MODEL 4
REMARK VINA RESULT:      -8.8      1.299      4.180
REMARK  Name = 
REMARK  5 active torsions:
REMARK  status: ('A' for Active; 'I' for Inactive)
REMARK    1  A    between atoms: C_2  and  C_11
REMARK    2  A    between atoms: N_3  and  C_4
REMARK    3  A    between atoms: C_4  and  C_5
REMARK    4  A    between atoms: N_13  and  C_14
REMARK    5  A    between atoms: C_14  and  C_15
REMARK                            x       y       z     vdW  Elec       q    Type
REMARK                         _______ _______ _______ _____ _____    ______ ____
ROOT
ATOM      1  C   UNL     1       2.973   5.893  19.077  0.00  0.00    +0.000 A 
ATOM      2  C   UNL     1       4.215   5.692  19.679  0.00  0.00    +0.000 A 
ATOM      3  N   UNL     1       4.632   4.488  19.174  0.00  0.00    +0.000 N 
ATOM      4  C   UNL     1       3.503   3.682  19.163  0.00  0.00    +0.000 A 
ATOM      5  C   UNL     1       3.410   2.285  19.199  0.00  0.00    +0.000 A 
ATOM      6  C   UNL     1       2.168   1.736  18.899  0.00  0.00    +0.000 A 
ATOM      7  C   UNL     1       1.114   2.554  18.515  0.00  0.00    +0.000 A 
ATOM      8  C   UNL     1       1.236   3.963  18.479  0.00  0.00    +0.000 A 
ATOM      9  C   UNL     1       2.452   4.559  18.875  0.00  0.00    +0.000 A 
ENDROOT
BRANCH   1  11
ATOM     10  O   UNL     1       2.706   7.805  17.745  0.00  0.00    +0.000 OA
ATOM     11  C   UNL     1       2.508   7.254  18.827  0.00  0.00    +0.000 C 
ATOM     12  N   UNL     1       1.762   7.853  19.809  0.00  0.00    +0.000 N 
ATOM     13  H   UNL     1       1.673   7.423  20.712  0.00  0.00    +0.000 HD
BRANCH  12  14
ATOM     14  C   UNL     1       1.282   9.206  19.623  0.00  0.00    +0.000 C 
BRANCH  14  15
ATOM     15  C   UNL     1       0.488   9.695  20.803  0.00  0.00    +0.000 A 
ATOM     16  C   UNL     1       0.528   9.014  22.021  0.00  0.00    +0.000 A 
ATOM     17  C   UNL     1      -0.172   9.502  23.132  0.00  0.00    +0.000 A 
ATOM     18  C   UNL     1      -0.914  10.673  23.024  0.00  0.00    +0.000 A 
ATOM     19  C   UNL     1      -0.969  11.356  21.816  0.00  0.00    +0.000 A 
ATOM     20  C   UNL     1      -0.271  10.869  20.706  0.00  0.00    +0.000 A 
ENDBRANCH  14  15
ENDBRANCH  12  14
ENDBRANCH   1  11
BRANCH   3  21
ATOM     21  C   UNL     1       5.558   4.414  18.039  0.00  0.00    +0.000 C 
BRANCH  21  22
ATOM     22  C   UNL     1       5.691   5.679  17.184  0.00  0.00    +0.000 C 
ATOM     23  C   UNL     1       7.144   5.925  16.763  0.00  0.00    +0.000 C 
ATOM     24  C   UNL     1       7.648   4.859  15.795  0.00  0.00    +0.000 C 
ATOM     25  C   UNL     1       6.744   4.744  14.571  0.00  0.00    +0.000 C 
ATOM     26  C   UNL     1       5.280   4.522  14.942  0.00  0.00    +0.000 C 
ATOM     27  C   UNL     1       4.784   5.565  15.944  0.00  0.00    +0.000 C 
ENDBRANCH  21  22
ENDBRANCH   3  21
TORSDOF 5
ENDMDL
MODEL 5
REMARK VINA RESULT:      -8.7      3.876      6.120
REMARK  Name = 
REMARK  5 active torsions:
REMARK  status: ('A' for Active; 'I' for Inactive)
REMARK    1  A    between atoms: C_2  and  C_11
REMARK    2  A    between atoms: N_3  and  C_4
REMARK    3  A    between atoms: C_4  and  C_5
REMARK    4  A    between atoms: N_13  and  C_14
REMARK    5  A    between atoms: C_14  and  C_15
REMARK                            x       y       z     vdW  Elec       q    Type
REMARK                         _______ _______ _______ _____ _____    ______ ____
ROOT
ATOM      1  C   UNL     1       6.567   6.528  17.163  0.00  0.00    +0.000 A 
ATOM      2  C   UNL     1       5.213   6.807  17.343  0.00  0.00    +0.000 A 
ATOM      3  N   UNL     1       4.582   5.680  16.886  0.00  0.00    +0.000 N 
ATOM      4  C   UNL     1       5.274   5.308  15.744  0.00  0.00    +0.000 A 
ATOM      5  C   UNL     1       4.834   4.557  14.646  0.00  0.00    +0.000 A 
ATOM      6  C   UNL     1       5.814   4.101  13.770  0.00  0.00    +0.000 A 
ATOM      7  C   UNL     1       7.156   4.333  14.039  0.00  0.00    +0.000 A 
ATOM      8  C   UNL     1       7.575   5.089  15.159  0.00  0.00    +0.000 A 
ATOM      9  C   UNL     1       6.603   5.652  16.012  0.00  0.00    +0.000 A 
ENDROOT
BRANCH   1  11
ATOM     10  O   UNL     1       8.120   6.457  18.920  0.00  0.00    +0.000 OA
ATOM     11  C   UNL     1       7.551   7.127  18.059  0.00  0.00    +0.000 C 
ATOM     12  N   UNL     1       7.882   8.440  17.841  0.00  0.00    +0.000 N 
ATOM     13  H   UNL     1       7.357   8.993  17.187  0.00  0.00    +0.000 HD
BRANCH  12  14
ATOM     14  C   UNL     1       8.843   9.092  18.704  0.00  0.00    +0.000 C 
BRANCH  14  15
ATOM     15  C   UNL     1       9.082  10.524  18.309  0.00  0.00    +0.000 A 
ATOM     16  C   UNL     1      10.355  11.089  18.411  0.00  0.00    +0.000 A 
ATOM     17  C   UNL     1      10.584  12.406  17.994  0.00  0.00    +0.000 A 
ATOM     18  C   UNL     1       9.537  13.161  17.475  0.00  0.00    +0.000 A 
ATOM     19  C   UNL     1       8.265  12.614  17.376  0.00  0.00    +0.000 A 
ATOM     20  C   UNL     1       8.035  11.299  17.792  0.00  0.00    +0.000 A 
ENDBRANCH  14  15
ENDBRANCH  12  14
ENDBRANCH   1  11
BRANCH   3  21
ATOM     21  C   UNL     1       4.132   4.630  17.807  0.00  0.00    +0.000 C 
BRANCH  21  22
ATOM     22  C   UNL     1       2.980   3.744  17.320  0.00  0.00    +0.000 C 
ATOM     23  C   UNL     1       3.150   2.294  17.785  0.00  0.00    +0.000 C 
ATOM     24  C   UNL     1       3.008   2.157  19.298  0.00  0.00    +0.000 C 
ATOM     25  C   UNL     1       1.681   2.729  19.788  0.00  0.00    +0.000 C 
ATOM     26  C   UNL     1       1.456   4.167  19.328  0.00  0.00    +0.000 C 
ATOM     27  C   UNL     1       1.638   4.314  17.817  0.00  0.00    +0.000 C 
ENDBRANCH  21  22
ENDBRANCH   3  21
TORSDOF 5
ENDMDL
MODEL 6
REMARK VINA RESULT:      -8.7      2.729      7.832
REMARK  Name = 
REMARK  5 active torsions:
REMARK  status: ('A' for Active; 'I' for Inactive)
REMARK    1  A    between atoms: C_2  and  C_11
REMARK    2  A    between atoms: N_3  and  C_4
REMARK    3  A    between atoms: C_4  and  C_5
REMARK    4  A    between atoms: N_13  and  C_14
REMARK    5  A    between atoms: C_14  and  C_15
REMARK                            x       y       z     vdW  Elec       q    Type
REMARK                         _______ _______ _______ _____ _____    ______ ____
ROOT
ATOM      1  C   UNL     1       3.898   3.990  18.211  0.00  0.00    +0.000 A 
ATOM      2  C   UNL     1       2.863   4.179  17.295  0.00  0.00    +0.000 A 
ATOM      3  N   UNL     1       1.805   4.570  18.073  0.00  0.00    +0.000 N 
ATOM      4  C   UNL     1       1.862   3.769  19.203  0.00  0.00    +0.000 A 
ATOM      5  C   UNL     1       0.836   3.399  20.081  0.00  0.00    +0.000 A 
ATOM      6  C   UNL     1       1.223   2.817  21.283  0.00  0.00    +0.000 A 
ATOM      7  C   UNL     1       2.570   2.689  21.597  0.00  0.00    +0.000 A 
ATOM      8  C   UNL     1       3.588   3.077  20.695  0.00  0.00    +0.000 A 
ATOM      9  C   UNL     1       3.230   3.578  19.426  0.00  0.00    +0.000 A 
ENDROOT
BRANCH   1  11
ATOM     10  O   UNL     1       6.205   4.153  18.598  0.00  0.00    +0.000 OA
ATOM     11  C   UNL     1       5.279   4.203  17.790  0.00  0.00    +0.000 C 
ATOM     12  N   UNL     1       5.508   4.368  16.448  0.00  0.00    +0.000 N 
ATOM     13  H   UNL     1       4.739   4.483  15.813  0.00  0.00    +0.000 HD
BRANCH  12  14
ATOM     14  C   UNL     1       6.856   4.595  15.972  0.00  0.00    +0.000 C 
BRANCH  14  15
ATOM     15  C   UNL     1       6.954   4.496  14.474  0.00  0.00    +0.000 A 
ATOM     16  C   UNL     1       6.177   3.576  13.767  0.00  0.00    +0.000 A 
ATOM     17  C   UNL     1       6.233   3.522  12.369  0.00  0.00    +0.000 A 
ATOM     18  C   UNL     1       7.070   4.390  11.676  0.00  0.00    +0.000 A 
ATOM     19  C   UNL     1       7.855   5.304  12.366  0.00  0.00    +0.000 A 
ATOM     20  C   UNL     1       7.799   5.357  13.763  0.00  0.00    +0.000 A 
ENDBRANCH  14  15
ENDBRANCH  12  14
ENDBRANCH   1  11
BRANCH   3  21
ATOM     21  C   UNL     1       1.455   5.986  18.232  0.00  0.00    +0.000 C 
BRANCH  21  22
ATOM     22  C   UNL     1       2.561   6.906  18.761  0.00  0.00    +0.000 C 
ATOM     23  C   UNL     1       2.766   8.121  17.851  0.00  0.00    +0.000 C 
ATOM     24  C   UNL     1       1.564   9.062  17.872  0.00  0.00    +0.000 C 
ATOM     25  C   UNL     1       1.224   9.502  19.293  0.00  0.00    +0.000 C 
ATOM     26  C   UNL     1       1.035   8.323  20.243  0.00  0.00    +0.000 C 
ATOM     27  C   UNL     1       2.220   7.358  20.194  0.00  0.00    +0.000 C 
ENDBRANCH  21  22
ENDBRANCH   3  21
TORSDOF 5
ENDMDL
MODEL 7
REMARK VINA RESULT:      -8.7      3.766      6.165
REMARK  Name = 
REMARK  5 active torsions:
REMARK  status: ('A' for Active; 'I' for Inactive)
REMARK    1  A    between atoms: C_2  and  C_11
REMARK    2  A    between atoms: N_3  and  C_4
REMARK    3  A    between atoms: C_4  and  C_5
REMARK    4  A    between atoms: N_13  and  C_14
REMARK    5  A    between atoms: C_14  and  C_15
REMARK                            x       y       z     vdW  Elec       q    Type
REMARK                         _______ _______ _______ _____ _____    ______ ____
ROOT
ATOM      1  C   UNL     1       6.581   6.668  17.211  0.00  0.00    +0.000 A 
ATOM      2  C   UNL     1       5.246   7.047  17.346  0.00  0.00    +0.000 A 
ATOM      3  N   UNL     1       4.548   5.931  16.964  0.00  0.00    +0.000 N 
ATOM      4  C   UNL     1       5.228   5.431  15.864  0.00  0.00    +0.000 A 
ATOM      5  C   UNL     1       4.754   4.630  14.817  0.00  0.00    +0.000 A 
ATOM      6  C   UNL     1       5.712   4.048  13.994  0.00  0.00    +0.000 A 
ATOM      7  C   UNL     1       7.064   4.212  14.268  0.00  0.00    +0.000 A 
ATOM      8  C   UNL     1       7.517   5.021  15.336  0.00  0.00    +0.000 A 
ATOM      9  C   UNL     1       6.573   5.708  16.129  0.00  0.00    +0.000 A 
ENDROOT
BRANCH   1  11
ATOM     10  O   UNL     1       8.181   6.600  18.925  0.00  0.00    +0.000 OA
ATOM     11  C   UNL     1       7.590   7.268  18.077  0.00  0.00    +0.000 C 
ATOM     12  N   UNL     1       7.919   8.579  17.844  0.00  0.00    +0.000 N 
ATOM     13  H   UNL     1       7.378   9.131  17.203  0.00  0.00    +0.000 HD
BRANCH  12  14
ATOM     14  C   UNL     1       8.905   9.232  18.678  0.00  0.00    +0.000 C 
BRANCH  14  15
ATOM     15  C   UNL     1       9.188  10.639  18.228  0.00  0.00    +0.000 A 
ATOM     16  C   UNL     1       8.150  11.481  17.824  0.00  0.00    +0.000 A 
ATOM     17  C   UNL     1       8.412  12.807  17.455  0.00  0.00    +0.000 A 
ATOM     18  C   UNL     1       9.716  13.291  17.489  0.00  0.00    +0.000 A 
ATOM     19  C   UNL     1      10.758  12.462  17.881  0.00  0.00    +0.000 A 
ATOM     20  C   UNL     1      10.497  11.138  18.249  0.00  0.00    +0.000 A 
ENDBRANCH  14  15
ENDBRANCH  12  14
ENDBRANCH   1  11
BRANCH   3  21
ATOM     21  C   UNL     1       4.018   4.985  17.951  0.00  0.00    +0.000 C 
BRANCH  21  22
ATOM     22  C   UNL     1       2.584   5.233  18.432  0.00  0.00    +0.000 C 
ATOM     23  C   UNL     1       1.588   4.298  17.739  0.00  0.00    +0.000 C 
ATOM     24  C   UNL     1       1.789   2.841  18.148  0.00  0.00    +0.000 C 
ATOM     25  C   UNL     1       1.723   2.673  19.664  0.00  0.00    +0.000 C 
ATOM     26  C   UNL     1       2.683   3.603  20.400  0.00  0.00    +0.000 C 
ATOM     27  C   UNL     1       2.511   5.058  19.962  0.00  0.00    +0.000 C 
ENDBRANCH  21  22
ENDBRANCH   3  21
TORSDOF 5
ENDMDL
MODEL 8
REMARK VINA RESULT:      -8.6      3.262      7.684
REMARK  Name = 
REMARK  5 active torsions:
REMARK  status: ('A' for Active; 'I' for Inactive)
REMARK    1  A    between atoms: C_2  and  C_11
REMARK    2  A    between atoms: N_3  and  C_4
REMARK    3  A    between atoms: C_4  and  C_5
REMARK    4  A    between atoms: N_13  and  C_14
REMARK    5  A    between atoms: C_14  and  C_15
REMARK                            x       y       z     vdW  Elec       q    Type
REMARK                         _______ _______ _______ _____ _____    ______ ____
ROOT
ATOM      1  C   UNL     1       1.133  10.260  18.803  0.00  0.00    +0.000 A 
ATOM      2  C   UNL     1      -0.094  10.057  19.433  0.00  0.00    +0.000 A 
ATOM      3  N   UNL     1      -0.774  11.226  19.211  0.00  0.00    +0.000 N 
ATOM      4  C   UNL     1       0.162  12.234  19.382  0.00  0.00    +0.000 A 
ATOM      5  C   UNL     1      -0.033  13.577  19.731  0.00  0.00    +0.000 A 
ATOM      6  C   UNL     1       1.053  14.429  19.564  0.00  0.00    +0.000 A 
ATOM      7  C   UNL     1       2.234  13.957  19.007  0.00  0.00    +0.000 A 
ATOM      8  C   UNL     1       2.405  12.597  18.656  0.00  0.00    +0.000 A 
ATOM      9  C   UNL     1       1.358  11.685  18.907  0.00  0.00    +0.000 A 
ENDROOT
BRANCH   1  11
ATOM     10  O   UNL     1       2.265   9.120  17.094  0.00  0.00    +0.000 OA
ATOM     11  C   UNL     1       1.857   9.118  18.255  0.00  0.00    +0.000 C 
ATOM     12  N   UNL     1       2.145   8.086  19.111  0.00  0.00    +0.000 N 
ATOM     13  H   UNL     1       1.741   8.063  20.030  0.00  0.00    +0.000 HD
BRANCH  12  14
ATOM     14  C   UNL     1       2.851   6.921  18.622  0.00  0.00    +0.000 C 
BRANCH  14  15
ATOM     15  C   UNL     1       2.159   5.639  18.994  0.00  0.00    +0.000 A 
ATOM     16  C   UNL     1       1.869   4.677  18.024  0.00  0.00    +0.000 A 
ATOM     17  C   UNL     1       1.271   3.462  18.382  0.00  0.00    +0.000 A 
ATOM     18  C   UNL     1       0.961   3.209  19.715  0.00  0.00    +0.000 A 
ATOM     19  C   UNL     1       1.235   4.160  20.688  0.00  0.00    +0.000 A 
ATOM     20  C   UNL     1       1.832   5.374  20.330  0.00  0.00    +0.000 A 
ENDBRANCH  14  15
ENDBRANCH  12  14
ENDBRANCH   1  11
BRANCH   3  21
ATOM     21  C   UNL     1      -1.747  11.349  18.120  0.00  0.00    +0.000 C 
BRANCH  21  22
ATOM     22  C   UNL     1      -2.620  10.120  17.843  0.00  0.00    +0.000 C 
ATOM     23  C   UNL     1      -4.111  10.470  17.872  0.00  0.00    +0.000 C 
ATOM     24  C   UNL     1      -4.509  11.382  16.715  0.00  0.00    +0.000 C 
ATOM     25  C   UNL     1      -4.122  10.775  15.368  0.00  0.00    +0.000 C 
ATOM     26  C   UNL     1      -2.648  10.388  15.301  0.00  0.00    +0.000 C 
ATOM     27  C   UNL     1      -2.237   9.507  16.482  0.00  0.00    +0.000 C 
ENDBRANCH  21  22
ENDBRANCH   3  21
TORSDOF 5
ENDMDL
MODEL 9
REMARK VINA RESULT:      -8.6      1.272      4.135
REMARK  Name = 
REMARK  5 active torsions:
REMARK  status: ('A' for Active; 'I' for Inactive)
REMARK    1  A    between atoms: C_2  and  C_11
REMARK    2  A    between atoms: N_3  and  C_4
REMARK    3  A    between atoms: C_4  and  C_5
REMARK    4  A    between atoms: N_13  and  C_14
REMARK    5  A    between atoms: C_14  and  C_15
REMARK                            x       y       z     vdW  Elec       q    Type
REMARK                         _______ _______ _______ _____ _____    ______ ____
ROOT
ATOM      1  C   UNL     1       2.904   6.172  19.460  0.00  0.00    +0.000 A 
ATOM      2  C   UNL     1       4.278   5.950  19.382  0.00  0.00    +0.000 A 
ATOM      3  N   UNL     1       4.378   4.613  19.097  0.00  0.00    +0.000 N 
ATOM      4  C   UNL     1       3.417   3.997  19.884  0.00  0.00    +0.000 A 
ATOM      5  C   UNL     1       3.367   2.678  20.353  0.00  0.00    +0.000 A 
ATOM      6  C   UNL     1       2.157   2.252  20.888  0.00  0.00    +0.000 A 
ATOM      7  C   UNL     1       1.052   3.093  20.877  0.00  0.00    +0.000 A 
ATOM      8  C   UNL     1       1.126   4.419  20.391  0.00  0.00    +0.000 A 
ATOM      9  C   UNL     1       2.364   4.916  19.934  0.00  0.00    +0.000 A 
ENDROOT
BRANCH   1  11
ATOM     10  O   UNL     1       2.534   7.961  17.988  0.00  0.00    +0.000 OA
ATOM     11  C   UNL     1       2.365   7.482  19.109  0.00  0.00    +0.000 C 
ATOM     12  N   UNL     1       1.587   8.114  20.045  0.00  0.00    +0.000 N 
ATOM     13  H   UNL     1       1.521   7.749  20.979  0.00  0.00    +0.000 HD
BRANCH  12  14
ATOM     14  C   UNL     1       1.035   9.420  19.758  0.00  0.00    +0.000 C 
BRANCH  14  15
ATOM     15  C   UNL     1       0.276   9.986  20.928  0.00  0.00    +0.000 A 
ATOM     16  C   UNL     1      -0.445  11.175  20.802  0.00  0.00    +0.000 A 
ATOM     17  C   UNL     1      -1.192  11.671  21.878  0.00  0.00    +0.000 A 
ATOM     18  C   UNL     1      -1.215  10.978  23.084  0.00  0.00    +0.000 A 
ATOM     19  C   UNL     1      -0.494   9.799  23.225  0.00  0.00    +0.000 A 
ATOM     20  C   UNL     1       0.251   9.303  22.151  0.00  0.00    +0.000 A 
ENDBRANCH  14  15
ENDBRANCH  12  14
ENDBRANCH   1  11
BRANCH   3  21
ATOM     21  C   UNL     1       4.574   4.137  17.724  0.00  0.00    +0.000 C 
BRANCH  21  22
ATOM     22  C   UNL     1       4.674   5.212  16.636  0.00  0.00    +0.000 C 
ATOM     23  C   UNL     1       5.867   6.143  16.874  0.00  0.00    +0.000 C 
ATOM     24  C   UNL     1       7.201   5.422  16.701  0.00  0.00    +0.000 C 
ATOM     25  C   UNL     1       7.301   4.755  15.332  0.00  0.00    +0.000 C 
ATOM     26  C   UNL     1       6.119   3.834  15.040  0.00  0.00    +0.000 C 
ATOM     27  C   UNL     1       4.781   4.543  15.252  0.00  0.00    +0.000 C 
ENDBRANCH  21  22
ENDBRANCH   3  21
TORSDOF 5
ENDMDL
