MODEL 1
REMARK VINA RESULT:      -6.8      0.000      0.000
REMARK  Name = 
REMARK  6 active torsions:
REMARK  status: ('A' for Active; 'I' for Inactive)
REMARK    1  A    between atoms: C_2  and  C_3
REMARK    2  A    between atoms: C_4  and  N_5
REMARK    3  A    between atoms: N_18  and  C_19
REMARK    4  A    between atoms: C_19  and  C_20
REMARK    5  A    between atoms: C_20  and  C_21
REMARK    6  A    between atoms: C_21  and  C_22
REMARK                            x       y       z     vdW  Elec       q    Type
REMARK                         _______ _______ _______ _____ _____    ______ ____
ROOT
ATOM      1  C   UNL     1       2.353   6.380  18.353  0.00  0.00    +0.000 C 
ATOM      2  C   UNL     1       2.334   6.579  19.754  0.00  0.00    +0.000 C 
ATOM      3  O   UNL     1       3.051   5.753  20.619  0.00  0.00    +0.000 OA
ATOM      4  C   UNL     1       2.502   4.506  20.505  0.00  0.00    +0.000 A 
ATOM      5  N   UNL     1       2.141   3.896  21.661  0.00  0.00    +0.000 N 
ATOM      6  C   UNL     1       1.191   2.922  21.681  0.00  0.00    +0.000 A 
ATOM      7  O   UNL     1       0.836   2.379  22.713  0.00  0.00    +0.000 OA
ATOM      8  N   UNL     1       0.600   2.690  20.457  0.00  0.00    +0.000 N 
ATOM      9  C   UNL     1       0.844   3.419  19.312  0.00  0.00    +0.000 A 
ATOM     10  O   UNL     1       0.019   3.506  18.406  0.00  0.00    +0.000 OA
ATOM     11  C   UNL     1       2.070   4.206  19.276  0.00  0.00    +0.000 A 
ATOM     12  C   UNL     1       2.828   5.013  17.873  0.00  0.00    +0.000 C 
ATOM     13  C   UNL     1       4.361   5.861  17.962  0.00  0.00    +0.000 C 
ATOM     14  O   UNL     1       4.612   6.977  17.507  0.00  0.00    +0.000 OA
ATOM     15  N   UNL     1       5.308   5.098  18.631  0.00  0.00    +0.000 N 
ATOM     16  C   UNL     1       4.895   3.780  18.604  0.00  0.00    +0.000 A 
ATOM     17  C   UNL     1       5.405   2.692  19.284  0.00  0.00    +0.000 A 
ATOM     18  C   UNL     1       4.696   1.492  19.205  0.00  0.00    +0.000 A 
ATOM     19  C   UNL     1       3.613   1.354  18.323  0.00  0.00    +0.000 A 
ATOM     20  C   UNL     1       3.157   2.442  17.575  0.00  0.00    +0.000 A 
ATOM     21  C   UNL     1       3.703   3.701  17.863  0.00  0.00    +0.000 A 
ATOM     22  H   UNL     1       2.531   4.205  22.552  0.00  0.00    +0.000 HD
ATOM     23  H   UNL     1      -0.266   2.169  20.519  0.00  0.00    +0.000 HD
ENDROOT
BRANCH   2  24
ATOM     24  N   UNL     1       1.357   7.323  20.441  0.00  0.00    +0.000 N 
ATOM     25  H   UNL     1       1.550   8.330  20.486  0.00  0.00    +0.000 HD
ATOM     26  H   UNL     1       0.442   7.201  20.006  0.00  0.00    +0.000 HD
ENDBRANCH   2  24
BRANCH   1  28
ATOM     27  N   UNL     1       1.576   8.984  17.761  0.00  0.00    +0.000 NA
ATOM     28  C   UNL     1       1.928   7.803  18.029  0.00  0.00    +0.000 C 
ENDBRANCH   1  28
BRANCH  15  29
ATOM     29  C   UNL     1       6.562   5.592  19.176  0.00  0.00    +0.000 C 
BRANCH  29  30
ATOM     30  C   UNL     1       7.802   5.434  18.283  0.00  0.00    +0.000 C 
BRANCH  30  31
ATOM     31  C   UNL     1       7.658   4.542  17.041  0.00  0.00    +0.000 C 
BRANCH  31  32
ATOM     32  C   UNL     1       7.155   5.218  15.770  0.00  0.00    +0.000 C 
ATOM     33 BR   UNL     1       5.956   4.053  14.769  0.00  0.00    +0.000 Br
ENDBRANCH  31  32
ENDBRANCH  30  31
ENDBRANCH  29  30
ENDBRANCH  15  29
TORSDOF 6
ENDMDL
MODEL 2
REMARK VINA RESULT:      -6.6      1.658      1.786
REMARK  Name = 
REMARK  6 active torsions:
REMARK  status: ('A' for Active; 'I' for Inactive)
REMARK    1  A    between atoms: C_2  and  C_3
REMARK    2  A    between atoms: C_4  and  N_5
REMARK    3  A    between atoms: N_18  and  C_19
REMARK    4  A    between atoms: C_19  and  C_20
REMARK    5  A    between atoms: C_20  and  C_21
REMARK    6  A    between atoms: C_21  and  C_22
REMARK                            x       y       z     vdW  Elec       q    Type
REMARK                         _______ _______ _______ _____ _____    ______ ____
ROOT
ATOM      1  C   UNL     1       2.504   6.411  18.222  0.00  0.00    +0.000 C 
ATOM      2  C   UNL     1       2.466   6.639  19.618  0.00  0.00    +0.000 C 
ATOM      3  O   UNL     1       3.157   5.818  20.511  0.00  0.00    +0.000 OA
ATOM      4  C   UNL     1       2.588   4.579  20.413  0.00  0.00    +0.000 A 
ATOM      5  N   UNL     1       2.198   3.999  21.575  0.00  0.00    +0.000 N 
ATOM      6  C   UNL     1       1.232   3.040  21.598  0.00  0.00    +0.000 A 
ATOM      7  O   UNL     1       0.852   2.524  22.635  0.00  0.00    +0.000 OA
ATOM      8  N   UNL     1       0.657   2.794  20.370  0.00  0.00    +0.000 N 
ATOM      9  C   UNL     1       0.930   3.496  19.215  0.00  0.00    +0.000 A 
ATOM     10  O   UNL     1       0.121   3.578  18.294  0.00  0.00    +0.000 OA
ATOM     11  C   UNL     1       2.170   4.261  19.183  0.00  0.00    +0.000 A 
ATOM     12  C   UNL     1       2.963   5.028  17.776  0.00  0.00    +0.000 C 
ATOM     13  C   UNL     1       4.509   5.851  17.873  0.00  0.00    +0.000 C 
ATOM     14  O   UNL     1       4.786   6.953  17.400  0.00  0.00    +0.000 OA
ATOM     15  N   UNL     1       5.432   5.086  18.572  0.00  0.00    +0.000 N 
ATOM     16  C   UNL     1       4.998   3.776  18.565  0.00  0.00    +0.000 A 
ATOM     17  C   UNL     1       5.478   2.693  19.273  0.00  0.00    +0.000 A 
ATOM     18  C   UNL     1       4.751   1.503  19.207  0.00  0.00    +0.000 A 
ATOM     19  C   UNL     1       3.679   1.366  18.311  0.00  0.00    +0.000 A 
ATOM     20  C   UNL     1       3.254   2.446  17.534  0.00  0.00    +0.000 A 
ATOM     21  C   UNL     1       3.817   3.702  17.807  0.00  0.00    +0.000 A 
ATOM     22  H   UNL     1       2.580   4.318  22.466  0.00  0.00    +0.000 HD
ATOM     23  H   UNL     1      -0.219   2.289  20.428  0.00  0.00    +0.000 HD
ENDROOT
BRANCH   2  24
ATOM     24  N   UNL     1       1.492   7.413  20.275  0.00  0.00    +0.000 N 
ATOM     25  H   UNL     1       0.692   7.668  19.687  0.00  0.00    +0.000 HD
ATOM     26  H   UNL     1       1.132   6.917  21.091  0.00  0.00    +0.000 HD
ENDBRANCH   2  24
BRANCH   1  28
ATOM     27  N   UNL     1       1.780   9.015  17.566  0.00  0.00    +0.000 NA
ATOM     28  C   UNL     1       2.109   7.835  17.863  0.00  0.00    +0.000 C 
ENDBRANCH   1  28
BRANCH  15  29
ATOM     29  C   UNL     1       6.686   5.570  19.127  0.00  0.00    +0.000 C 
BRANCH  29  30
ATOM     30  C   UNL     1       7.654   6.241  18.140  0.00  0.00    +0.000 C 
BRANCH  30  31
ATOM     31  C   UNL     1       8.303   7.560  18.587  0.00  0.00    +0.000 C 
BRANCH  31  32
ATOM     32  C   UNL     1       7.996   8.791  17.742  0.00  0.00    +0.000 C 
ATOM     33 BR   UNL     1       8.953  10.359  18.393  0.00  0.00    +0.000 Br
ENDBRANCH  31  32
ENDBRANCH  30  31
ENDBRANCH  29  30
ENDBRANCH  15  29
TORSDOF 6
ENDMDL
MODEL 3
REMARK VINA RESULT:      -6.5      3.013      3.754
REMARK  Name = 
REMARK  6 active torsions:
REMARK  status: ('A' for Active; 'I' for Inactive)
REMARK    1  A    between atoms: C_2  and  C_3
REMARK    2  A    between atoms: C_4  and  N_5
REMARK    3  A    between atoms: N_18  and  C_19
REMARK    4  A    between atoms: C_19  and  C_20
REMARK    5  A    between atoms: C_20  and  C_21
REMARK    6  A    between atoms: C_21  and  C_22
REMARK                            x       y       z     vdW  Elec       q    Type
REMARK                         _______ _______ _______ _____ _____    ______ ____
ROOT
ATOM      1  C   UNL     1       3.224   6.620  18.323  0.00  0.00    +0.000 C 
ATOM      2  C   UNL     1       3.620   5.980  19.521  0.00  0.00    +0.000 C 
ATOM      3  O   UNL     1       4.787   5.217  19.590  0.00  0.00    +0.000 OA
ATOM      4  C   UNL     1       4.601   4.153  18.752  0.00  0.00    +0.000 A 
ATOM      5  N   UNL     1       4.832   2.923  19.274  0.00  0.00    +0.000 N 
ATOM      6  C   UNL     1       4.255   1.809  18.746  0.00  0.00    +0.000 A 
ATOM      7  O   UNL     1       4.433   0.698  19.217  0.00  0.00    +0.000 OA
ATOM      8  N   UNL     1       3.378   2.068  17.716  0.00  0.00    +0.000 N 
ATOM      9  C   UNL     1       3.011   3.326  17.288  0.00  0.00    +0.000 A 
ATOM     10  O   UNL     1       1.940   3.537  16.723  0.00  0.00    +0.000 OA
ATOM     11  C   UNL     1       3.883   4.433  17.658  0.00  0.00    +0.000 A 
ATOM     12  C   UNL     1       3.870   6.110  17.040  0.00  0.00    +0.000 C 
ATOM     13  C   UNL     1       5.044   7.322  17.519  0.00  0.00    +0.000 C 
ATOM     14  O   UNL     1       4.807   8.479  17.865  0.00  0.00    +0.000 OA
ATOM     15  N   UNL     1       6.333   6.810  17.459  0.00  0.00    +0.000 N 
ATOM     16  C   UNL     1       6.319   5.706  16.630  0.00  0.00    +0.000 A 
ATOM     17  C   UNL     1       7.308   4.769  16.407  0.00  0.00    +0.000 A 
ATOM     18  C   UNL     1       6.978   3.651  15.639  0.00  0.00    +0.000 A 
ATOM     19  C   UNL     1       5.746   3.577  14.972  0.00  0.00    +0.000 A 
ATOM     20  C   UNL     1       4.782   4.575  15.137  0.00  0.00    +0.000 A 
ATOM     21  C   UNL     1       5.020   5.550  16.117  0.00  0.00    +0.000 A 
ATOM     22  H   UNL     1       5.397   2.818  20.118  0.00  0.00    +0.000 HD
ATOM     23  H   UNL     1       2.764   1.291  17.503  0.00  0.00    +0.000 HD
ENDROOT
BRANCH   2  24
ATOM     24  N   UNL     1       2.765   5.716  20.606  0.00  0.00    +0.000 N 
ATOM     25  H   UNL     1       3.168   5.097  21.318  0.00  0.00    +0.000 HD
ATOM     26  H   UNL     1       2.493   6.585  21.068  0.00  0.00    +0.000 HD
ENDBRANCH   2  24
BRANCH   1  28
ATOM     27  N   UNL     1       1.601   8.478  19.606  0.00  0.00    +0.000 NA
ATOM     28  C   UNL     1       2.337   7.636  19.024  0.00  0.00    +0.000 C 
ENDBRANCH   1  28
BRANCH  15  29
ATOM     29  C   UNL     1       7.508   7.398  18.083  0.00  0.00    +0.000 C 
BRANCH  29  30
ATOM     30  C   UNL     1       7.918   8.792  17.584  0.00  0.00    +0.000 C 
BRANCH  30  31
ATOM     31  C   UNL     1       8.784   9.643  18.525  0.00  0.00    +0.000 C 
BRANCH  31  32
ATOM     32  C   UNL     1       8.944  11.114  18.160  0.00  0.00    +0.000 C 
ATOM     33 BR   UNL     1      10.822  11.630  18.084  0.00  0.00    +0.000 Br
ENDBRANCH  31  32
ENDBRANCH  30  31
ENDBRANCH  29  30
ENDBRANCH  15  29
TORSDOF 6
ENDMDL
MODEL 4
REMARK VINA RESULT:      -6.4      8.758     11.780
REMARK  Name = 
REMARK  6 active torsions:
REMARK  status: ('A' for Active; 'I' for Inactive)
REMARK    1  A    between atoms: C_2  and  C_3
REMARK    2  A    between atoms: C_4  and  N_5
REMARK    3  A    between atoms: N_18  and  C_19
REMARK    4  A    between atoms: C_19  and  C_20
REMARK    5  A    between atoms: C_20  and  C_21
REMARK    6  A    between atoms: C_21  and  C_22
REMARK                            x       y       z     vdW  Elec       q    Type
REMARK                         _______ _______ _______ _____ _____    ______ ____
ROOT
ATOM      1  C   UNL     1       9.261  13.270  21.730  0.00  0.00    +0.000 C 
ATOM      2  C   UNL     1       8.069  13.874  21.264  0.00  0.00    +0.000 C 
ATOM      3  O   UNL     1       7.847  14.095  19.904  0.00  0.00    +0.000 OA
ATOM      4  C   UNL     1       8.794  14.994  19.500  0.00  0.00    +0.000 A 
ATOM      5  N   UNL     1       8.345  16.088  18.835  0.00  0.00    +0.000 N 
ATOM      6  C   UNL     1       9.067  17.241  18.802  0.00  0.00    +0.000 A 
ATOM      7  O   UNL     1       8.669  18.242  18.229  0.00  0.00    +0.000 OA
ATOM      8  N   UNL     1      10.219  17.204  19.556  0.00  0.00    +0.000 N 
ATOM      9  C   UNL     1      10.598  16.154  20.367  0.00  0.00    +0.000 A 
ATOM     10  O   UNL     1      11.335  16.312  21.337  0.00  0.00    +0.000 OA
ATOM     11  C   UNL     1       9.975  14.862  20.113  0.00  0.00    +0.000 A 
ATOM     12  C   UNL     1      10.437  13.262  20.761  0.00  0.00    +0.000 C 
ATOM     13  C   UNL     1       9.642  11.769  20.298  0.00  0.00    +0.000 C 
ATOM     14  O   UNL     1       9.248  10.880  21.053  0.00  0.00    +0.000 OA
ATOM     15  N   UNL     1       9.501  11.693  18.919  0.00  0.00    +0.000 N 
ATOM     16  C   UNL     1      10.409  12.560  18.345  0.00  0.00    +0.000 A 
ATOM     17  C   UNL     1      10.521  12.963  17.030  0.00  0.00    +0.000 A 
ATOM     18  C   UNL     1      11.431  13.981  16.741  0.00  0.00    +0.000 A 
ATOM     19  C   UNL     1      12.324  14.445  17.720  0.00  0.00    +0.000 A 
ATOM     20  C   UNL     1      12.258  13.967  19.030  0.00  0.00    +0.000 A 
ATOM     21  C   UNL     1      11.171  13.149  19.369  0.00  0.00    +0.000 A 
ATOM     22  H   UNL     1       7.422  16.086  18.400  0.00  0.00    +0.000 HD
ATOM     23  H   UNL     1      10.611  18.119  19.743  0.00  0.00    +0.000 HD
ENDROOT
BRANCH   2  24
ATOM     24  N   UNL     1       7.193  14.633  22.060  0.00  0.00    +0.000 N 
ATOM     25  H   UNL     1       6.880  15.507  21.625  0.00  0.00    +0.000 HD
ATOM     26  H   UNL     1       6.362  14.089  22.296  0.00  0.00    +0.000 HD
ENDBRANCH   2  24
BRANCH   1  28
ATOM     27  N   UNL     1       8.153  12.466  24.151  0.00  0.00    +0.000 NA
ATOM     28  C   UNL     1       8.655  12.831  23.053  0.00  0.00    +0.000 C 
ENDBRANCH   1  28
BRANCH  15  29
ATOM     29  C   UNL     1       8.616  10.784  18.207  0.00  0.00    +0.000 C 
BRANCH  29  30
ATOM     30  C   UNL     1       8.838   9.284  18.456  0.00  0.00    +0.000 C 
BRANCH  30  31
ATOM     31  C   UNL     1       7.902   8.310  17.724  0.00  0.00    +0.000 C 
BRANCH  31  32
ATOM     32  C   UNL     1       7.833   6.890  18.274  0.00  0.00    +0.000 C 
ATOM     33 BR   UNL     1       6.479   5.834  17.351  0.00  0.00    +0.000 Br
ENDBRANCH  31  32
ENDBRANCH  30  31
ENDBRANCH  29  30
ENDBRANCH  15  29
TORSDOF 6
ENDMDL
MODEL 5
REMARK VINA RESULT:      -5.9      7.394     10.605
REMARK  Name = 
REMARK  6 active torsions:
REMARK  status: ('A' for Active; 'I' for Inactive)
REMARK    1  A    between atoms: C_2  and  C_3
REMARK    2  A    between atoms: C_4  and  N_5
REMARK    3  A    between atoms: N_18  and  C_19
REMARK    4  A    between atoms: C_19  and  C_20
REMARK    5  A    between atoms: C_20  and  C_21
REMARK    6  A    between atoms: C_21  and  C_22
REMARK                            x       y       z     vdW  Elec       q    Type
REMARK                         _______ _______ _______ _____ _____    ______ ____
ROOT
ATOM      1  C   UNL     1      -1.088  12.745  21.818  0.00  0.00    +0.000 C 
ATOM      2  C   UNL     1      -1.980  13.153  20.799  0.00  0.00    +0.000 C 
ATOM      3  O   UNL     1      -1.563  13.289  19.474  0.00  0.00    +0.000 OA
ATOM      4  C   UNL     1      -0.642  14.299  19.462  0.00  0.00    +0.000 A 
ATOM      5  N   UNL     1      -0.844  15.291  18.561  0.00  0.00    +0.000 N 
ATOM      6  C   UNL     1      -0.320  16.534  18.747  0.00  0.00    +0.000 A 
ATOM      7  O   UNL     1      -0.511  17.446  17.959  0.00  0.00    +0.000 OA
ATOM      8  N   UNL     1       0.341  16.690  19.945  0.00  0.00    +0.000 N 
ATOM      9  C   UNL     1       0.409  15.737  20.940  0.00  0.00    +0.000 A 
ATOM     10  O   UNL     1       0.584  16.035  22.119  0.00  0.00    +0.000 OA
ATOM     11  C   UNL     1       0.122  14.360  20.558  0.00  0.00    +0.000 A 
ATOM     12  C   UNL     1       0.398  12.868  21.502  0.00  0.00    +0.000 C 
ATOM     13  C   UNL     1       0.080  11.260  20.878  0.00  0.00    +0.000 C 
ATOM     14  O   UNL     1      -0.522  10.353  21.452  0.00  0.00    +0.000 OA
ATOM     15  N   UNL     1       0.610  11.113  19.603  0.00  0.00    +0.000 N 
ATOM     16  C   UNL     1       1.580  12.079  19.426  0.00  0.00    +0.000 A 
ATOM     17  C   UNL     1       2.249  12.444  18.276  0.00  0.00    +0.000 A 
ATOM     18  C   UNL     1       3.072  13.570  18.337  0.00  0.00    +0.000 A 
ATOM     19  C   UNL     1       3.347  14.193  19.564  0.00  0.00    +0.000 A 
ATOM     20  C   UNL     1       2.728  13.761  20.739  0.00  0.00    +0.000 A 
ATOM     21  C   UNL     1       1.705  12.809  20.621  0.00  0.00    +0.000 A 
ATOM     22  H   UNL     1      -1.450  15.141  17.753  0.00  0.00    +0.000 HD
ATOM     23  H   UNL     1       0.497  17.659  20.198  0.00  0.00    +0.000 HD
ENDROOT
BRANCH   2  24
ATOM     24  N   UNL     1      -3.204  13.809  21.025  0.00  0.00    +0.000 N 
ATOM     25  H   UNL     1      -3.920  13.620  20.315  0.00  0.00    +0.000 HD
ATOM     26  H   UNL     1      -3.590  13.543  21.932  0.00  0.00    +0.000 HD
ENDBRANCH   2  24
BRANCH   1  28
ATOM     27  N   UNL     1      -3.104  11.881  23.528  0.00  0.00    +0.000 NA
ATOM     28  C   UNL     1      -2.190  12.273  22.753  0.00  0.00    +0.000 C 
ENDBRANCH   1  28
BRANCH  15  29
ATOM     29  C   UNL     1       0.266  10.061  18.659  0.00  0.00    +0.000 C 
BRANCH  29  30
ATOM     30  C   UNL     1      -0.903  10.355  17.707  0.00  0.00    +0.000 C 
BRANCH  30  31
ATOM     31  C   UNL     1      -2.319  10.074  18.232  0.00  0.00    +0.000 C 
BRANCH  31  32
ATOM     32  C   UNL     1      -3.471  10.380  17.283  0.00  0.00    +0.000 C 
ATOM     33 BR   UNL     1      -2.908  10.272  15.420  0.00  0.00    +0.000 Br
ENDBRANCH  31  32
ENDBRANCH  30  31
ENDBRANCH  29  30
ENDBRANCH  15  29
TORSDOF 6
ENDMDL
MODEL 6
REMARK VINA RESULT:      -5.8      9.341     12.196
REMARK  Name = 
REMARK  6 active torsions:
REMARK  status: ('A' for Active; 'I' for Inactive)
REMARK    1  A    between atoms: C_2  and  C_3
REMARK    2  A    between atoms: C_4  and  N_5
REMARK    3  A    between atoms: N_18  and  C_19
REMARK    4  A    between atoms: C_19  and  C_20
REMARK    5  A    between atoms: C_20  and  C_21
REMARK    6  A    between atoms: C_21  and  C_22
REMARK                            x       y       z     vdW  Elec       q    Type
REMARK                         _______ _______ _______ _____ _____    ______ ____
ROOT
ATOM      1  C   UNL     1       9.271  13.634  21.989  0.00  0.00    +0.000 C 
ATOM      2  C   UNL     1       7.980  13.569  21.415  0.00  0.00    +0.000 C 
ATOM      3  O   UNL     1       7.767  13.837  20.062  0.00  0.00    +0.000 OA
ATOM      4  C   UNL     1       8.092  15.151  19.874  0.00  0.00    +0.000 A 
ATOM      5  N   UNL     1       7.165  15.921  19.252  0.00  0.00    +0.000 N 
ATOM      6  C   UNL     1       7.137  17.271  19.420  0.00  0.00    +0.000 A 
ATOM      7  O   UNL     1       6.297  17.977  18.888  0.00  0.00    +0.000 OA
ATOM      8  N   UNL     1       8.066  17.743  20.322  0.00  0.00    +0.000 N 
ATOM      9  C   UNL     1       8.901  16.951  21.083  0.00  0.00    +0.000 A 
ATOM     10  O   UNL     1       9.362  17.332  22.156  0.00  0.00    +0.000 OA
ATOM     11  C   UNL     1       9.107  15.581  20.632  0.00  0.00    +0.000 A 
ATOM     12  C   UNL     1      10.324  14.400  21.195  0.00  0.00    +0.000 C 
ATOM     13  C   UNL     1      10.510  12.802  20.497  0.00  0.00    +0.000 C 
ATOM     14  O   UNL     1      10.617  11.739  21.109  0.00  0.00    +0.000 OA
ATOM     15  N   UNL     1      10.529  12.869  19.111  0.00  0.00    +0.000 N 
ATOM     16  C   UNL     1      10.852  14.161  18.747  0.00  0.00    +0.000 A 
ATOM     17  C   UNL     1      10.815  14.752  17.501  0.00  0.00    +0.000 A 
ATOM     18  C   UNL     1      11.036  16.129  17.431  0.00  0.00    +0.000 A 
ATOM     19  C   UNL     1      11.459  16.846  18.562  0.00  0.00    +0.000 A 
ATOM     20  C   UNL     1      11.575  16.218  19.804  0.00  0.00    +0.000 A 
ATOM     21  C   UNL     1      11.093  14.906  19.915  0.00  0.00    +0.000 A 
ATOM     22  H   UNL     1       6.426  15.491  18.694  0.00  0.00    +0.000 HD
ATOM     23  H   UNL     1       7.878  18.686  20.640  0.00  0.00    +0.000 HD
ENDROOT
BRANCH   2  24
ATOM     24  N   UNL     1       6.778  13.613  22.145  0.00  0.00    +0.000 N 
ATOM     25  H   UNL     1       6.276  12.720  22.183  0.00  0.00    +0.000 HD
ATOM     26  H   UNL     1       6.954  13.911  23.106  0.00  0.00    +0.000 HD
ENDBRANCH   2  24
BRANCH   1  28
ATOM     27  N   UNL     1       8.621  12.011  24.152  0.00  0.00    +0.000 NA
ATOM     28  C   UNL     1       8.916  12.747  23.171  0.00  0.00    +0.000 C 
ENDBRANCH   1  28
BRANCH  15  29
ATOM     29  C   UNL     1      10.339  11.746  18.206  0.00  0.00    +0.000 C 
BRANCH  29  30
ATOM     30  C   UNL     1       8.929  11.139  18.162  0.00  0.00    +0.000 C 
BRANCH  30  31
ATOM     31  C   UNL     1       8.795   9.658  18.547  0.00  0.00    +0.000 C 
BRANCH  31  32
ATOM     32  C   UNL     1       7.834   8.820  17.711  0.00  0.00    +0.000 C 
ATOM     33 BR   UNL     1       7.858   6.950  18.259  0.00  0.00    +0.000 Br
ENDBRANCH  31  32
ENDBRANCH  30  31
ENDBRANCH  29  30
ENDBRANCH  15  29
TORSDOF 6
ENDMDL
MODEL 7
REMARK VINA RESULT:      -5.7      6.731     10.059
REMARK  Name = 
REMARK  6 active torsions:
REMARK  status: ('A' for Active; 'I' for Inactive)
REMARK    1  A    between atoms: C_2  and  C_3
REMARK    2  A    between atoms: C_4  and  N_5
REMARK    3  A    between atoms: N_18  and  C_19
REMARK    4  A    between atoms: C_19  and  C_20
REMARK    5  A    between atoms: C_20  and  C_21
REMARK    6  A    between atoms: C_21  and  C_22
REMARK                            x       y       z     vdW  Elec       q    Type
REMARK                         _______ _______ _______ _____ _____    ______ ____
ROOT
ATOM      1  C   UNL     1      -0.872  12.726  21.744  0.00  0.00    +0.000 C 
ATOM      2  C   UNL     1      -1.789  13.127  20.744  0.00  0.00    +0.000 C 
ATOM      3  O   UNL     1      -1.388  13.328  19.423  0.00  0.00    +0.000 OA
ATOM      4  C   UNL     1      -0.515  14.380  19.441  0.00  0.00    +0.000 A 
ATOM      5  N   UNL     1      -0.770  15.392  18.576  0.00  0.00    +0.000 N 
ATOM      6  C   UNL     1      -0.304  16.651  18.802  0.00  0.00    +0.000 A 
ATOM      7  O   UNL     1      -0.543  17.579  18.048  0.00  0.00    +0.000 OA
ATOM      8  N   UNL     1       0.356  16.797  20.003  0.00  0.00    +0.000 N 
ATOM      9  C   UNL     1       0.476  15.814  20.963  0.00  0.00    +0.000 A 
ATOM     10  O   UNL     1       0.644  16.080  22.151  0.00  0.00    +0.000 OA
ATOM     11  C   UNL     1       0.252  14.439  20.535  0.00  0.00    +0.000 A 
ATOM     12  C   UNL     1       0.604  12.931  21.426  0.00  0.00    +0.000 C 
ATOM     13  C   UNL     1       0.359  11.332  20.747  0.00  0.00    +0.000 C 
ATOM     14  O   UNL     1      -0.196  10.378  21.293  0.00  0.00    +0.000 OA
ATOM     15  N   UNL     1       0.886  11.254  19.465  0.00  0.00    +0.000 N 
ATOM     16  C   UNL     1       1.809  12.271  19.318  0.00  0.00    +0.000 A 
ATOM     17  C   UNL     1       2.453  12.706  18.177  0.00  0.00    +0.000 A 
ATOM     18  C   UNL     1       3.222  13.868  18.273  0.00  0.00    +0.000 A 
ATOM     19  C   UNL     1       3.475  14.460  19.520  0.00  0.00    +0.000 A 
ATOM     20  C   UNL     1       2.885  13.959  20.683  0.00  0.00    +0.000 A 
ATOM     21  C   UNL     1       1.907  12.964  20.537  0.00  0.00    +0.000 A 
ATOM     22  H   UNL     1      -1.373  15.241  17.767  0.00  0.00    +0.000 HD
ATOM     23  H   UNL     1       0.469  17.763  20.288  0.00  0.00    +0.000 HD
ENDROOT
BRANCH   2  24
ATOM     24  N   UNL     1      -3.042  13.715  20.999  0.00  0.00    +0.000 N 
ATOM     25  H   UNL     1      -3.620  13.851  20.163  0.00  0.00    +0.000 HD
ATOM     26  H   UNL     1      -3.577  13.147  21.657  0.00  0.00    +0.000 HD
ENDBRANCH   2  24
BRANCH   1  28
ATOM     27  N   UNL     1      -2.834  11.710  23.432  0.00  0.00    +0.000 NA
ATOM     28  C   UNL     1      -1.945  12.171  22.667  0.00  0.00    +0.000 C 
ENDBRANCH   1  28
BRANCH  15  29
ATOM     29  C   UNL     1       0.587  10.220  18.488  0.00  0.00    +0.000 C 
BRANCH  29  30
ATOM     30  C   UNL     1       1.782   9.405  17.971  0.00  0.00    +0.000 C 
BRANCH  30  31
ATOM     31  C   UNL     1       2.105   8.097  18.709  0.00  0.00    +0.000 C 
BRANCH  31  32
ATOM     32  C   UNL     1       3.054   7.134  18.004  0.00  0.00    +0.000 C 
ATOM     33 BR   UNL     1       2.441   5.290  18.155  0.00  0.00    +0.000 Br
ENDBRANCH  31  32
ENDBRANCH  30  31
ENDBRANCH  29  30
ENDBRANCH  15  29
TORSDOF 6
ENDMDL
MODEL 8
REMARK VINA RESULT:      -5.6      7.960     11.131
REMARK  Name = 
REMARK  6 active torsions:
REMARK  status: ('A' for Active; 'I' for Inactive)
REMARK    1  A    between atoms: C_2  and  C_3
REMARK    2  A    between atoms: C_4  and  N_5
REMARK    3  A    between atoms: N_18  and  C_19
REMARK    4  A    between atoms: C_19  and  C_20
REMARK    5  A    between atoms: C_20  and  C_21
REMARK    6  A    between atoms: C_21  and  C_22
REMARK                            x       y       z     vdW  Elec       q    Type
REMARK                         _______ _______ _______ _____ _____    ______ ____
ROOT
ATOM      1  C   UNL     1      -0.498  14.041  22.102  0.00  0.00    +0.000 C 
ATOM      2  C   UNL     1      -1.500  14.295  21.135  0.00  0.00    +0.000 C 
ATOM      3  O   UNL     1      -1.260  14.120  19.771  0.00  0.00    +0.000 OA
ATOM      4  C   UNL     1      -0.301  15.032  19.429  0.00  0.00    +0.000 A 
ATOM      5  N   UNL     1      -0.575  15.828  18.366  0.00  0.00    +0.000 N 
ATOM      6  C   UNL     1       0.027  17.039  18.213  0.00  0.00    +0.000 A 
ATOM      7  O   UNL     1      -0.224  17.778  17.277  0.00  0.00    +0.000 OA
ATOM      8  N   UNL     1       0.851  17.391  19.261  0.00  0.00    +0.000 N 
ATOM      9  C   UNL     1       1.007  16.663  20.422  0.00  0.00    +0.000 A 
ATOM     10  O   UNL     1       1.354  17.186  21.478  0.00  0.00    +0.000 OA
ATOM     11  C   UNL     1       0.606  15.262  20.385  0.00  0.00    +0.000 A 
ATOM     12  C   UNL     1       0.936  13.983  21.588  0.00  0.00    +0.000 C 
ATOM     13  C   UNL     1       0.460  12.309  21.369  0.00  0.00    +0.000 C 
ATOM     14  O   UNL     1      -0.102  11.590  22.195  0.00  0.00    +0.000 OA
ATOM     15  N   UNL     1       0.804  11.861  20.101  0.00  0.00    +0.000 N 
ATOM     16  C   UNL     1       1.787  12.692  19.604  0.00  0.00    +0.000 A 
ATOM     17  C   UNL     1       2.312  12.759  18.328  0.00  0.00    +0.000 A 
ATOM     18  C   UNL     1       3.188  13.807  18.044  0.00  0.00    +0.000 A 
ATOM     19  C   UNL     1       3.655  14.650  19.065  0.00  0.00    +0.000 A 
ATOM     20  C   UNL     1       3.181  14.519  20.372  0.00  0.00    +0.000 A 
ATOM     21  C   UNL     1       2.107  13.644  20.588  0.00  0.00    +0.000 A 
ATOM     22  H   UNL     1      -1.291  15.559  17.690  0.00  0.00    +0.000 HD
ATOM     23  H   UNL     1       1.086  18.376  19.277  0.00  0.00    +0.000 HD
ENDROOT
BRANCH   2  24
ATOM     24  N   UNL     1      -2.650  15.073  21.361  0.00  0.00    +0.000 N 
ATOM     25  H   UNL     1      -3.020  15.009  22.315  0.00  0.00    +0.000 HD
ATOM     26  H   UNL     1      -2.460  16.057  21.167  0.00  0.00    +0.000 HD
ENDBRANCH   2  24
BRANCH   1  28
ATOM     27  N   UNL     1      -2.304  13.707  24.190  0.00  0.00    +0.000 NA
ATOM     28  C   UNL     1      -1.486  13.858  23.243  0.00  0.00    +0.000 C 
ENDBRANCH   1  28
BRANCH  15  29
ATOM     29  C   UNL     1       0.287  10.664  19.457  0.00  0.00    +0.000 C 
BRANCH  29  30
ATOM     30  C   UNL     1      -1.207  10.676  19.099  0.00  0.00    +0.000 C 
BRANCH  30  31
ATOM     31  C   UNL     1      -1.592  10.188  17.694  0.00  0.00    +0.000 C 
BRANCH  31  32
ATOM     32  C   UNL     1      -2.426  11.141  16.846  0.00  0.00    +0.000 C 
ATOM     33 BR   UNL     1      -2.968  10.313  15.167  0.00  0.00    +0.000 Br
ENDBRANCH  31  32
ENDBRANCH  30  31
ENDBRANCH  29  30
ENDBRANCH  15  29
TORSDOF 6
ENDMDL
MODEL 9
REMARK VINA RESULT:      -5.5     10.464     12.802
REMARK  Name = 
REMARK  6 active torsions:
REMARK  status: ('A' for Active; 'I' for Inactive)
REMARK    1  A    between atoms: C_2  and  C_3
REMARK    2  A    between atoms: C_4  and  N_5
REMARK    3  A    between atoms: N_18  and  C_19
REMARK    4  A    between atoms: C_19  and  C_20
REMARK    5  A    between atoms: C_20  and  C_21
REMARK    6  A    between atoms: C_21  and  C_22
REMARK                            x       y       z     vdW  Elec       q    Type
REMARK                         _______ _______ _______ _____ _____    ______ ____
ROOT
ATOM      1  C   UNL     1      -5.399  13.649  23.364  0.00  0.00    +0.000 C 
ATOM      2  C   UNL     1      -5.631  14.929  22.808  0.00  0.00    +0.000 C 
ATOM      3  O   UNL     1      -4.886  15.402  21.727  0.00  0.00    +0.000 OA
ATOM      4  C   UNL     1      -3.598  15.516  22.167  0.00  0.00    +0.000 A 
ATOM      5  N   UNL     1      -2.990  16.710  21.956  0.00  0.00    +0.000 N 
ATOM      6  C   UNL     1      -1.944  17.118  22.725  0.00  0.00    +0.000 A 
ATOM      7  O   UNL     1      -1.400  18.198  22.565  0.00  0.00    +0.000 OA
ATOM      8  N   UNL     1      -1.635  16.256  23.755  0.00  0.00    +0.000 N 
ATOM      9  C   UNL     1      -2.352  15.123  24.078  0.00  0.00    +0.000 A 
ATOM     10  O   UNL     1      -2.350  14.651  25.212  0.00  0.00    +0.000 OA
ATOM     11  C   UNL     1      -3.233  14.581  23.051  0.00  0.00    +0.000 A 
ATOM     12  C   UNL     1      -4.063  12.999  23.025  0.00  0.00    +0.000 C 
ATOM     13  C   UNL     1      -5.032  12.441  21.673  0.00  0.00    +0.000 C 
ATOM     14  O   UNL     1      -6.152  11.935  21.730  0.00  0.00    +0.000 OA
ATOM     15  N   UNL     1      -4.363  12.640  20.473  0.00  0.00    +0.000 N 
ATOM     16  C   UNL     1      -3.017  12.776  20.747  0.00  0.00    +0.000 A 
ATOM     17  C   UNL     1      -1.990  13.165  19.911  0.00  0.00    +0.000 A 
ATOM     18  C   UNL     1      -0.736  13.379  20.484  0.00  0.00    +0.000 A 
ATOM     19  C   UNL     1      -0.490  13.036  21.823  0.00  0.00    +0.000 A 
ATOM     20  C   UNL     1      -1.519  12.561  22.640  0.00  0.00    +0.000 A 
ATOM     21  C   UNL     1      -2.825  12.606  22.129  0.00  0.00    +0.000 A 
ATOM     22  H   UNL     1      -3.351  17.357  21.254  0.00  0.00    +0.000 HD
ATOM     23  H   UNL     1      -1.048  16.672  24.468  0.00  0.00    +0.000 HD
ENDROOT
BRANCH   2  24
ATOM     24  N   UNL     1      -6.312  15.972  23.462  0.00  0.00    +0.000 N 
ATOM     25  H   UNL     1      -7.107  15.664  24.031  0.00  0.00    +0.000 HD
ATOM     26  H   UNL     1      -5.676  16.489  24.070  0.00  0.00    +0.000 HD
ENDBRANCH   2  24
BRANCH   1  28
ATOM     27  N   UNL     1      -7.916  13.468  24.532  0.00  0.00    +0.000 NA
ATOM     28  C   UNL     1      -6.775  13.550  24.002  0.00  0.00    +0.000 C 
ENDBRANCH   1  28
BRANCH  15  29
ATOM     29  C   UNL     1      -4.969  12.610  19.151  0.00  0.00    +0.000 C 
BRANCH  29  30
ATOM     30  C   UNL     1      -4.675  11.368  18.295  0.00  0.00    +0.000 C 
BRANCH  30  31
ATOM     31  C   UNL     1      -4.470  11.592  16.789  0.00  0.00    +0.000 C 
BRANCH  31  32
ATOM     32  C   UNL     1      -3.361  10.785  16.125  0.00  0.00    +0.000 C 
ATOM     33 BR   UNL     1      -2.013  10.228  17.418  0.00  0.00    +0.000 Br
ENDBRANCH  31  32
ENDBRANCH  30  31
ENDBRANCH  29  30
ENDBRANCH  15  29
TORSDOF 6
ENDMDL
