MODEL 1
REMARK VINA RESULT:      -6.8      0.000      0.000
REMARK  Name = 
REMARK  8 active torsions:
REMARK  status: ('A' for Active; 'I' for Inactive)
REMARK    1  A    between atoms: C_2  and  C_3
REMARK    2  A    between atoms: C_8  and  O_9
REMARK    3  A    between atoms: O_9  and  C_10
REMARK    4  A    between atoms: C_10  and  C_11
REMARK    5  A    between atoms: C_11  and  O_13
REMARK    6  A    between atoms: O_13  and  C_14
REMARK    7  A    between atoms: C_14  and  C_15
REMARK    8  A    between atoms: N_17  and  C_18
REMARK                            x       y       z     vdW  Elec       q    Type
REMARK                         _______ _______ _______ _____ _____    ______ ____
ROOT
ATOM      1  O   UNL     1       7.254   7.478  16.794  0.00  0.00    +0.000 OA
ENDROOT
BRANCH   1   2
ATOM      2  C   UNL     1       7.944   7.905  17.888  0.00  0.00    +0.000 C 
ATOM      3  O   UNL     1       8.310   7.163  18.792  0.00  0.00    +0.000 OA
BRANCH   2   4
ATOM      4  C   UNL     1       8.319   9.369  17.753  0.00  0.00    +0.000 C 
BRANCH   4   5
ATOM      5  O   UNL     1       8.380  10.031  18.997  0.00  0.00    +0.000 OA
BRANCH   5  11
ATOM      6  C   UNL     1       9.774  11.556  20.446  0.00  0.00    +0.000 A 
ATOM      7  C   UNL     1      10.964  12.309  20.486  0.00  0.00    +0.000 A 
ATOM      8  C   UNL     1      11.832  12.351  19.395  0.00  0.00    +0.000 A 
ATOM      9  C   UNL     1      11.521  11.638  18.246  0.00  0.00    +0.000 A 
ATOM     10  C   UNL     1      10.347  10.886  18.196  0.00  0.00    +0.000 A 
ATOM     11  C   UNL     1       9.458  10.830  19.283  0.00  0.00    +0.000 A 
BRANCH   6  13
ATOM     12  N   UNL     1       8.321  11.628  22.596  0.00  0.00    +0.000 NA
ATOM     13  C   UNL     1       8.968  11.603  21.633  0.00  0.00    +0.000 C 
ENDBRANCH   6  13
ENDBRANCH   5  11
ENDBRANCH   4   5
ENDBRANCH   2   4
ENDBRANCH   1   2
BRANCH   1  14
ATOM     14  C   UNL     1       7.201   6.052  16.719  0.00  0.00    +0.000 C 
BRANCH  14  15
ATOM     15  C   UNL     1       5.746   5.629  16.478  0.00  0.00    +0.000 C 
ATOM     16  O   UNL     1       5.157   5.857  15.424  0.00  0.00    +0.000 OA
ATOM     17  N   UNL     1       5.149   4.938  17.512  0.00  0.00    +0.000 N 
ATOM     18  H   UNL     1       5.617   4.952  18.413  0.00  0.00    +0.000 HD
BRANCH  17  19
ATOM     19  C   UNL     1       3.736   4.552  17.450  0.00  0.00    +0.000 C 
ATOM     20  C   UNL     1       2.938   5.258  18.553  0.00  0.00    +0.000 C 
ATOM     21  C   UNL     1       3.270   4.518  19.840  0.00  0.00    +0.000 C 
ATOM     22  S   UNL     1       3.210   2.799  19.381  0.00  0.00    +0.000 S 
ATOM     23  O   UNL     1       1.853   2.336  19.579  0.00  0.00    +0.000 OA
ATOM     24  O   UNL     1       4.351   2.131  19.972  0.00  0.00    +0.000 OA
ATOM     25  C   UNL     1       3.486   3.044  17.632  0.00  0.00    +0.000 C 
ENDBRANCH  17  19
ENDBRANCH  14  15
ENDBRANCH   1  14
TORSDOF 8
ENDMDL
MODEL 2
REMARK VINA RESULT:      -6.8      5.161      7.162
REMARK  Name = 
REMARK  8 active torsions:
REMARK  status: ('A' for Active; 'I' for Inactive)
REMARK    1  A    between atoms: C_2  and  C_3
REMARK    2  A    between atoms: C_8  and  O_9
REMARK    3  A    between atoms: O_9  and  C_10
REMARK    4  A    between atoms: C_10  and  C_11
REMARK    5  A    between atoms: C_11  and  O_13
REMARK    6  A    between atoms: O_13  and  C_14
REMARK    7  A    between atoms: C_14  and  C_15
REMARK    8  A    between atoms: N_17  and  C_18
REMARK                            x       y       z     vdW  Elec       q    Type
REMARK                         _______ _______ _______ _____ _____    ______ ____
ROOT
ATOM      1  O   UNL     1       2.558   4.152  18.997  0.00  0.00    +0.000 OA
ENDROOT
BRANCH   1   2
ATOM      2  C   UNL     1       1.467   4.297  19.800  0.00  0.00    +0.000 C 
ATOM      3  O   UNL     1       0.539   3.499  19.835  0.00  0.00    +0.000 OA
BRANCH   2   4
ATOM      4  C   UNL     1       1.639   5.480  20.736  0.00  0.00    +0.000 C 
BRANCH   4   5
ATOM      5  O   UNL     1       2.569   6.423  20.252  0.00  0.00    +0.000 OA
BRANCH   5  11
ATOM      6  C   UNL     1       1.416   8.666  20.179  0.00  0.00    +0.000 A 
ATOM      7  C   UNL     1       1.061   9.734  19.330  0.00  0.00    +0.000 A 
ATOM      8  C   UNL     1       1.384   9.719  17.974  0.00  0.00    +0.000 A 
ATOM      9  C   UNL     1       2.070   8.635  17.446  0.00  0.00    +0.000 A 
ATOM     10  C   UNL     1       2.430   7.573  18.277  0.00  0.00    +0.000 A 
ATOM     11  C   UNL     1       2.114   7.567  19.646  0.00  0.00    +0.000 A 
BRANCH   6  13
ATOM     12  N   UNL     1       0.709   8.910  22.664  0.00  0.00    +0.000 NA
ATOM     13  C   UNL     1       1.018   8.804  21.552  0.00  0.00    +0.000 C 
ENDBRANCH   6  13
ENDBRANCH   5  11
ENDBRANCH   4   5
ENDBRANCH   2   4
ENDBRANCH   1   2
BRANCH   1  14
ATOM     14  C   UNL     1       3.666   3.584  19.697  0.00  0.00    +0.000 C 
BRANCH  14  15
ATOM     15  C   UNL     1       4.941   4.329  19.280  0.00  0.00    +0.000 C 
ATOM     16  O   UNL     1       5.958   4.336  19.971  0.00  0.00    +0.000 OA
ATOM     17  N   UNL     1       4.886   4.962  18.056  0.00  0.00    +0.000 N 
ATOM     18  H   UNL     1       3.972   5.080  17.633  0.00  0.00    +0.000 HD
BRANCH  17  19
ATOM     19  C   UNL     1       6.003   5.783  17.577  0.00  0.00    +0.000 C 
ATOM     20  C   UNL     1       5.525   6.764  16.500  0.00  0.00    +0.000 C 
ATOM     21  C   UNL     1       5.353   5.936  15.235  0.00  0.00    +0.000 C 
ATOM     22  S   UNL     1       6.798   4.896  15.198  0.00  0.00    +0.000 S 
ATOM     23  O   UNL     1       7.835   5.605  14.478  0.00  0.00    +0.000 OA
ATOM     24  O   UNL     1       6.383   3.556  14.839  0.00  0.00    +0.000 OA
ATOM     25  C   UNL     1       7.154   4.976  16.948  0.00  0.00    +0.000 C 
ENDBRANCH  17  19
ENDBRANCH  14  15
ENDBRANCH   1  14
TORSDOF 8
ENDMDL
MODEL 3
REMARK VINA RESULT:      -6.7      5.386      7.534
REMARK  Name = 
REMARK  8 active torsions:
REMARK  status: ('A' for Active; 'I' for Inactive)
REMARK    1  A    between atoms: C_2  and  C_3
REMARK    2  A    between atoms: C_8  and  O_9
REMARK    3  A    between atoms: O_9  and  C_10
REMARK    4  A    between atoms: C_10  and  C_11
REMARK    5  A    between atoms: C_11  and  O_13
REMARK    6  A    between atoms: O_13  and  C_14
REMARK    7  A    between atoms: C_14  and  C_15
REMARK    8  A    between atoms: N_17  and  C_18
REMARK                            x       y       z     vdW  Elec       q    Type
REMARK                         _______ _______ _______ _____ _____    ______ ____
ROOT
ATOM      1  O   UNL     1       2.533   3.284  19.829  0.00  0.00    +0.000 OA
ENDROOT
BRANCH   1   2
ATOM      2  C   UNL     1       1.877   4.374  19.342  0.00  0.00    +0.000 C 
ATOM      3  O   UNL     1       1.470   4.463  18.191  0.00  0.00    +0.000 OA
BRANCH   2   4
ATOM      4  C   UNL     1       1.594   5.374  20.449  0.00  0.00    +0.000 C 
BRANCH   4   5
ATOM      5  O   UNL     1       2.299   6.584  20.280  0.00  0.00    +0.000 OA
BRANCH   5  11
ATOM      6  C   UNL     1       1.530   8.795  19.339  0.00  0.00    +0.000 A 
ATOM      7  C   UNL     1       0.738   9.930  19.606  0.00  0.00    +0.000 A 
ATOM      8  C   UNL     1       0.040  10.059  20.806  0.00  0.00    +0.000 A 
ATOM      9  C   UNL     1       0.121   9.052  21.757  0.00  0.00    +0.000 A 
ATOM     10  C   UNL     1       0.898   7.921  21.502  0.00  0.00    +0.000 A 
ATOM     11  C   UNL     1       1.611   7.771  20.300  0.00  0.00    +0.000 A 
BRANCH   6  13
ATOM     12  N   UNL     1       2.730   8.782  17.038  0.00  0.00    +0.000 NA
ATOM     13  C   UNL     1       2.200   8.791  18.069  0.00  0.00    +0.000 C 
ENDBRANCH   6  13
ENDBRANCH   5  11
ENDBRANCH   4   5
ENDBRANCH   2   4
ENDBRANCH   1   2
BRANCH   1  14
ATOM     14  C   UNL     1       3.413   2.713  18.860  0.00  0.00    +0.000 C 
BRANCH  14  15
ATOM     15  C   UNL     1       4.658   3.604  18.745  0.00  0.00    +0.000 C 
ATOM     16  O   UNL     1       5.261   4.027  19.728  0.00  0.00    +0.000 OA
ATOM     17  N   UNL     1       5.081   3.869  17.459  0.00  0.00    +0.000 N 
ATOM     18  H   UNL     1       4.438   3.655  16.704  0.00  0.00    +0.000 HD
BRANCH  17  19
ATOM     19  C   UNL     1       6.203   4.777  17.203  0.00  0.00    +0.000 C 
ATOM     20  C   UNL     1       5.706   6.075  16.555  0.00  0.00    +0.000 C 
ATOM     21  C   UNL     1       5.420   5.727  15.101  0.00  0.00    +0.000 C 
ATOM     22  S   UNL     1       6.811   4.728  14.614  0.00  0.00    +0.000 S 
ATOM     23  O   UNL     1       7.834   5.615  14.100  0.00  0.00    +0.000 OA
ATOM     24  O   UNL     1       6.315   3.597  13.858  0.00  0.00    +0.000 OA
ATOM     25  C   UNL     1       7.275   4.205  16.259  0.00  0.00    +0.000 C 
ENDBRANCH  17  19
ENDBRANCH  14  15
ENDBRANCH   1  14
TORSDOF 8
ENDMDL
MODEL 4
REMARK VINA RESULT:      -6.7      5.160      7.120
REMARK  Name = 
REMARK  8 active torsions:
REMARK  status: ('A' for Active; 'I' for Inactive)
REMARK    1  A    between atoms: C_2  and  C_3
REMARK    2  A    between atoms: C_8  and  O_9
REMARK    3  A    between atoms: O_9  and  C_10
REMARK    4  A    between atoms: C_10  and  C_11
REMARK    5  A    between atoms: C_11  and  O_13
REMARK    6  A    between atoms: O_13  and  C_14
REMARK    7  A    between atoms: C_14  and  C_15
REMARK    8  A    between atoms: N_17  and  C_18
REMARK                            x       y       z     vdW  Elec       q    Type
REMARK                         _______ _______ _______ _____ _____    ______ ____
ROOT
ATOM      1  O   UNL     1       1.556   3.394  19.785  0.00  0.00    +0.000 OA
ENDROOT
BRANCH   1   2
ATOM      2  C   UNL     1       2.145   4.428  20.449  0.00  0.00    +0.000 C 
ATOM      3  O   UNL     1       3.312   4.420  20.819  0.00  0.00    +0.000 OA
BRANCH   2   4
ATOM      4  C   UNL     1       1.212   5.623  20.523  0.00  0.00    +0.000 C 
BRANCH   4   5
ATOM      5  O   UNL     1       1.868   6.796  20.955  0.00  0.00    +0.000 OA
BRANCH   5  11
ATOM      6  C   UNL     1       1.081   9.190  20.835  0.00  0.00    +0.000 A 
ATOM      7  C   UNL     1       0.902  10.285  19.967  0.00  0.00    +0.000 A 
ATOM      8  C   UNL     1       1.225  10.196  18.613  0.00  0.00    +0.000 A 
ATOM      9  C   UNL     1       1.734   9.008  18.108  0.00  0.00    +0.000 A 
ATOM     10  C   UNL     1       1.920   7.918  18.959  0.00  0.00    +0.000 A 
ATOM     11  C   UNL     1       1.601   7.986  20.326  0.00  0.00    +0.000 A 
BRANCH   6  13
ATOM     12  N   UNL     1       0.414   9.592  23.311  0.00  0.00    +0.000 NA
ATOM     13  C   UNL     1       0.705   9.414  22.203  0.00  0.00    +0.000 C 
ENDBRANCH   6  13
ENDBRANCH   5  11
ENDBRANCH   4   5
ENDBRANCH   2   4
ENDBRANCH   1   2
BRANCH   1  14
ATOM     14  C   UNL     1       2.505   2.623  19.047  0.00  0.00    +0.000 C 
BRANCH  14  15
ATOM     15  C   UNL     1       2.892   3.401  17.783  0.00  0.00    +0.000 C 
ATOM     16  O   UNL     1       2.195   3.406  16.771  0.00  0.00    +0.000 OA
ATOM     17  N   UNL     1       4.060   4.129  17.867  0.00  0.00    +0.000 N 
ATOM     18  H   UNL     1       4.677   3.931  18.648  0.00  0.00    +0.000 HD
BRANCH  17  19
ATOM     19  C   UNL     1       4.591   4.847  16.704  0.00  0.00    +0.000 C 
ATOM     20  C   UNL     1       5.760   4.072  16.084  0.00  0.00    +0.000 C 
ATOM     21  C   UNL     1       6.949   4.314  17.003  0.00  0.00    +0.000 C 
ATOM     22  S   UNL     1       6.867   6.054  17.370  0.00  0.00    +0.000 S 
ATOM     23  O   UNL     1       7.629   6.756  16.360  0.00  0.00    +0.000 OA
ATOM     24  O   UNL     1       7.110   6.231  18.787  0.00  0.00    +0.000 OA
ATOM     25  C   UNL     1       5.125   6.256  17.022  0.00  0.00    +0.000 C 
ENDBRANCH  17  19
ENDBRANCH  14  15
ENDBRANCH   1  14
TORSDOF 8
ENDMDL
MODEL 5
REMARK VINA RESULT:      -6.6      5.106      7.142
REMARK  Name = 
REMARK  8 active torsions:
REMARK  status: ('A' for Active; 'I' for Inactive)
REMARK    1  A    between atoms: C_2  and  C_3
REMARK    2  A    between atoms: C_8  and  O_9
REMARK    3  A    between atoms: O_9  and  C_10
REMARK    4  A    between atoms: C_10  and  C_11
REMARK    5  A    between atoms: C_11  and  O_13
REMARK    6  A    between atoms: O_13  and  C_14
REMARK    7  A    between atoms: C_14  and  C_15
REMARK    8  A    between atoms: N_17  and  C_18
REMARK                            x       y       z     vdW  Elec       q    Type
REMARK                         _______ _______ _______ _____ _____    ______ ____
ROOT
ATOM      1  O   UNL     1       2.039   4.689  19.193  0.00  0.00    +0.000 OA
ENDROOT
BRANCH   1   2
ATOM      2  C   UNL     1       2.211   5.222  20.435  0.00  0.00    +0.000 C 
ATOM      3  O   UNL     1       2.323   4.549  21.452  0.00  0.00    +0.000 OA
BRANCH   2   4
ATOM      4  C   UNL     1       2.396   6.727  20.357  0.00  0.00    +0.000 C 
BRANCH   4   5
ATOM      5  O   UNL     1       1.190   7.431  20.553  0.00  0.00    +0.000 OA
BRANCH   5  11
ATOM      6  C   UNL     1       0.835   9.873  21.082  0.00  0.00    +0.000 A 
ATOM      7  C   UNL     1       0.854  11.169  20.530  0.00  0.00    +0.000 A 
ATOM      8  C   UNL     1       1.164  11.379  19.186  0.00  0.00    +0.000 A 
ATOM      9  C   UNL     1       1.461  10.294  18.375  0.00  0.00    +0.000 A 
ATOM     10  C   UNL     1       1.448   9.005  18.911  0.00  0.00    +0.000 A 
ATOM     11  C   UNL     1       1.138   8.771  20.261  0.00  0.00    +0.000 A 
BRANCH   6  13
ATOM     12  N   UNL     1       0.207   9.731  23.597  0.00  0.00    +0.000 NA
ATOM     13  C   UNL     1       0.495   9.796  22.475  0.00  0.00    +0.000 C 
ENDBRANCH   6  13
ENDBRANCH   5  11
ENDBRANCH   4   5
ENDBRANCH   2   4
ENDBRANCH   1   2
BRANCH   1  14
ATOM     14  C   UNL     1       2.769   3.472  19.027  0.00  0.00    +0.000 C 
BRANCH  14  15
ATOM     15  C   UNL     1       4.248   3.814  18.804  0.00  0.00    +0.000 C 
ATOM     16  O   UNL     1       5.149   3.328  19.484  0.00  0.00    +0.000 OA
ATOM     17  N   UNL     1       4.506   4.679  17.761  0.00  0.00    +0.000 N 
ATOM     18  H   UNL     1       3.720   5.187  17.371  0.00  0.00    +0.000 HD
BRANCH  17  19
ATOM     19  C   UNL     1       5.866   5.157  17.493  0.00  0.00    +0.000 C 
ATOM     20  C   UNL     1       5.830   6.572  16.902  0.00  0.00    +0.000 C 
ATOM     21  C   UNL     1       5.410   6.402  15.449  0.00  0.00    +0.000 C 
ATOM     22  S   UNL     1       6.362   5.007  14.884  0.00  0.00    +0.000 S 
ATOM     23  O   UNL     1       7.614   5.510  14.361  0.00  0.00    +0.000 OA
ATOM     24  O   UNL     1       5.490   4.146  14.112  0.00  0.00    +0.000 OA
ATOM     25  C   UNL     1       6.655   4.291  16.495  0.00  0.00    +0.000 C 
ENDBRANCH  17  19
ENDBRANCH  14  15
ENDBRANCH   1  14
TORSDOF 8
ENDMDL
MODEL 6
REMARK VINA RESULT:      -6.6      1.887      2.415
REMARK  Name = 
REMARK  8 active torsions:
REMARK  status: ('A' for Active; 'I' for Inactive)
REMARK    1  A    between atoms: C_2  and  C_3
REMARK    2  A    between atoms: C_8  and  O_9
REMARK    3  A    between atoms: O_9  and  C_10
REMARK    4  A    between atoms: C_10  and  C_11
REMARK    5  A    between atoms: C_11  and  O_13
REMARK    6  A    between atoms: O_13  and  C_14
REMARK    7  A    between atoms: C_14  and  C_15
REMARK    8  A    between atoms: N_17  and  C_18
REMARK                            x       y       z     vdW  Elec       q    Type
REMARK                         _______ _______ _______ _____ _____    ______ ____
ROOT
ATOM      1  O   UNL     1       7.418   7.547  16.853  0.00  0.00    +0.000 OA
ENDROOT
BRANCH   1   2
ATOM      2  C   UNL     1       8.008   8.075  17.962  0.00  0.00    +0.000 C 
ATOM      3  O   UNL     1       8.534   7.400  18.838  0.00  0.00    +0.000 OA
BRANCH   2   4
ATOM      4  C   UNL     1       8.056   9.590  17.879  0.00  0.00    +0.000 C 
BRANCH   4   5
ATOM      5  O   UNL     1       9.372  10.094  17.930  0.00  0.00    +0.000 OA
BRANCH   5  11
ATOM      6  C   UNL     1      10.364  12.278  18.714  0.00  0.00    +0.000 A 
ATOM      7  C   UNL     1      10.564  13.093  19.846  0.00  0.00    +0.000 A 
ATOM      8  C   UNL     1      10.113  12.704  21.107  0.00  0.00    +0.000 A 
ATOM      9  C   UNL     1       9.452  11.494  21.254  0.00  0.00    +0.000 A 
ATOM     10  C   UNL     1       9.244  10.680  20.140  0.00  0.00    +0.000 A 
ATOM     11  C   UNL     1       9.691  11.051  18.860  0.00  0.00    +0.000 A 
BRANCH   6  13
ATOM     12  N   UNL     1      11.314  13.205  16.483  0.00  0.00    +0.000 NA
ATOM     13  C   UNL     1      10.882  12.793  17.478  0.00  0.00    +0.000 C 
ENDBRANCH   6  13
ENDBRANCH   5  11
ENDBRANCH   4   5
ENDBRANCH   2   4
ENDBRANCH   1   2
BRANCH   1  14
ATOM     14  C   UNL     1       6.039   7.249  17.073  0.00  0.00    +0.000 C 
BRANCH  14  15
ATOM     15  C   UNL     1       5.893   5.737  17.293  0.00  0.00    +0.000 C 
ATOM     16  O   UNL     1       6.832   4.956  17.158  0.00  0.00    +0.000 OA
ATOM     17  N   UNL     1       4.642   5.313  17.688  0.00  0.00    +0.000 N 
ATOM     18  H   UNL     1       3.875   5.971  17.593  0.00  0.00    +0.000 HD
BRANCH  17  19
ATOM     19  C   UNL     1       4.341   3.887  17.847  0.00  0.00    +0.000 C 
ATOM     20  C   UNL     1       2.974   3.555  17.234  0.00  0.00    +0.000 C 
ATOM     21  C   UNL     1       1.942   4.069  18.227  0.00  0.00    +0.000 C 
ATOM     22  S   UNL     1       2.577   3.566  19.813  0.00  0.00    +0.000 S 
ATOM     23  O   UNL     1       2.055   2.247  20.100  0.00  0.00    +0.000 OA
ATOM     24  O   UNL     1       2.430   4.675  20.732  0.00  0.00    +0.000 OA
ATOM     25  C   UNL     1       4.285   3.413  19.311  0.00  0.00    +0.000 C 
ENDBRANCH  17  19
ENDBRANCH  14  15
ENDBRANCH   1  14
TORSDOF 8
ENDMDL
MODEL 7
REMARK VINA RESULT:      -6.6      4.768      7.314
REMARK  Name = 
REMARK  8 active torsions:
REMARK  status: ('A' for Active; 'I' for Inactive)
REMARK    1  A    between atoms: C_2  and  C_3
REMARK    2  A    between atoms: C_8  and  O_9
REMARK    3  A    between atoms: O_9  and  C_10
REMARK    4  A    between atoms: C_10  and  C_11
REMARK    5  A    between atoms: C_11  and  O_13
REMARK    6  A    between atoms: O_13  and  C_14
REMARK    7  A    between atoms: C_14  and  C_15
REMARK    8  A    between atoms: N_17  and  C_18
REMARK                            x       y       z     vdW  Elec       q    Type
REMARK                         _______ _______ _______ _____ _____    ______ ____
ROOT
ATOM      1  O   UNL     1       2.674   4.155  20.884  0.00  0.00    +0.000 OA
ENDROOT
BRANCH   1   2
ATOM      2  C   UNL     1       1.664   4.949  20.431  0.00  0.00    +0.000 C 
ATOM      3  O   UNL     1       0.479   4.648  20.503  0.00  0.00    +0.000 OA
BRANCH   2   4
ATOM      4  C   UNL     1       2.198   6.296  19.975  0.00  0.00    +0.000 C 
BRANCH   4   5
ATOM      5  O   UNL     1       1.832   7.345  20.844  0.00  0.00    +0.000 OA
BRANCH   5  11
ATOM      6  C   UNL     1       0.752   9.624  20.931  0.00  0.00    +0.000 A 
ATOM      7  C   UNL     1       0.402  10.746  20.153  0.00  0.00    +0.000 A 
ATOM      8  C   UNL     1       0.674  10.792  18.786  0.00  0.00    +0.000 A 
ATOM      9  C   UNL     1       1.302   9.716  18.177  0.00  0.00    +0.000 A 
ATOM     10  C   UNL     1       1.658   8.601  18.937  0.00  0.00    +0.000 A 
ATOM     11  C   UNL     1       1.393   8.533  20.315  0.00  0.00    +0.000 A 
BRANCH   6  13
ATOM     12  N   UNL     1       0.149   9.769  23.451  0.00  0.00    +0.000 NA
ATOM     13  C   UNL     1       0.411   9.703  22.323  0.00  0.00    +0.000 C 
ENDBRANCH   6  13
ENDBRANCH   5  11
ENDBRANCH   4   5
ENDBRANCH   2   4
ENDBRANCH   1   2
BRANCH   1  14
ATOM     14  C   UNL     1       2.930   3.061  20.002  0.00  0.00    +0.000 C 
BRANCH  14  15
ATOM     15  C   UNL     1       4.417   3.074  19.625  0.00  0.00    +0.000 C 
ATOM     16  O   UNL     1       5.206   2.217  20.017  0.00  0.00    +0.000 OA
ATOM     17  N   UNL     1       4.807   4.093  18.782  0.00  0.00    +0.000 N 
ATOM     18  H   UNL     1       4.161   4.865  18.654  0.00  0.00    +0.000 HD
BRANCH  17  19
ATOM     19  C   UNL     1       6.215   4.275  18.413  0.00  0.00    +0.000 C 
ATOM     20  C   UNL     1       6.674   5.702  18.736  0.00  0.00    +0.000 C 
ATOM     21  C   UNL     1       6.087   6.582  17.643  0.00  0.00    +0.000 C 
ATOM     22  S   UNL     1       6.367   5.658  16.146  0.00  0.00    +0.000 S 
ATOM     23  O   UNL     1       7.662   6.042  15.626  0.00  0.00    +0.000 OA
ATOM     24  O   UNL     1       5.162   5.716  15.346  0.00  0.00    +0.000 OA
ATOM     25  C   UNL     1       6.509   4.053  16.919  0.00  0.00    +0.000 C 
ENDBRANCH  17  19
ENDBRANCH  14  15
ENDBRANCH   1  14
TORSDOF 8
ENDMDL
MODEL 8
REMARK VINA RESULT:      -6.6      5.982      8.819
REMARK  Name = 
REMARK  8 active torsions:
REMARK  status: ('A' for Active; 'I' for Inactive)
REMARK    1  A    between atoms: C_2  and  C_3
REMARK    2  A    between atoms: C_8  and  O_9
REMARK    3  A    between atoms: O_9  and  C_10
REMARK    4  A    between atoms: C_10  and  C_11
REMARK    5  A    between atoms: C_11  and  O_13
REMARK    6  A    between atoms: O_13  and  C_14
REMARK    7  A    between atoms: C_14  and  C_15
REMARK    8  A    between atoms: N_17  and  C_18
REMARK                            x       y       z     vdW  Elec       q    Type
REMARK                         _______ _______ _______ _____ _____    ______ ____
ROOT
ATOM      1  O   UNL     1       1.720   7.979  20.354  0.00  0.00    +0.000 OA
ENDROOT
BRANCH   1   2
ATOM      2  C   UNL     1       0.813   8.990  20.468  0.00  0.00    +0.000 C 
ATOM      3  O   UNL     1       0.198   9.237  21.497  0.00  0.00    +0.000 OA
BRANCH   2   4
ATOM      4  C   UNL     1       0.793   9.842  19.211  0.00  0.00    +0.000 C 
BRANCH   4   5
ATOM      5  O   UNL     1      -0.080  10.945  19.319  0.00  0.00    +0.000 OA
BRANCH   5  11
ATOM      6  C   UNL     1      -2.478  11.616  18.915  0.00  0.00    +0.000 A 
ATOM      7  C   UNL     1      -3.591  11.406  18.077  0.00  0.00    +0.000 A 
ATOM      8  C   UNL     1      -3.533  10.515  17.006  0.00  0.00    +0.000 A 
ATOM      9  C   UNL     1      -2.358   9.821  16.757  0.00  0.00    +0.000 A 
ATOM     10  C   UNL     1      -1.248  10.023  17.578  0.00  0.00    +0.000 A 
ATOM     11  C   UNL     1      -1.285  10.916  18.663  0.00  0.00    +0.000 A 
BRANCH   6  13
ATOM     12  N   UNL     1      -2.822  13.323  20.840  0.00  0.00    +0.000 NA
ATOM     13  C   UNL     1      -2.674  12.556  19.983  0.00  0.00    +0.000 C 
ENDBRANCH   6  13
ENDBRANCH   5  11
ENDBRANCH   4   5
ENDBRANCH   2   4
ENDBRANCH   1   2
BRANCH   1  14
ATOM     14  C   UNL     1       2.246   7.880  19.030  0.00  0.00    +0.000 C 
BRANCH  14  15
ATOM     15  C   UNL     1       2.753   6.449  18.810  0.00  0.00    +0.000 C 
ATOM     16  O   UNL     1       2.166   5.465  19.255  0.00  0.00    +0.000 OA
ATOM     17  N   UNL     1       3.895   6.334  18.046  0.00  0.00    +0.000 N 
ATOM     18  H   UNL     1       4.429   7.179  17.876  0.00  0.00    +0.000 HD
BRANCH  17  19
ATOM     19  C   UNL     1       4.536   5.032  17.833  0.00  0.00    +0.000 C 
ATOM     20  C   UNL     1       5.399   4.654  19.043  0.00  0.00    +0.000 C 
ATOM     21  C   UNL     1       6.661   5.497  18.928  0.00  0.00    +0.000 C 
ATOM     22  S   UNL     1       7.095   5.396  17.204  0.00  0.00    +0.000 S 
ATOM     23  O   UNL     1       7.962   4.250  17.033  0.00  0.00    +0.000 OA
ATOM     24  O   UNL     1       7.464   6.721  16.751  0.00  0.00    +0.000 OA
ATOM     25  C   UNL     1       5.464   4.980  16.605  0.00  0.00    +0.000 C 
ENDBRANCH  17  19
ENDBRANCH  14  15
ENDBRANCH   1  14
TORSDOF 8
ENDMDL
MODEL 9
REMARK VINA RESULT:      -6.6      3.773      9.477
REMARK  Name = 
REMARK  8 active torsions:
REMARK  status: ('A' for Active; 'I' for Inactive)
REMARK    1  A    between atoms: C_2  and  C_3
REMARK    2  A    between atoms: C_8  and  O_9
REMARK    3  A    between atoms: O_9  and  C_10
REMARK    4  A    between atoms: C_10  and  C_11
REMARK    5  A    between atoms: C_11  and  O_13
REMARK    6  A    between atoms: O_13  and  C_14
REMARK    7  A    between atoms: C_14  and  C_15
REMARK    8  A    between atoms: N_17  and  C_18
REMARK                            x       y       z     vdW  Elec       q    Type
REMARK                         _______ _______ _______ _____ _____    ______ ____
ROOT
ATOM      1  O   UNL     1       7.175   8.200  18.074  0.00  0.00    +0.000 OA
ENDROOT
BRANCH   1   2
ATOM      2  C   UNL     1       7.525   6.983  17.571  0.00  0.00    +0.000 C 
ATOM      3  O   UNL     1       7.725   6.773  16.381  0.00  0.00    +0.000 OA
BRANCH   2   4
ATOM      4  C   UNL     1       7.777   5.988  18.689  0.00  0.00    +0.000 C 
BRANCH   4   5
ATOM      5  O   UNL     1       7.221   4.720  18.420  0.00  0.00    +0.000 OA
BRANCH   5  11
ATOM      6  C   UNL     1       5.160   4.279  17.033  0.00  0.00    +0.000 A 
ATOM      7  C   UNL     1       3.753   4.231  17.073  0.00  0.00    +0.000 A 
ATOM      8  C   UNL     1       3.052   4.510  18.247  0.00  0.00    +0.000 A 
ATOM      9  C   UNL     1       3.751   4.840  19.399  0.00  0.00    +0.000 A 
ATOM     10  C   UNL     1       5.146   4.887  19.372  0.00  0.00    +0.000 A 
ATOM     11  C   UNL     1       5.871   4.610  18.201  0.00  0.00    +0.000 A 
BRANCH   6  13
ATOM     12  N   UNL     1       6.227   3.723  14.733  0.00  0.00    +0.000 NA
ATOM     13  C   UNL     1       5.756   3.976  15.762  0.00  0.00    +0.000 C 
ENDBRANCH   6  13
ENDBRANCH   5  11
ENDBRANCH   4   5
ENDBRANCH   2   4
ENDBRANCH   1   2
BRANCH   1  14
ATOM     14  C   UNL     1       7.862   9.267  17.420  0.00  0.00    +0.000 C 
BRANCH  14  15
ATOM     15  C   UNL     1       8.795   9.943  18.434  0.00  0.00    +0.000 C 
ATOM     16  O   UNL     1       9.155   9.390  19.471  0.00  0.00    +0.000 OA
ATOM     17  N   UNL     1       9.236  11.203  18.088  0.00  0.00    +0.000 N 
ATOM     18  H   UNL     1       8.756  11.671  17.327  0.00  0.00    +0.000 HD
BRANCH  17  19
ATOM     19  C   UNL     1      10.061  11.995  19.005  0.00  0.00    +0.000 C 
ATOM     20  C   UNL     1       9.452  13.389  19.204  0.00  0.00    +0.000 C 
ATOM     21  C   UNL     1       9.787  14.170  17.941  0.00  0.00    +0.000 C 
ATOM     22  S   UNL     1      11.489  13.758  17.616  0.00  0.00    +0.000 S 
ATOM     23  O   UNL     1      12.317  14.719  18.313  0.00  0.00    +0.000 OA
ATOM     24  O   UNL     1      11.630  13.498  16.199  0.00  0.00    +0.000 OA
ATOM     25  C   UNL     1      11.505  12.218  18.523  0.00  0.00    +0.000 C 
ENDBRANCH  17  19
ENDBRANCH  14  15
ENDBRANCH   1  14
TORSDOF 8
ENDMDL
