MODEL 1
REMARK VINA RESULT:      -7.4      0.000      0.000
REMARK  Name = 
REMARK  2 active torsions:
REMARK  status: ('A' for Active; 'I' for Inactive)
REMARK    1  A    between atoms: C_1  and  C_2
REMARK    2  A    between atoms: C_5  and  N_6
REMARK                            x       y       z     vdW  Elec       q    Type
REMARK                         _______ _______ _______ _____ _____    ______ ____
ROOT
ATOM      1  N   UNL     1       2.211   7.574  18.850  0.00  0.00    +0.000 N 
ATOM      2  C   UNL     1       1.842   8.805  18.360  0.00  0.00    +0.000 C 
ATOM      3  O   UNL     1       2.085   9.207  17.223  0.00  0.00    +0.000 OA
ATOM      4  N   UNL     1       1.091   9.578  19.229  0.00  0.00    +0.000 N 
ATOM      5  C   UNL     1       0.521  10.834  18.702  0.00  0.00    +0.000 C 
ATOM      6  C   UNL     1      -0.889  11.095  19.268  0.00  0.00    +0.000 C 
ATOM      7  N   UNL     1      -0.787  11.045  20.728  0.00  0.00    +0.000 N 
ATOM      8  C   UNL     1      -1.530  11.911  21.493  0.00  0.00    +0.000 A 
ATOM      9  C   UNL     1      -1.055  12.284  22.754  0.00  0.00    +0.000 A 
ATOM     10  C   UNL     1      -1.742  13.225  23.511  0.00  0.00    +0.000 A 
ATOM     11  C   UNL     1      -2.909  13.767  23.005  0.00  0.00    +0.000 A 
ATOM     12  C   UNL     1      -3.321  13.353  21.750  0.00  0.00    +0.000 A 
ATOM     13  N   UNL     1      -2.655  12.457  20.989  0.00  0.00    +0.000 NA
ATOM     14  C   UNL     1      -0.314   9.772  21.273  0.00  0.00    +0.000 C 
ATOM     15  C   UNL     1       1.085   9.481  20.699  0.00  0.00    +0.000 C 
ATOM     16  H   UNL     1       1.680   7.227  19.627  0.00  0.00    +0.000 HD
ENDROOT
BRANCH   1  21
ATOM     17  C   UNL     1       5.479   3.771  16.073  0.00  0.00    +0.000 C 
ATOM     18  C   UNL     1       4.606   4.761  16.790  0.00  0.00    +0.000 A 
ATOM     19  C   UNL     1       3.425   4.348  17.402  0.00  0.00    +0.000 A 
ATOM     20  C   UNL     1       2.614   5.267  18.072  0.00  0.00    +0.000 A 
ATOM     21  C   UNL     1       2.977   6.611  18.151  0.00  0.00    +0.000 A 
ATOM     22  C   UNL     1       4.149   7.034  17.519  0.00  0.00    +0.000 A 
ATOM     23  C   UNL     1       4.965   6.110  16.844  0.00  0.00    +0.000 A 
ENDBRANCH   1  21
TORSDOF 1
ENDMDL
MODEL 2
REMARK VINA RESULT:      -7.4      0.094      1.029
REMARK  Name = 
REMARK  2 active torsions:
REMARK  status: ('A' for Active; 'I' for Inactive)
REMARK    1  A    between atoms: C_1  and  C_2
REMARK    2  A    between atoms: C_5  and  N_6
REMARK                            x       y       z     vdW  Elec       q    Type
REMARK                         _______ _______ _______ _____ _____    ______ ____
ROOT
ATOM      1  N   UNL     1       2.263   7.661  18.878  0.00  0.00    +0.000 N 
ATOM      2  C   UNL     1       1.875   8.887  18.390  0.00  0.00    +0.000 C 
ATOM      3  O   UNL     1       2.122   9.298  17.256  0.00  0.00    +0.000 OA
ATOM      4  N   UNL     1       1.101   9.642  19.254  0.00  0.00    +0.000 N 
ATOM      5  C   UNL     1       0.514  10.889  18.726  0.00  0.00    +0.000 C 
ATOM      6  C   UNL     1      -0.906  11.122  19.279  0.00  0.00    +0.000 C 
ATOM      7  N   UNL     1      -0.818  11.069  20.739  0.00  0.00    +0.000 N 
ATOM      8  C   UNL     1      -1.584  11.918  21.500  0.00  0.00    +0.000 A 
ATOM      9  C   UNL     1      -1.129  12.295  22.768  0.00  0.00    +0.000 A 
ATOM     10  C   UNL     1      -1.840  13.220  23.521  0.00  0.00    +0.000 A 
ATOM     11  C   UNL     1      -3.012  13.742  23.005  0.00  0.00    +0.000 A 
ATOM     12  C   UNL     1      -3.405  13.325  21.745  0.00  0.00    +0.000 A 
ATOM     13  N   UNL     1      -2.714  12.444  20.987  0.00  0.00    +0.000 NA
ATOM     14  C   UNL     1      -0.326   9.803  21.285  0.00  0.00    +0.000 C 
ATOM     15  C   UNL     1       1.084   9.540  20.723  0.00  0.00    +0.000 C 
ATOM     16  H   UNL     1       1.731   7.301  19.648  0.00  0.00    +0.000 HD
ENDROOT
BRANCH   1  21
ATOM     17  C   UNL     1       5.298   3.730  16.018  0.00  0.00    +0.000 C 
ATOM     18  C   UNL     1       4.520   4.767  16.777  0.00  0.00    +0.000 A 
ATOM     19  C   UNL     1       4.956   6.089  16.816  0.00  0.00    +0.000 A 
ATOM     20  C   UNL     1       4.232   7.054  17.520  0.00  0.00    +0.000 A 
ATOM     21  C   UNL     1       3.053   6.715  18.184  0.00  0.00    +0.000 A 
ATOM     22  C   UNL     1       2.625   5.385  18.166  0.00  0.00    +0.000 A 
ATOM     23  C   UNL     1       3.353   4.414  17.460  0.00  0.00    +0.000 A 
ENDBRANCH   1  21
TORSDOF 1
ENDMDL
MODEL 3
REMARK VINA RESULT:      -7.2      1.429      2.236
REMARK  Name = 
REMARK  2 active torsions:
REMARK  status: ('A' for Active; 'I' for Inactive)
REMARK    1  A    between atoms: C_1  and  C_2
REMARK    2  A    between atoms: C_5  and  N_6
REMARK                            x       y       z     vdW  Elec       q    Type
REMARK                         _______ _______ _______ _____ _____    ______ ____
ROOT
ATOM      1  N   UNL     1       2.881   7.610  18.184  0.00  0.00    +0.000 N 
ATOM      2  C   UNL     1       2.242   7.432  19.388  0.00  0.00    +0.000 C 
ATOM      3  O   UNL     1       2.370   6.443  20.108  0.00  0.00    +0.000 OA
ATOM      4  N   UNL     1       1.464   8.500  19.800  0.00  0.00    +0.000 N 
ATOM      5  C   UNL     1       0.891   8.439  21.159  0.00  0.00    +0.000 C 
ATOM      6  C   UNL     1       0.898   9.824  21.837  0.00  0.00    +0.000 C 
ATOM      7  N   UNL     1       0.213  10.752  20.935  0.00  0.00    +0.000 N 
ATOM      8  C   UNL     1      -0.595  11.735  21.454  0.00  0.00    +0.000 A 
ATOM      9  C   UNL     1      -1.658  12.219  20.685  0.00  0.00    +0.000 A 
ATOM     10  C   UNL     1      -2.541  13.148  21.218  0.00  0.00    +0.000 A 
ATOM     11  C   UNL     1      -2.339  13.599  22.509  0.00  0.00    +0.000 A 
ATOM     12  C   UNL     1      -1.267  13.078  23.214  0.00  0.00    +0.000 A 
ATOM     13  N   UNL     1      -0.411  12.157  22.721  0.00  0.00    +0.000 NA
ATOM     14  C   UNL     1       0.824  10.897  19.613  0.00  0.00    +0.000 C 
ATOM     15  C   UNL     1       0.849   9.517  18.929  0.00  0.00    +0.000 C 
ATOM     16  H   UNL     1       2.979   8.557  17.868  0.00  0.00    +0.000 HD
ENDROOT
BRANCH   1  21
ATOM     17  C   UNL     1       6.152   3.673  15.602  0.00  0.00    +0.000 C 
ATOM     18  C   UNL     1       5.311   4.713  16.289  0.00  0.00    +0.000 A 
ATOM     19  C   UNL     1       5.689   6.053  16.268  0.00  0.00    +0.000 A 
ATOM     20  C   UNL     1       4.907   7.021  16.903  0.00  0.00    +0.000 A 
ATOM     21  C   UNL     1       3.728   6.665  17.558  0.00  0.00    +0.000 A 
ATOM     22  C   UNL     1       3.358   5.318  17.602  0.00  0.00    +0.000 A 
ATOM     23  C   UNL     1       4.145   4.345  16.964  0.00  0.00    +0.000 A 
ENDBRANCH   1  21
TORSDOF 1
ENDMDL
MODEL 4
REMARK VINA RESULT:      -7.2      1.446      2.009
REMARK  Name = 
REMARK  2 active torsions:
REMARK  status: ('A' for Active; 'I' for Inactive)
REMARK    1  A    between atoms: C_1  and  C_2
REMARK    2  A    between atoms: C_5  and  N_6
REMARK                            x       y       z     vdW  Elec       q    Type
REMARK                         _______ _______ _______ _____ _____    ______ ____
ROOT
ATOM      1  N   UNL     1       2.839   7.540  18.158  0.00  0.00    +0.000 N 
ATOM      2  C   UNL     1       2.241   7.389  19.387  0.00  0.00    +0.000 C 
ATOM      3  O   UNL     1       2.401   6.420  20.128  0.00  0.00    +0.000 OA
ATOM      4  N   UNL     1       1.467   8.461  19.795  0.00  0.00    +0.000 N 
ATOM      5  C   UNL     1       0.939   8.432  21.173  0.00  0.00    +0.000 C 
ATOM      6  C   UNL     1       0.954   9.834  21.813  0.00  0.00    +0.000 C 
ATOM      7  N   UNL     1       0.232  10.732  20.910  0.00  0.00    +0.000 N 
ATOM      8  C   UNL     1      -0.568  11.722  21.428  0.00  0.00    +0.000 A 
ATOM      9  C   UNL     1      -1.660  12.176  20.682  0.00  0.00    +0.000 A 
ATOM     10  C   UNL     1      -2.534  13.111  21.218  0.00  0.00    +0.000 A 
ATOM     11  C   UNL     1      -2.294  13.599  22.489  0.00  0.00    +0.000 A 
ATOM     12  C   UNL     1      -1.196  13.106  23.173  0.00  0.00    +0.000 A 
ATOM     13  N   UNL     1      -0.347  12.178  22.677  0.00  0.00    +0.000 NA
ATOM     14  C   UNL     1       0.798  10.847  19.565  0.00  0.00    +0.000 C 
ATOM     15  C   UNL     1       0.815   9.449  18.918  0.00  0.00    +0.000 C 
ATOM     16  H   UNL     1       2.918   8.479  17.813  0.00  0.00    +0.000 HD
ENDROOT
BRANCH   1  21
ATOM     17  C   UNL     1       6.381   3.789  15.659  0.00  0.00    +0.000 C 
ATOM     18  C   UNL     1       5.436   4.763  16.304  0.00  0.00    +0.000 A 
ATOM     19  C   UNL     1       4.285   4.312  16.945  0.00  0.00    +0.000 A 
ATOM     20  C   UNL     1       3.408   5.217  17.548  0.00  0.00    +0.000 A 
ATOM     21  C   UNL     1       3.675   6.585  17.530  0.00  0.00    +0.000 A 
ATOM     22  C   UNL     1       4.816   7.044  16.868  0.00  0.00    +0.000 A 
ATOM     23  C   UNL     1       5.698   6.135  16.260  0.00  0.00    +0.000 A 
ENDBRANCH   1  21
TORSDOF 1
ENDMDL
MODEL 5
REMARK VINA RESULT:      -7.1      1.688      9.041
REMARK  Name = 
REMARK  2 active torsions:
REMARK  status: ('A' for Active; 'I' for Inactive)
REMARK    1  A    between atoms: C_1  and  C_2
REMARK    2  A    between atoms: C_5  and  N_6
REMARK                            x       y       z     vdW  Elec       q    Type
REMARK                         _______ _______ _______ _____ _____    ______ ____
ROOT
ATOM      1  N   UNL     1      -0.828  11.255  22.137  0.00  0.00    +0.000 N 
ATOM      2  C   UNL     1      -0.752  11.149  20.768  0.00  0.00    +0.000 C 
ATOM      3  O   UNL     1      -1.248  11.950  19.976  0.00  0.00    +0.000 OA
ATOM      4  N   UNL     1       0.001  10.084  20.305  0.00  0.00    +0.000 N 
ATOM      5  C   UNL     1       0.261  10.016  18.853  0.00  0.00    +0.000 C 
ATOM      6  C   UNL     1       1.686   9.506  18.558  0.00  0.00    +0.000 C 
ATOM      7  N   UNL     1       1.845   8.231  19.260  0.00  0.00    +0.000 N 
ATOM      8  C   UNL     1       2.557   7.214  18.672  0.00  0.00    +0.000 A 
ATOM      9  C   UNL     1       2.251   5.890  19.001  0.00  0.00    +0.000 A 
ATOM     10  C   UNL     1       2.895   4.842  18.357  0.00  0.00    +0.000 A 
ATOM     11  C   UNL     1       3.855   5.131  17.405  0.00  0.00    +0.000 A 
ATOM     12  C   UNL     1       4.109   6.464  17.128  0.00  0.00    +0.000 A 
ATOM     13  N   UNL     1       3.476   7.497  17.727  0.00  0.00    +0.000 NA
ATOM     14  C   UNL     1       1.685   8.298  20.713  0.00  0.00    +0.000 C 
ATOM     15  C   UNL     1       0.274   8.830  21.028  0.00  0.00    +0.000 C 
ATOM     16  H   UNL     1      -0.122  10.770  22.660  0.00  0.00    +0.000 HD
ENDROOT
BRANCH   1  21
ATOM     17  C   UNL     1      -3.597  15.448  24.894  0.00  0.00    +0.000 C 
ATOM     18  C   UNL     1      -2.877  14.335  24.186  0.00  0.00    +0.000 A 
ATOM     19  C   UNL     1      -3.515  13.121  23.947  0.00  0.00    +0.000 A 
ATOM     20  C   UNL     1      -2.847  12.087  23.286  0.00  0.00    +0.000 A 
ATOM     21  C   UNL     1      -1.536  12.256  22.844  0.00  0.00    +0.000 A 
ATOM     22  C   UNL     1      -0.884  13.465  23.102  0.00  0.00    +0.000 A 
ATOM     23  C   UNL     1      -1.555  14.504  23.767  0.00  0.00    +0.000 A 
ENDBRANCH   1  21
TORSDOF 1
ENDMDL
MODEL 6
REMARK VINA RESULT:      -7.1      1.667      9.086
REMARK  Name = 
REMARK  2 active torsions:
REMARK  status: ('A' for Active; 'I' for Inactive)
REMARK    1  A    between atoms: C_1  and  C_2
REMARK    2  A    between atoms: C_5  and  N_6
REMARK                            x       y       z     vdW  Elec       q    Type
REMARK                         _______ _______ _______ _____ _____    ______ ____
ROOT
ATOM      1  N   UNL     1      -0.723  11.262  22.070  0.00  0.00    +0.000 N 
ATOM      2  C   UNL     1      -0.641  11.130  20.704  0.00  0.00    +0.000 C 
ATOM      3  O   UNL     1      -1.111  11.929  19.895  0.00  0.00    +0.000 OA
ATOM      4  N   UNL     1       0.086  10.037  20.265  0.00  0.00    +0.000 N 
ATOM      5  C   UNL     1       0.353   9.936  18.817  0.00  0.00    +0.000 C 
ATOM      6  C   UNL     1       1.766   9.384  18.540  0.00  0.00    +0.000 C 
ATOM      7  N   UNL     1       1.886   8.117  19.264  0.00  0.00    +0.000 N 
ATOM      8  C   UNL     1       2.574   7.071  18.699  0.00  0.00    +0.000 A 
ATOM      9  C   UNL     1       2.231   5.762  19.049  0.00  0.00    +0.000 A 
ATOM     10  C   UNL     1       2.851   4.685  18.428  0.00  0.00    +0.000 A 
ATOM     11  C   UNL     1       3.824   4.933  17.477  0.00  0.00    +0.000 A 
ATOM     12  C   UNL     1       4.115   6.253  17.180  0.00  0.00    +0.000 A 
ATOM     13  N   UNL     1       3.506   7.313  17.756  0.00  0.00    +0.000 NA
ATOM     14  C   UNL     1       1.719   8.214  20.715  0.00  0.00    +0.000 C 
ATOM     15  C   UNL     1       0.320   8.789  21.012  0.00  0.00    +0.000 C 
ATOM     16  H   UNL     1      -0.034  10.767  22.607  0.00  0.00    +0.000 HD
ENDROOT
BRANCH   1  21
ATOM     17  C   UNL     1      -3.588  15.302  24.955  0.00  0.00    +0.000 C 
ATOM     18  C   UNL     1      -2.832  14.257  24.184  0.00  0.00    +0.000 A 
ATOM     19  C   UNL     1      -1.549  14.518  23.712  0.00  0.00    +0.000 A 
ATOM     20  C   UNL     1      -0.844  13.545  22.997  0.00  0.00    +0.000 A 
ATOM     21  C   UNL     1      -1.408  12.293  22.755  0.00  0.00    +0.000 A 
ATOM     22  C   UNL     1      -2.705  12.036  23.206  0.00  0.00    +0.000 A 
ATOM     23  C   UNL     1      -3.414  13.013  23.924  0.00  0.00    +0.000 A 
ENDBRANCH   1  21
TORSDOF 1
ENDMDL
MODEL 7
REMARK VINA RESULT:      -6.9      1.936      9.178
REMARK  Name = 
REMARK  2 active torsions:
REMARK  status: ('A' for Active; 'I' for Inactive)
REMARK    1  A    between atoms: C_1  and  C_2
REMARK    2  A    between atoms: C_5  and  N_6
REMARK                            x       y       z     vdW  Elec       q    Type
REMARK                         _______ _______ _______ _____ _____    ______ ____
ROOT
ATOM      1  N   UNL     1      -0.779  11.605  21.732  0.00  0.00    +0.000 N 
ATOM      2  C   UNL     1      -0.030  10.584  22.268  0.00  0.00    +0.000 C 
ATOM      3  O   UNL     1      -0.005  10.288  23.462  0.00  0.00    +0.000 OA
ATOM      4  N   UNL     1       0.676   9.830  21.346  0.00  0.00    +0.000 N 
ATOM      5  C   UNL     1       1.361   8.620  21.840  0.00  0.00    +0.000 C 
ATOM      6  C   UNL     1       1.280   7.469  20.818  0.00  0.00    +0.000 C 
ATOM      7  N   UNL     1       1.799   7.979  19.548  0.00  0.00    +0.000 N 
ATOM      8  C   UNL     1       2.551   7.160  18.740  0.00  0.00    +0.000 A 
ATOM      9  C   UNL     1       3.497   7.731  17.883  0.00  0.00    +0.000 A 
ATOM     10  C   UNL     1       4.331   6.923  17.122  0.00  0.00    +0.000 A 
ATOM     11  C   UNL     1       4.193   5.550  17.211  0.00  0.00    +0.000 A 
ATOM     12  C   UNL     1       3.236   5.052  18.078  0.00  0.00    +0.000 A 
ATOM     13  N   UNL     1       2.432   5.822  18.845  0.00  0.00    +0.000 NA
ATOM     14  C   UNL     1       1.071   9.122  18.994  0.00  0.00    +0.000 C 
ATOM     15  C   UNL     1       1.119  10.276  20.014  0.00  0.00    +0.000 C 
ATOM     16  H   UNL     1      -0.991  11.535  20.754  0.00  0.00    +0.000 HD
ENDROOT
BRANCH   1  21
ATOM     17  C   UNL     1      -3.917  15.408  24.654  0.00  0.00    +0.000 C 
ATOM     18  C   UNL     1      -3.103  14.395  23.899  0.00  0.00    +0.000 A 
ATOM     19  C   UNL     1      -3.709  13.264  23.358  0.00  0.00    +0.000 A 
ATOM     20  C   UNL     1      -2.953  12.324  22.654  0.00  0.00    +0.000 A 
ATOM     21  C   UNL     1      -1.583  12.507  22.469  0.00  0.00    +0.000 A 
ATOM     22  C   UNL     1      -0.967  13.629  23.030  0.00  0.00    +0.000 A 
ATOM     23  C   UNL     1      -1.726  14.574  23.740  0.00  0.00    +0.000 A 
ENDBRANCH   1  21
TORSDOF 1
ENDMDL
MODEL 8
REMARK VINA RESULT:      -6.9      1.801      2.211
REMARK  Name = 
REMARK  2 active torsions:
REMARK  status: ('A' for Active; 'I' for Inactive)
REMARK    1  A    between atoms: C_1  and  C_2
REMARK    2  A    between atoms: C_5  and  N_6
REMARK                            x       y       z     vdW  Elec       q    Type
REMARK                         _______ _______ _______ _____ _____    ______ ____
ROOT
ATOM      1  N   UNL     1       1.821   6.556  20.447  0.00  0.00    +0.000 N 
ATOM      2  C   UNL     1       1.824   7.702  19.687  0.00  0.00    +0.000 C 
ATOM      3  O   UNL     1       2.310   7.793  18.561  0.00  0.00    +0.000 OA
ATOM      4  N   UNL     1       1.163   8.779  20.252  0.00  0.00    +0.000 N 
ATOM      5  C   UNL     1       0.984   9.982  19.415  0.00  0.00    +0.000 C 
ATOM      6  C   UNL     1      -0.389  10.640  19.658  0.00  0.00    +0.000 C 
ATOM      7  N   UNL     1      -0.504  10.884  21.096  0.00  0.00    +0.000 N 
ATOM      8  C   UNL     1      -1.121  12.027  21.546  0.00  0.00    +0.000 A 
ATOM      9  C   UNL     1      -0.751  12.558  22.785  0.00  0.00    +0.000 A 
ATOM     10  C   UNL     1      -1.294  13.758  23.224  0.00  0.00    +0.000 A 
ATOM     11  C   UNL     1      -2.219  14.404  22.424  0.00  0.00    +0.000 A 
ATOM     12  C   UNL     1      -2.540  13.823  21.209  0.00  0.00    +0.000 A 
ATOM     13  N   UNL     1      -2.005  12.668  20.756  0.00  0.00    +0.000 NA
ATOM     14  C   UNL     1      -0.425   9.689  21.937  0.00  0.00    +0.000 C 
ATOM     15  C   UNL     1       0.932   9.003  21.689  0.00  0.00    +0.000 C 
ATOM     16  H   UNL     1       1.121   6.499  21.163  0.00  0.00    +0.000 HD
ENDROOT
BRANCH   1  21
ATOM     17  C   UNL     1       4.103   1.532  18.897  0.00  0.00    +0.000 C 
ATOM     18  C   UNL     1       3.521   2.852  19.316  0.00  0.00    +0.000 A 
ATOM     19  C   UNL     1       4.310   4.000  19.328  0.00  0.00    +0.000 A 
ATOM     20  C   UNL     1       3.768   5.229  19.715  0.00  0.00    +0.000 A 
ATOM     21  C   UNL     1       2.428   5.330  20.084  0.00  0.00    +0.000 A 
ATOM     22  C   UNL     1       1.639   4.177  20.097  0.00  0.00    +0.000 A 
ATOM     23  C   UNL     1       2.183   2.941  19.709  0.00  0.00    +0.000 A 
ENDBRANCH   1  21
TORSDOF 1
ENDMDL
MODEL 9
REMARK VINA RESULT:      -6.9      2.990      8.221
REMARK  Name = 
REMARK  2 active torsions:
REMARK  status: ('A' for Active; 'I' for Inactive)
REMARK    1  A    between atoms: C_1  and  C_2
REMARK    2  A    between atoms: C_5  and  N_6
REMARK                            x       y       z     vdW  Elec       q    Type
REMARK                         _______ _______ _______ _____ _____    ______ ____
ROOT
ATOM      1  N   UNL     1       1.307  11.397  19.474  0.00  0.00    +0.000 N 
ATOM      2  C   UNL     1       1.663  10.490  18.503  0.00  0.00    +0.000 C 
ATOM      3  O   UNL     1       1.991  10.788  17.356  0.00  0.00    +0.000 OA
ATOM      4  N   UNL     1       1.698   9.171  18.921  0.00  0.00    +0.000 N 
ATOM      5  C   UNL     1       2.236   8.174  17.974  0.00  0.00    +0.000 C 
ATOM      6  C   UNL     1       3.067   7.097  18.701  0.00  0.00    +0.000 C 
ATOM      7  N   UNL     1       2.221   6.534  19.754  0.00  0.00    +0.000 N 
ATOM      8  C   UNL     1       2.288   5.191  20.038  0.00  0.00    +0.000 A 
ATOM      9  C   UNL     1       1.164   4.550  20.568  0.00  0.00    +0.000 A 
ATOM     10  C   UNL     1       1.176   3.177  20.781  0.00  0.00    +0.000 A 
ATOM     11  C   UNL     1       2.322   2.465  20.480  0.00  0.00    +0.000 A 
ATOM     12  C   UNL     1       3.398   3.163  19.958  0.00  0.00    +0.000 A 
ATOM     13  N   UNL     1       3.397   4.493  19.722  0.00  0.00    +0.000 NA
ATOM     14  C   UNL     1       1.756   7.494  20.757  0.00  0.00    +0.000 C 
ATOM     15  C   UNL     1       0.944   8.593  20.046  0.00  0.00    +0.000 C 
ATOM     16  H   UNL     1       1.399  11.089  20.425  0.00  0.00    +0.000 HD
ENDROOT
BRANCH   1  21
ATOM     17  C   UNL     1       1.070  17.066  18.663  0.00  0.00    +0.000 C 
ATOM     18  C   UNL     1       1.115  15.581  18.888  0.00  0.00    +0.000 A 
ATOM     19  C   UNL     1      -0.029  14.806  18.718  0.00  0.00    +0.000 A 
ATOM     20  C   UNL     1       0.013  13.424  18.924  0.00  0.00    +0.000 A 
ATOM     21  C   UNL     1       1.202  12.796  19.291  0.00  0.00    +0.000 A 
ATOM     22  C   UNL     1       2.347  13.573  19.485  0.00  0.00    +0.000 A 
ATOM     23  C   UNL     1       2.305  14.962  19.279  0.00  0.00    +0.000 A 
ENDBRANCH   1  21
TORSDOF 1
ENDMDL
