MODEL 1
REMARK VINA RESULT:      -7.0      0.000      0.000
REMARK  Name = 
REMARK  7 active torsions:
REMARK  status: ('A' for Active; 'I' for Inactive)
REMARK    1  A    between atoms: C_1  and  O_2
REMARK    2  A    between atoms: O_2  and  C_3
REMARK    3  A    between atoms: C_6  and  O_7
REMARK    4  A    between atoms: O_7  and  C_8
REMARK    5  A    between atoms: C_9  and  S_10
REMARK    6  A    between atoms: S_10  and  N_13
REMARK    7  A    between atoms: N_13  and  C_14
REMARK                            x       y       z     vdW  Elec       q    Type
REMARK                         _______ _______ _______ _____ _____    ______ ____
ROOT
ATOM      1  S   UNL     1       6.495   4.762  18.633  0.00  0.00    +0.000 S 
ATOM      2  O   UNL     1       7.875   4.335  18.511  0.00  0.00    +0.000 OA
ATOM      3  O   UNL     1       6.121   5.749  19.620  0.00  0.00    +0.000 OA
ENDROOT
BRANCH   1   8
ATOM      4  C   UNL     1       6.310   4.949  14.599  0.00  0.00    +0.000 A 
ATOM      5  C   UNL     1       5.481   6.042  14.363  0.00  0.00    +0.000 A 
ATOM      6  C   UNL     1       4.897   6.733  15.424  0.00  0.00    +0.000 A 
ATOM      7  C   UNL     1       5.159   6.365  16.750  0.00  0.00    +0.000 A 
ATOM      8  C   UNL     1       5.980   5.252  16.991  0.00  0.00    +0.000 A 
ATOM      9  C   UNL     1       6.547   4.541  15.912  0.00  0.00    +0.000 A 
BRANCH   4  11
ATOM     10  C   UNL     1       6.024   3.438  12.785  0.00  0.00    +0.000 C 
ATOM     11  O   UNL     1       6.830   4.390  13.466  0.00  0.00    +0.000 OA
ENDBRANCH   4  11
BRANCH   7  12
ATOM     12  O   UNL     1       4.579   7.013  17.805  0.00  0.00    +0.000 OA
ATOM     13  C   UNL     1       3.155   7.030  17.829  0.00  0.00    +0.000 C 
ENDBRANCH   7  12
ENDBRANCH   1   8
BRANCH   1  14
ATOM     14  N   UNL     1       5.627   3.358  18.947  0.00  0.00    +0.000 NA
ATOM     15  H   UNL     1       6.122   2.730  19.600  0.00  0.00    +0.000 HD
BRANCH  14  16
ATOM     16  C   UNL     1       4.164   3.461  19.221  0.00  0.00    +0.000 C 
ATOM     17  C   UNL     1       3.407   3.013  17.977  0.00  0.00    +0.000 C 
ATOM     18  C   UNL     1       1.985   3.548  17.898  0.00  0.00    +0.000 C 
ATOM     19  C   UNL     1       1.035   2.853  18.861  0.00  0.00    +0.000 C 
ATOM     20  C   UNL     1       1.384   3.107  20.320  0.00  0.00    +0.000 C 
ATOM     21  N   UNL     1       2.534   2.354  20.776  0.00  0.00    +0.000 N 
ATOM     22  C   UNL     1       3.844   2.545  20.420  0.00  0.00    +0.000 C 
ATOM     23  O   UNL     1       4.728   2.002  21.086  0.00  0.00    +0.000 OA
ATOM     24  H   UNL     1       2.423   1.766  21.596  0.00  0.00    +0.000 HD
ENDBRANCH  14  16
ENDBRANCH   1  14
TORSDOF 5
ENDMDL
MODEL 2
REMARK VINA RESULT:      -7.0      2.476      5.675
REMARK  Name = 
REMARK  7 active torsions:
REMARK  status: ('A' for Active; 'I' for Inactive)
REMARK    1  A    between atoms: C_1  and  O_2
REMARK    2  A    between atoms: O_2  and  C_3
REMARK    3  A    between atoms: C_6  and  O_7
REMARK    4  A    between atoms: O_7  and  C_8
REMARK    5  A    between atoms: C_9  and  S_10
REMARK    6  A    between atoms: S_10  and  N_13
REMARK    7  A    between atoms: N_13  and  C_14
REMARK                            x       y       z     vdW  Elec       q    Type
REMARK                         _______ _______ _______ _____ _____    ______ ____
ROOT
ATOM      1  S   UNL     1       3.408   2.977  17.988  0.00  0.00    +0.000 S 
ATOM      2  O   UNL     1       3.986   2.221  19.083  0.00  0.00    +0.000 OA
ATOM      3  O   UNL     1       2.393   2.384  17.148  0.00  0.00    +0.000 OA
ENDROOT
BRANCH   1   8
ATOM      4  C   UNL     1       2.553   6.913  18.333  0.00  0.00    +0.000 A 
ATOM      5  C   UNL     1       2.252   7.061  19.684  0.00  0.00    +0.000 A 
ATOM      6  C   UNL     1       2.242   5.957  20.536  0.00  0.00    +0.000 A 
ATOM      7  C   UNL     1       2.568   4.681  20.059  0.00  0.00    +0.000 A 
ATOM      8  C   UNL     1       2.853   4.525  18.693  0.00  0.00    +0.000 A 
ATOM      9  C   UNL     1       2.836   5.642  17.831  0.00  0.00    +0.000 A 
BRANCH   4  11
ATOM     10  C   UNL     1       1.774   9.153  18.155  0.00  0.00    +0.000 C 
ATOM     11  O   UNL     1       2.549   8.084  17.630  0.00  0.00    +0.000 OA
ENDBRANCH   4  11
BRANCH   7  12
ATOM     12  O   UNL     1       2.542   3.581  20.870  0.00  0.00    +0.000 OA
ATOM     13  C   UNL     1       1.258   3.021  21.131  0.00  0.00    +0.000 C 
ENDBRANCH   7  12
ENDBRANCH   1   8
BRANCH   1  14
ATOM     14  N   UNL     1       4.710   3.400  17.013  0.00  0.00    +0.000 NA
ATOM     15  H   UNL     1       4.492   3.307  16.009  0.00  0.00    +0.000 HD
BRANCH  14  16
ATOM     16  C   UNL     1       5.482   4.635  17.338  0.00  0.00    +0.000 C 
ATOM     17  C   UNL     1       6.335   4.360  18.571  0.00  0.00    +0.000 C 
ATOM     18  C   UNL     1       6.747   5.616  19.324  0.00  0.00    +0.000 C 
ATOM     19  C   UNL     1       7.835   6.405  18.611  0.00  0.00    +0.000 C 
ATOM     20  C   UNL     1       7.371   6.978  17.280  0.00  0.00    +0.000 C 
ATOM     21  N   UNL     1       7.281   5.987  16.228  0.00  0.00    +0.000 N 
ATOM     22  C   UNL     1       6.366   4.972  16.120  0.00  0.00    +0.000 C 
ATOM     23  O   UNL     1       6.257   4.379  15.046  0.00  0.00    +0.000 OA
ATOM     24  H   UNL     1       7.791   6.160  15.367  0.00  0.00    +0.000 HD
ENDBRANCH  14  16
ENDBRANCH   1  14
TORSDOF 5
ENDMDL
MODEL 3
REMARK VINA RESULT:      -6.9      2.268      3.346
REMARK  Name = 
REMARK  7 active torsions:
REMARK  status: ('A' for Active; 'I' for Inactive)
REMARK    1  A    between atoms: C_1  and  O_2
REMARK    2  A    between atoms: O_2  and  C_3
REMARK    3  A    between atoms: C_6  and  O_7
REMARK    4  A    between atoms: O_7  and  C_8
REMARK    5  A    between atoms: C_9  and  S_10
REMARK    6  A    between atoms: S_10  and  N_13
REMARK    7  A    between atoms: N_13  and  C_14
REMARK                            x       y       z     vdW  Elec       q    Type
REMARK                         _______ _______ _______ _____ _____    ______ ____
ROOT
ATOM      1  S   UNL     1       4.202   2.949  18.722  0.00  0.00    +0.000 S 
ATOM      2  O   UNL     1       3.905   1.680  18.086  0.00  0.00    +0.000 OA
ATOM      3  O   UNL     1       4.834   2.983  20.021  0.00  0.00    +0.000 OA
ENDROOT
BRANCH   1   8
ATOM      4  C   UNL     1       5.521   4.328  15.158  0.00  0.00    +0.000 A 
ATOM      5  C   UNL     1       6.614   5.118  15.501  0.00  0.00    +0.000 A 
ATOM      6  C   UNL     1       6.961   5.310  16.838  0.00  0.00    +0.000 A 
ATOM      7  C   UNL     1       6.240   4.684  17.862  0.00  0.00    +0.000 A 
ATOM      8  C   UNL     1       5.124   3.902  17.521  0.00  0.00    +0.000 A 
ATOM      9  C   UNL     1       4.763   3.733  16.167  0.00  0.00    +0.000 A 
BRANCH   4  11
ATOM     10  C   UNL     1       6.414   3.755  13.030  0.00  0.00    +0.000 C 
ATOM     11  O   UNL     1       5.319   4.211  13.812  0.00  0.00    +0.000 OA
ENDBRANCH   4  11
BRANCH   7  12
ATOM     12  O   UNL     1       6.547   4.877  19.181  0.00  0.00    +0.000 OA
ATOM     13  C   UNL     1       7.702   5.666  19.450  0.00  0.00    +0.000 C 
ENDBRANCH   7  12
ENDBRANCH   1   8
BRANCH   1  14
ATOM     14  N   UNL     1       2.723   3.737  18.841  0.00  0.00    +0.000 NA
ATOM     15  H   UNL     1       2.019   3.172  19.341  0.00  0.00    +0.000 HD
BRANCH  14  16
ATOM     16  C   UNL     1       2.704   5.179  19.224  0.00  0.00    +0.000 C 
ATOM     17  C   UNL     1       2.239   5.991  18.022  0.00  0.00    +0.000 C 
ATOM     18  C   UNL     1       2.665   7.451  18.066  0.00  0.00    +0.000 C 
ATOM     19  C   UNL     1       1.867   8.272  19.068  0.00  0.00    +0.000 C 
ATOM     20  C   UNL     1       2.101   7.835  20.507  0.00  0.00    +0.000 C 
ATOM     21  N   UNL     1       1.425   6.601  20.850  0.00  0.00    +0.000 N 
ATOM     22  C   UNL     1       1.727   5.339  20.408  0.00  0.00    +0.000 C 
ATOM     23  O   UNL     1       1.233   4.370  20.986  0.00  0.00    +0.000 OA
ATOM     24  H   UNL     1       0.804   6.606  21.652  0.00  0.00    +0.000 HD
ENDBRANCH  14  16
ENDBRANCH   1  14
TORSDOF 5
ENDMDL
MODEL 4
REMARK VINA RESULT:      -6.9      1.969      2.745
REMARK  Name = 
REMARK  7 active torsions:
REMARK  status: ('A' for Active; 'I' for Inactive)
REMARK    1  A    between atoms: C_1  and  O_2
REMARK    2  A    between atoms: O_2  and  C_3
REMARK    3  A    between atoms: C_6  and  O_7
REMARK    4  A    between atoms: O_7  and  C_8
REMARK    5  A    between atoms: C_9  and  S_10
REMARK    6  A    between atoms: S_10  and  N_13
REMARK    7  A    between atoms: N_13  and  C_14
REMARK                            x       y       z     vdW  Elec       q    Type
REMARK                         _______ _______ _______ _____ _____    ______ ____
ROOT
ATOM      1  S   UNL     1       4.400   6.222  17.836  0.00  0.00    +0.000 S 
ATOM      2  O   UNL     1       5.041   5.830  19.076  0.00  0.00    +0.000 OA
ATOM      3  O   UNL     1       3.977   7.589  17.634  0.00  0.00    +0.000 OA
ENDROOT
BRANCH   1   8
ATOM      4  C   UNL     1       5.649   4.458  14.419  0.00  0.00    +0.000 A 
ATOM      5  C   UNL     1       7.037   4.535  14.504  0.00  0.00    +0.000 A 
ATOM      6  C   UNL     1       7.649   5.179  15.579  0.00  0.00    +0.000 A 
ATOM      7  C   UNL     1       6.883   5.731  16.613  0.00  0.00    +0.000 A 
ATOM      8  C   UNL     1       5.483   5.672  16.522  0.00  0.00    +0.000 A 
ATOM      9  C   UNL     1       4.870   5.041  15.419  0.00  0.00    +0.000 A 
BRANCH   4  11
ATOM     10  C   UNL     1       6.160   3.386  12.359  0.00  0.00    +0.000 C 
ATOM     11  O   UNL     1       5.195   3.775  13.327  0.00  0.00    +0.000 OA
ENDBRANCH   4  11
BRANCH   7  12
ATOM     12  O   UNL     1       7.461   6.388  17.664  0.00  0.00    +0.000 OA
ATOM     13  C   UNL     1       7.689   7.784  17.487  0.00  0.00    +0.000 C 
ENDBRANCH   7  12
ENDBRANCH   1   8
BRANCH   1  14
ATOM     14  N   UNL     1       3.048   5.233  17.710  0.00  0.00    +0.000 NA
ATOM     15  H   UNL     1       2.925   4.859  16.755  0.00  0.00    +0.000 HD
BRANCH  14  16
ATOM     16  C   UNL     1       2.792   4.223  18.778  0.00  0.00    +0.000 C 
ATOM     17  C   UNL     1       1.841   4.834  19.800  0.00  0.00    +0.000 C 
ATOM     18  C   UNL     1       1.905   4.172  21.169  0.00  0.00    +0.000 C 
ATOM     19  C   UNL     1       1.236   2.806  21.198  0.00  0.00    +0.000 C 
ATOM     20  C   UNL     1       1.946   1.782  20.324  0.00  0.00    +0.000 C 
ATOM     21  N   UNL     1       1.700   1.967  18.908  0.00  0.00    +0.000 N 
ATOM     22  C   UNL     1       2.162   2.982  18.112  0.00  0.00    +0.000 C 
ATOM     23  O   UNL     1       2.087   2.862  16.888  0.00  0.00    +0.000 OA
ATOM     24  H   UNL     1       1.336   1.179  18.382  0.00  0.00    +0.000 HD
ENDBRANCH  14  16
ENDBRANCH   1  14
TORSDOF 5
ENDMDL
MODEL 5
REMARK VINA RESULT:      -6.8      2.106      3.483
REMARK  Name = 
REMARK  7 active torsions:
REMARK  status: ('A' for Active; 'I' for Inactive)
REMARK    1  A    between atoms: C_1  and  O_2
REMARK    2  A    between atoms: O_2  and  C_3
REMARK    3  A    between atoms: C_6  and  O_7
REMARK    4  A    between atoms: O_7  and  C_8
REMARK    5  A    between atoms: C_9  and  S_10
REMARK    6  A    between atoms: S_10  and  N_13
REMARK    7  A    between atoms: N_13  and  C_14
REMARK                            x       y       z     vdW  Elec       q    Type
REMARK                         _______ _______ _______ _____ _____    ______ ____
ROOT
ATOM      1  S   UNL     1       6.512   4.945  15.930  0.00  0.00    +0.000 S 
ATOM      2  O   UNL     1       7.811   4.510  16.406  0.00  0.00    +0.000 OA
ATOM      3  O   UNL     1       6.039   6.280  16.219  0.00  0.00    +0.000 OA
ENDROOT
BRANCH   1   8
ATOM      4  C   UNL     1       5.400   3.396  12.366  0.00  0.00    +0.000 A 
ATOM      5  C   UNL     1       6.428   3.783  11.510  0.00  0.00    +0.000 A 
ATOM      6  C   UNL     1       7.474   4.581  11.971  0.00  0.00    +0.000 A 
ATOM      7  C   UNL     1       7.533   4.982  13.312  0.00  0.00    +0.000 A 
ATOM      8  C   UNL     1       6.488   4.609  14.173  0.00  0.00    +0.000 A 
ATOM      9  C   UNL     1       5.419   3.822  13.694  0.00  0.00    +0.000 A 
BRANCH   4  11
ATOM     10  C   UNL     1       3.615   3.192  10.808  0.00  0.00    +0.000 C 
ATOM     11  O   UNL     1       4.461   2.595  11.781  0.00  0.00    +0.000 OA
ENDBRANCH   4  11
BRANCH   7  12
ATOM     12  O   UNL     1       8.536   5.784  13.781  0.00  0.00    +0.000 OA
ATOM     13  C   UNL     1       9.440   6.298  12.807  0.00  0.00    +0.000 C 
ENDBRANCH   7  12
ENDBRANCH   1   8
BRANCH   1  14
ATOM     14  N   UNL     1       5.417   3.852  16.584  0.00  0.00    +0.000 NA
ATOM     15  H   UNL     1       5.884   3.020  16.980  0.00  0.00    +0.000 HD
BRANCH  14  16
ATOM     16  C   UNL     1       4.306   4.367  17.437  0.00  0.00    +0.000 C 
ATOM     17  C   UNL     1       3.085   3.480  17.225  0.00  0.00    +0.000 C 
ATOM     18  C   UNL     1       1.768   4.154  17.581  0.00  0.00    +0.000 C 
ATOM     19  C   UNL     1       1.554   4.280  19.082  0.00  0.00    +0.000 C 
ATOM     20  C   UNL     1       2.566   5.201  19.747  0.00  0.00    +0.000 C 
ATOM     21  N   UNL     1       3.876   4.602  19.898  0.00  0.00    +0.000 N 
ATOM     22  C   UNL     1       4.776   4.315  18.905  0.00  0.00    +0.000 C 
ATOM     23  O   UNL     1       5.940   4.052  19.213  0.00  0.00    +0.000 OA
ATOM     24  H   UNL     1       4.283   4.577  20.828  0.00  0.00    +0.000 HD
ENDBRANCH  14  16
ENDBRANCH   1  14
TORSDOF 5
ENDMDL
MODEL 6
REMARK VINA RESULT:      -6.8      2.631      6.042
REMARK  Name = 
REMARK  7 active torsions:
REMARK  status: ('A' for Active; 'I' for Inactive)
REMARK    1  A    between atoms: C_1  and  O_2
REMARK    2  A    between atoms: O_2  and  C_3
REMARK    3  A    between atoms: C_6  and  O_7
REMARK    4  A    between atoms: O_7  and  C_8
REMARK    5  A    between atoms: C_9  and  S_10
REMARK    6  A    between atoms: S_10  and  N_13
REMARK    7  A    between atoms: N_13  and  C_14
REMARK                            x       y       z     vdW  Elec       q    Type
REMARK                         _______ _______ _______ _____ _____    ______ ____
ROOT
ATOM      1  S   UNL     1       5.961   6.680  16.532  0.00  0.00    +0.000 S 
ATOM      2  O   UNL     1       4.965   7.038  15.541  0.00  0.00    +0.000 OA
ATOM      3  O   UNL     1       6.698   7.707  17.230  0.00  0.00    +0.000 OA
ENDROOT
BRANCH   1   8
ATOM      4  C   UNL     1       3.022   4.839  18.611  0.00  0.00    +0.000 A 
ATOM      5  C   UNL     1       3.716   4.085  19.553  0.00  0.00    +0.000 A 
ATOM      6  C   UNL     1       5.111   4.061  19.557  0.00  0.00    +0.000 A 
ATOM      7  C   UNL     1       5.843   4.822  18.638  0.00  0.00    +0.000 A 
ATOM      8  C   UNL     1       5.147   5.568  17.674  0.00  0.00    +0.000 A 
ATOM      9  C   UNL     1       3.736   5.568  17.659  0.00  0.00    +0.000 A 
BRANCH   4  11
ATOM     10  C   UNL     1       1.153   4.174  19.923  0.00  0.00    +0.000 C 
ATOM     11  O   UNL     1       1.664   4.786  18.746  0.00  0.00    +0.000 OA
ENDBRANCH   4  11
BRANCH   7  12
ATOM     12  O   UNL     1       7.210   4.795  18.608  0.00  0.00    +0.000 OA
ATOM     13  C   UNL     1       7.878   5.574  19.596  0.00  0.00    +0.000 C 
ENDBRANCH   7  12
ENDBRANCH   1   8
BRANCH   1  14
ATOM     14  N   UNL     1       7.064   5.711  15.714  0.00  0.00    +0.000 NA
ATOM     15  H   UNL     1       7.498   5.007  16.331  0.00  0.00    +0.000 HD
BRANCH  14  16
ATOM     16  C   UNL     1       6.694   5.173  14.372  0.00  0.00    +0.000 C 
ATOM     17  C   UNL     1       7.927   5.220  13.478  0.00  0.00    +0.000 C 
ATOM     18  C   UNL     1       7.606   5.221  11.991  0.00  0.00    +0.000 C 
ATOM     19  C   UNL     1       7.152   3.861  11.482  0.00  0.00    +0.000 C 
ATOM     20  C   UNL     1       5.829   3.416  12.086  0.00  0.00    +0.000 C 
ATOM     21  N   UNL     1       5.947   2.959  13.455  0.00  0.00    +0.000 N 
ATOM     22  C   UNL     1       6.208   3.721  14.564  0.00  0.00    +0.000 C 
ATOM     23  O   UNL     1       6.020   3.235  15.680  0.00  0.00    +0.000 OA
ATOM     24  H   UNL     1       5.600   2.032  13.679  0.00  0.00    +0.000 HD
ENDBRANCH  14  16
ENDBRANCH   1  14
TORSDOF 5
ENDMDL
MODEL 7
REMARK VINA RESULT:      -6.8      2.747      4.485
REMARK  Name = 
REMARK  7 active torsions:
REMARK  status: ('A' for Active; 'I' for Inactive)
REMARK    1  A    between atoms: C_1  and  O_2
REMARK    2  A    between atoms: O_2  and  C_3
REMARK    3  A    between atoms: C_6  and  O_7
REMARK    4  A    between atoms: O_7  and  C_8
REMARK    5  A    between atoms: C_9  and  S_10
REMARK    6  A    between atoms: S_10  and  N_13
REMARK    7  A    between atoms: N_13  and  C_14
REMARK                            x       y       z     vdW  Elec       q    Type
REMARK                         _______ _______ _______ _____ _____    ______ ____
ROOT
ATOM      1  S   UNL     1       3.416   4.542  18.844  0.00  0.00    +0.000 S 
ATOM      2  O   UNL     1       2.197   4.537  18.059  0.00  0.00    +0.000 OA
ATOM      3  O   UNL     1       3.640   3.530  19.851  0.00  0.00    +0.000 OA
ENDROOT
BRANCH   1   8
ATOM      4  C   UNL     1       5.421   4.353  15.339  0.00  0.00    +0.000 A 
ATOM      5  C   UNL     1       6.756   4.431  15.725  0.00  0.00    +0.000 A 
ATOM      6  C   UNL     1       7.099   4.602  17.066  0.00  0.00    +0.000 A 
ATOM      7  C   UNL     1       6.111   4.664  18.056  0.00  0.00    +0.000 A 
ATOM      8  C   UNL     1       4.763   4.605  17.668  0.00  0.00    +0.000 A 
ATOM      9  C   UNL     1       4.422   4.457  16.307  0.00  0.00    +0.000 A 
BRANCH   4  11
ATOM     10  C   UNL     1       6.368   3.733  13.247  0.00  0.00    +0.000 C 
ATOM     11  O   UNL     1       5.240   4.158  13.999  0.00  0.00    +0.000 OA
ENDBRANCH   4  11
BRANCH   7  12
ATOM     12  O   UNL     1       6.423   4.856  19.374  0.00  0.00    +0.000 OA
ATOM     13  C   UNL     1       7.551   5.684  19.641  0.00  0.00    +0.000 C 
ENDBRANCH   7  12
ENDBRANCH   1   8
BRANCH   1  14
ATOM     14  N   UNL     1       3.444   6.042  19.599  0.00  0.00    +0.000 NA
ATOM     15  H   UNL     1       4.390   6.455  19.614  0.00  0.00    +0.000 HD
BRANCH  14  16
ATOM     16  C   UNL     1       2.374   7.032  19.277  0.00  0.00    +0.000 C 
ATOM     17  C   UNL     1       2.075   7.844  20.531  0.00  0.00    +0.000 C 
ATOM     18  C   UNL     1       0.698   8.491  20.528  0.00  0.00    +0.000 C 
ATOM     19  C   UNL     1       0.608   9.690  19.596  0.00  0.00    +0.000 C 
ATOM     20  C   UNL     1       0.778   9.313  18.132  0.00  0.00    +0.000 C 
ATOM     21  N   UNL     1       2.150   9.025  17.768  0.00  0.00    +0.000 N 
ATOM     22  C   UNL     1       2.897   7.939  18.144  0.00  0.00    +0.000 C 
ATOM     23  O   UNL     1       3.950   7.704  17.548  0.00  0.00    +0.000 OA
ATOM     24  H   UNL     1       2.555   9.541  16.994  0.00  0.00    +0.000 HD
ENDBRANCH  14  16
ENDBRANCH   1  14
TORSDOF 5
ENDMDL
MODEL 8
REMARK VINA RESULT:      -6.7      2.627      5.896
REMARK  Name = 
REMARK  7 active torsions:
REMARK  status: ('A' for Active; 'I' for Inactive)
REMARK    1  A    between atoms: C_1  and  O_2
REMARK    2  A    between atoms: O_2  and  C_3
REMARK    3  A    between atoms: C_6  and  O_7
REMARK    4  A    between atoms: O_7  and  C_8
REMARK    5  A    between atoms: C_9  and  S_10
REMARK    6  A    between atoms: S_10  and  N_13
REMARK    7  A    between atoms: N_13  and  C_14
REMARK                            x       y       z     vdW  Elec       q    Type
REMARK                         _______ _______ _______ _____ _____    ______ ____
ROOT
ATOM      1  S   UNL     1       7.116   5.573  17.374  0.00  0.00    +0.000 S 
ATOM      2  O   UNL     1       7.740   6.663  18.099  0.00  0.00    +0.000 OA
ATOM      3  O   UNL     1       7.521   4.208  17.618  0.00  0.00    +0.000 OA
ENDROOT
BRANCH   1   8
ATOM      4  C   UNL     1       3.479   7.332  17.520  0.00  0.00    +0.000 A 
ATOM      5  C   UNL     1       2.670   6.355  18.094  0.00  0.00    +0.000 A 
ATOM      6  C   UNL     1       3.186   5.098  18.407  0.00  0.00    +0.000 A 
ATOM      7  C   UNL     1       4.537   4.803  18.185  0.00  0.00    +0.000 A 
ATOM      8  C   UNL     1       5.351   5.780  17.589  0.00  0.00    +0.000 A 
ATOM      9  C   UNL     1       4.816   7.041  17.251  0.00  0.00    +0.000 A 
BRANCH   4  11
ATOM     10  C   UNL     1       1.855   8.916  18.236  0.00  0.00    +0.000 C 
ATOM     11  O   UNL     1       2.842   8.519  17.294  0.00  0.00    +0.000 OA
ENDBRANCH   4  11
BRANCH   7  12
ATOM     12  O   UNL     1       5.060   3.571  18.463  0.00  0.00    +0.000 OA
ATOM     13  C   UNL     1       4.536   2.907  19.609  0.00  0.00    +0.000 C 
ENDBRANCH   7  12
ENDBRANCH   1   8
BRANCH   1  14
ATOM     14  N   UNL     1       7.386   5.915  15.751  0.00  0.00    +0.000 NA
ATOM     15  H   UNL     1       8.317   6.329  15.589  0.00  0.00    +0.000 HD
BRANCH  14  16
ATOM     16  C   UNL     1       7.005   4.898  14.727  0.00  0.00    +0.000 C 
ATOM     17  C   UNL     1       5.510   5.023  14.457  0.00  0.00    +0.000 C 
ATOM     18  C   UNL     1       4.885   3.764  13.875  0.00  0.00    +0.000 C 
ATOM     19  C   UNL     1       5.244   3.545  12.413  0.00  0.00    +0.000 C 
ATOM     20  C   UNL     1       6.728   3.282  12.203  0.00  0.00    +0.000 C 
ATOM     21  N   UNL     1       7.544   4.473  12.313  0.00  0.00    +0.000 N 
ATOM     22  C   UNL     1       7.822   5.185  13.451  0.00  0.00    +0.000 C 
ATOM     23  O   UNL     1       8.734   6.013  13.428  0.00  0.00    +0.000 OA
ATOM     24  H   UNL     1       8.154   4.705  11.536  0.00  0.00    +0.000 HD
ENDBRANCH  14  16
ENDBRANCH   1  14
TORSDOF 5
ENDMDL
MODEL 9
REMARK VINA RESULT:      -6.7      3.698      5.475
REMARK  Name = 
REMARK  7 active torsions:
REMARK  status: ('A' for Active; 'I' for Inactive)
REMARK    1  A    between atoms: C_1  and  O_2
REMARK    2  A    between atoms: O_2  and  C_3
REMARK    3  A    between atoms: C_6  and  O_7
REMARK    4  A    between atoms: O_7  and  C_8
REMARK    5  A    between atoms: C_9  and  S_10
REMARK    6  A    between atoms: S_10  and  N_13
REMARK    7  A    between atoms: N_13  and  C_14
REMARK                            x       y       z     vdW  Elec       q    Type
REMARK                         _______ _______ _______ _____ _____    ______ ____
ROOT
ATOM      1  S   UNL     1       2.695   5.674  18.652  0.00  0.00    +0.000 S 
ATOM      2  O   UNL     1       1.561   5.434  17.781  0.00  0.00    +0.000 OA
ATOM      3  O   UNL     1       2.738   5.087  19.972  0.00  0.00    +0.000 OA
ENDROOT
BRANCH   1   8
ATOM      4  C   UNL     1       6.246   6.052  16.758  0.00  0.00    +0.000 A 
ATOM      5  C   UNL     1       6.368   4.856  16.057  0.00  0.00    +0.000 A 
ATOM      6  C   UNL     1       5.399   3.859  16.177  0.00  0.00    +0.000 A 
ATOM      7  C   UNL     1       4.267   4.054  16.977  0.00  0.00    +0.000 A 
ATOM      8  C   UNL     1       4.150   5.252  17.701  0.00  0.00    +0.000 A 
ATOM      9  C   UNL     1       5.147   6.245  17.595  0.00  0.00    +0.000 A 
BRANCH   4  11
ATOM     10  C   UNL     1       7.689   7.737  17.615  0.00  0.00    +0.000 C 
ATOM     11  O   UNL     1       7.255   6.941  16.521  0.00  0.00    +0.000 OA
ENDBRANCH   4  11
BRANCH   7  12
ATOM     12  O   UNL     1       3.317   3.083  17.129  0.00  0.00    +0.000 OA
ATOM     13  C   UNL     1       3.618   2.046  18.058  0.00  0.00    +0.000 C 
ENDBRANCH   7  12
ENDBRANCH   1   8
BRANCH   1  14
ATOM     14  N   UNL     1       2.771   7.344  18.821  0.00  0.00    +0.000 NA
ATOM     15  H   UNL     1       3.272   7.794  18.039  0.00  0.00    +0.000 HD
BRANCH  14  16
ATOM     16  C   UNL     1       1.543   8.083  19.239  0.00  0.00    +0.000 C 
ATOM     17  C   UNL     1       1.654   8.400  20.725  0.00  0.00    +0.000 C 
ATOM     18  C   UNL     1       0.314   8.654  21.400  0.00  0.00    +0.000 C 
ATOM     19  C   UNL     1      -0.283  10.006  21.043  0.00  0.00    +0.000 C 
ATOM     20  C   UNL     1      -0.649  10.119  19.570  0.00  0.00    +0.000 C 
ATOM     21  N   UNL     1       0.498  10.301  18.705  0.00  0.00    +0.000 N 
ATOM     22  C   UNL     1       1.465   9.377  18.404  0.00  0.00    +0.000 C 
ATOM     23  O   UNL     1       2.224   9.594  17.457  0.00  0.00    +0.000 OA
ATOM     24  H   UNL     1       0.501  11.102  18.081  0.00  0.00    +0.000 HD
ENDBRANCH  14  16
ENDBRANCH   1  14
TORSDOF 5
ENDMDL
