MODEL 1
REMARK VINA RESULT:      -7.0      0.000      0.000
REMARK  Name = 
REMARK  14 active torsions:
REMARK  status: ('A' for Active; 'I' for Inactive)
REMARK    1  A    between atoms: C_1  and  C_2
REMARK    2  A    between atoms: N_4  and  C_5
REMARK    3  A    between atoms: C_5  and  C_6
REMARK    4  A    between atoms: C_5  and  C_7
REMARK    5  A    between atoms: C_8  and  C_9
REMARK    6  A    between atoms: C_12  and  O_13
REMARK    7  A    between atoms: O_13  and  C_14
REMARK    8  A    between atoms: C_17  and  O_18
REMARK    9  A    between atoms: O_18  and  C_19
REMARK   10  A    between atoms: C_19  and  C_20
REMARK   11  A    between atoms: C_20  and  C_21
REMARK   12  A    between atoms: C_20  and  C_22
REMARK   13  A    between atoms: C_24  and  C_25
REMARK   14  A    between atoms: N_26  and  O_27
REMARK                            x       y       z     vdW  Elec       q    Type
REMARK                         _______ _______ _______ _____ _____    ______ ____
ROOT
ATOM      1  O   UNL     1       5.239   5.631  18.912  0.00  0.00    +0.000 OA
ENDROOT
BRANCH   1   2
ATOM      2  C   UNL     1       5.682   5.083  17.724  0.00  0.00    +0.000 A 
ATOM      3  C   UNL     1       5.059   3.941  17.193  0.00  0.00    +0.000 A 
ATOM      4  C   UNL     1       5.335   3.519  15.902  0.00  0.00    +0.000 A 
ATOM      5  C   UNL     1       6.294   4.177  15.147  0.00  0.00    +0.000 A 
ATOM      6  C   UNL     1       7.004   5.244  15.701  0.00  0.00    +0.000 A 
ATOM      7  C   UNL     1       6.711   5.695  17.003  0.00  0.00    +0.000 A 
BRANCH   7   8
ATOM      8  C   UNL     1       7.454   6.896  17.448  0.00  0.00    +0.000 C 
ATOM      9  N   UNL     1       8.128   7.123  18.539  0.00  0.00    +0.000 NA
BRANCH   9  10
ATOM     10  O   UNL     1       8.214   6.008  19.370  0.00  0.00    +0.000 OA
ATOM     11  H   UNL     1       8.941   5.503  18.961  0.00  0.00    +0.000 HD
ENDBRANCH   9  10
ENDBRANCH   7   8
BRANCH   5  12
ATOM     12  O   UNL     1       6.385   3.730  13.862  0.00  0.00    +0.000 OA
BRANCH  12  13
ATOM     13  C   UNL     1       5.347   4.118  12.972  0.00  0.00    +0.000 C 
BRANCH  13  14
ATOM     14  C   UNL     1       5.009   2.902  12.099  0.00  0.00    +0.000 C 
ATOM     15  C   UNL     1       3.965   3.262  11.036  0.00  0.00    +0.000 C 
ATOM     16  C   UNL     1       6.273   2.356  11.446  0.00  0.00    +0.000 C 
ENDBRANCH  13  14
ENDBRANCH  12  13
ENDBRANCH   5  12
ENDBRANCH   1   2
BRANCH   1  20
ATOM     17  C   UNL     1       2.202   7.725  18.930  0.00  0.00    +0.000 A 
ATOM     18  C   UNL     1       2.110   6.742  19.887  0.00  0.00    +0.000 A 
ATOM     19  N   UNL     1       3.125   5.807  19.872  0.00  0.00    +0.000 NA
ATOM     20  C   UNL     1       4.005   6.145  18.944  0.00  0.00    +0.000 A 
ATOM     21  S   UNL     1       3.543   7.420  17.906  0.00  0.00    +0.000 S 
BRANCH  17  23
ATOM     22  C   UNL     1       0.306   9.617  18.534  0.00  0.00    +0.000 C 
ATOM     23  C   UNL     1       1.304   8.805  18.748  0.00  0.00    +0.000 C 
BRANCH  22  24
ATOM     24  C   UNL     1      -0.858  10.562  18.287  0.00  0.00    +0.000 C 
ATOM     25  C   UNL     1      -1.693  10.045  17.118  0.00  0.00    +0.000 C 
BRANCH  24  29
ATOM     26  C   UNL     1       0.060  14.207  18.597  0.00  0.00    +0.000 C 
ATOM     27  C   UNL     1      -0.420  12.853  19.038  0.00  0.00    +0.000 C 
ATOM     28  O   UNL     1      -0.812  12.631  20.178  0.00  0.00    +0.000 OA
ATOM     29  N   UNL     1      -0.367  11.898  18.047  0.00  0.00    +0.000 N 
ATOM     30  H   UNL     1      -0.137  12.170  17.102  0.00  0.00    +0.000 HD
ENDBRANCH  24  29
ENDBRANCH  22  24
ENDBRANCH  17  23
ENDBRANCH   1  20
TORSDOF 10
ENDMDL
MODEL 2
REMARK VINA RESULT:      -6.9      1.038      1.241
REMARK  Name = 
REMARK  14 active torsions:
REMARK  status: ('A' for Active; 'I' for Inactive)
REMARK    1  A    between atoms: C_1  and  C_2
REMARK    2  A    between atoms: N_4  and  C_5
REMARK    3  A    between atoms: C_5  and  C_6
REMARK    4  A    between atoms: C_5  and  C_7
REMARK    5  A    between atoms: C_8  and  C_9
REMARK    6  A    between atoms: C_12  and  O_13
REMARK    7  A    between atoms: O_13  and  C_14
REMARK    8  A    between atoms: C_17  and  O_18
REMARK    9  A    between atoms: O_18  and  C_19
REMARK   10  A    between atoms: C_19  and  C_20
REMARK   11  A    between atoms: C_20  and  C_21
REMARK   12  A    between atoms: C_20  and  C_22
REMARK   13  A    between atoms: C_24  and  C_25
REMARK   14  A    between atoms: N_26  and  O_27
REMARK                            x       y       z     vdW  Elec       q    Type
REMARK                         _______ _______ _______ _____ _____    ______ ____
ROOT
ATOM      1  O   UNL     1       4.980   4.964  19.078  0.00  0.00    +0.000 OA
ENDROOT
BRANCH   1   2
ATOM      2  C   UNL     1       5.426   4.538  17.842  0.00  0.00    +0.000 A 
ATOM      3  C   UNL     1       4.605   3.737  17.029  0.00  0.00    +0.000 A 
ATOM      4  C   UNL     1       4.939   3.497  15.706  0.00  0.00    +0.000 A 
ATOM      5  C   UNL     1       6.133   3.980  15.191  0.00  0.00    +0.000 A 
ATOM      6  C   UNL     1       7.014   4.681  16.019  0.00  0.00    +0.000 A 
ATOM      7  C   UNL     1       6.670   4.951  17.358  0.00  0.00    +0.000 A 
BRANCH   7   8
ATOM      8  C   UNL     1       7.632   5.788  18.111  0.00  0.00    +0.000 C 
ATOM      9  N   UNL     1       7.879   7.064  18.049  0.00  0.00    +0.000 NA
BRANCH   9  10
ATOM     10  O   UNL     1       7.027   7.744  17.181  0.00  0.00    +0.000 OA
ATOM     11  H   UNL     1       7.652   8.125  16.537  0.00  0.00    +0.000 HD
ENDBRANCH   9  10
ENDBRANCH   7   8
BRANCH   5  12
ATOM     12  O   UNL     1       6.283   3.768  13.854  0.00  0.00    +0.000 OA
BRANCH  12  13
ATOM     13  C   UNL     1       5.157   4.040  13.030  0.00  0.00    +0.000 C 
BRANCH  13  14
ATOM     14  C   UNL     1       5.387   3.337  11.685  0.00  0.00    +0.000 C 
ATOM     15  C   UNL     1       6.188   2.044  11.870  0.00  0.00    +0.000 C 
ATOM     16  C   UNL     1       4.053   3.049  11.008  0.00  0.00    +0.000 C 
ENDBRANCH  13  14
ENDBRANCH  12  13
ENDBRANCH   5  12
ENDBRANCH   1   2
BRANCH   1  20
ATOM     17  C   UNL     1       2.338   7.537  19.070  0.00  0.00    +0.000 A 
ATOM     18  C   UNL     1       2.140   6.652  20.104  0.00  0.00    +0.000 A 
ATOM     19  N   UNL     1       2.983   5.561  20.116  0.00  0.00    +0.000 NA
ATOM     20  C   UNL     1       3.852   5.679  19.126  0.00  0.00    +0.000 A 
ATOM     21  S   UNL     1       3.548   6.939  18.013  0.00  0.00    +0.000 S 
BRANCH  17  23
ATOM     22  C   UNL     1       0.811   9.759  18.823  0.00  0.00    +0.000 C 
ATOM     23  C   UNL     1       1.621   8.738  18.844  0.00  0.00    +0.000 C 
BRANCH  22  24
ATOM     24  C   UNL     1      -0.134  10.950  18.799  0.00  0.00    +0.000 C 
ATOM     25  C   UNL     1      -1.359  10.610  17.954  0.00  0.00    +0.000 C 
BRANCH  24  29
ATOM     26  C   UNL     1       1.895  14.114  18.484  0.00  0.00    +0.000 C 
ATOM     27  C   UNL     1       1.311  12.897  19.147  0.00  0.00    +0.000 C 
ATOM     28  O   UNL     1       1.507  12.633  20.328  0.00  0.00    +0.000 OA
ATOM     29  N   UNL     1       0.555  12.118  18.302  0.00  0.00    +0.000 N 
ATOM     30  H   UNL     1       0.344  12.447  17.371  0.00  0.00    +0.000 HD
ENDBRANCH  24  29
ENDBRANCH  22  24
ENDBRANCH  17  23
ENDBRANCH   1  20
TORSDOF 10
ENDMDL
MODEL 3
REMARK VINA RESULT:      -6.9      2.185      3.385
REMARK  Name = 
REMARK  14 active torsions:
REMARK  status: ('A' for Active; 'I' for Inactive)
REMARK    1  A    between atoms: C_1  and  C_2
REMARK    2  A    between atoms: N_4  and  C_5
REMARK    3  A    between atoms: C_5  and  C_6
REMARK    4  A    between atoms: C_5  and  C_7
REMARK    5  A    between atoms: C_8  and  C_9
REMARK    6  A    between atoms: C_12  and  O_13
REMARK    7  A    between atoms: O_13  and  C_14
REMARK    8  A    between atoms: C_17  and  O_18
REMARK    9  A    between atoms: O_18  and  C_19
REMARK   10  A    between atoms: C_19  and  C_20
REMARK   11  A    between atoms: C_20  and  C_21
REMARK   12  A    between atoms: C_20  and  C_22
REMARK   13  A    between atoms: C_24  and  C_25
REMARK   14  A    between atoms: N_26  and  O_27
REMARK                            x       y       z     vdW  Elec       q    Type
REMARK                         _______ _______ _______ _____ _____    ______ ____
ROOT
ATOM      1  O   UNL     1       3.534   6.074  19.374  0.00  0.00    +0.000 OA
ENDROOT
BRANCH   1   2
ATOM      2  C   UNL     1       4.043   5.819  18.116  0.00  0.00    +0.000 A 
ATOM      3  C   UNL     1       4.880   6.756  17.485  0.00  0.00    +0.000 A 
ATOM      4  C   UNL     1       5.580   6.421  16.337  0.00  0.00    +0.000 A 
ATOM      5  C   UNL     1       5.398   5.177  15.751  0.00  0.00    +0.000 A 
ATOM      6  C   UNL     1       4.484   4.276  16.302  0.00  0.00    +0.000 A 
ATOM      7  C   UNL     1       3.788   4.599  17.483  0.00  0.00    +0.000 A 
BRANCH   7   8
ATOM      8  C   UNL     1       2.923   3.530  18.031  0.00  0.00    +0.000 C 
ATOM      9  N   UNL     1       1.635   3.358  17.960  0.00  0.00    +0.000 NA
BRANCH   9  10
ATOM     10  O   UNL     1       1.000   4.308  17.163  0.00  0.00    +0.000 OA
ATOM     11  H   UNL     1       1.689   4.519  16.506  0.00  0.00    +0.000 HD
ENDBRANCH   9  10
ENDBRANCH   7   8
BRANCH   5  12
ATOM     12  O   UNL     1       6.227   4.939  14.696  0.00  0.00    +0.000 OA
BRANCH  12  13
ATOM     13  C   UNL     1       6.092   3.684  14.044  0.00  0.00    +0.000 C 
BRANCH  13  14
ATOM     14  C   UNL     1       5.908   3.959  12.545  0.00  0.00    +0.000 C 
ATOM     15  C   UNL     1       7.261   4.079  11.837  0.00  0.00    +0.000 C 
ATOM     16  C   UNL     1       5.064   2.861  11.909  0.00  0.00    +0.000 C 
ENDBRANCH  13  14
ENDBRANCH  12  13
ENDBRANCH   5  12
ENDBRANCH   1   2
BRANCH   1  20
ATOM     17  C   UNL     1       1.263   8.980  19.350  0.00  0.00    +0.000 A 
ATOM     18  C   UNL     1       1.152   8.297  20.538  0.00  0.00    +0.000 A 
ATOM     19  N   UNL     1       1.847   7.107  20.601  0.00  0.00    +0.000 NA
ATOM     20  C   UNL     1       2.528   6.948  19.480  0.00  0.00    +0.000 A 
ATOM     21  S   UNL     1       2.179   8.060  18.231  0.00  0.00    +0.000 S 
BRANCH  17  23
ATOM     22  C   UNL     1      -0.080  11.234  18.680  0.00  0.00    +0.000 C 
ATOM     23  C   UNL     1       0.667  10.227  19.039  0.00  0.00    +0.000 C 
BRANCH  22  24
ATOM     24  C   UNL     1      -0.951  12.406  18.261  0.00  0.00    +0.000 C 
ATOM     25  C   UNL     1      -0.592  13.631  19.098  0.00  0.00    +0.000 C 
BRANCH  24  29
ATOM     26  C   UNL     1      -4.480  11.243  17.620  0.00  0.00    +0.000 C 
ATOM     27  C   UNL     1      -3.020  11.469  17.344  0.00  0.00    +0.000 C 
ATOM     28  O   UNL     1      -2.492  11.147  16.286  0.00  0.00    +0.000 OA
ATOM     29  N   UNL     1      -2.346  12.057  18.390  0.00  0.00    +0.000 N 
ATOM     30  H   UNL     1      -2.860  12.395  19.191  0.00  0.00    +0.000 HD
ENDBRANCH  24  29
ENDBRANCH  22  24
ENDBRANCH  17  23
ENDBRANCH   1  20
TORSDOF 10
ENDMDL
MODEL 4
REMARK VINA RESULT:      -6.8      2.708      9.125
REMARK  Name = 
REMARK  14 active torsions:
REMARK  status: ('A' for Active; 'I' for Inactive)
REMARK    1  A    between atoms: C_1  and  C_2
REMARK    2  A    between atoms: N_4  and  C_5
REMARK    3  A    between atoms: C_5  and  C_6
REMARK    4  A    between atoms: C_5  and  C_7
REMARK    5  A    between atoms: C_8  and  C_9
REMARK    6  A    between atoms: C_12  and  O_13
REMARK    7  A    between atoms: O_13  and  C_14
REMARK    8  A    between atoms: C_17  and  O_18
REMARK    9  A    between atoms: O_18  and  C_19
REMARK   10  A    between atoms: C_19  and  C_20
REMARK   11  A    between atoms: C_20  and  C_21
REMARK   12  A    between atoms: C_20  and  C_22
REMARK   13  A    between atoms: C_24  and  C_25
REMARK   14  A    between atoms: N_26  and  O_27
REMARK                            x       y       z     vdW  Elec       q    Type
REMARK                         _______ _______ _______ _____ _____    ______ ____
ROOT
ATOM      1  O   UNL     1       2.723   7.049  20.134  0.00  0.00    +0.000 OA
ENDROOT
BRANCH   1   2
ATOM      2  C   UNL     1       1.968   8.078  19.605  0.00  0.00    +0.000 A 
ATOM      3  C   UNL     1       2.028   8.369  18.231  0.00  0.00    +0.000 A 
ATOM      4  C   UNL     1       1.114   9.233  17.650  0.00  0.00    +0.000 A 
ATOM      5  C   UNL     1       0.177   9.886  18.438  0.00  0.00    +0.000 A 
ATOM      6  C   UNL     1       0.178   9.695  19.822  0.00  0.00    +0.000 A 
ATOM      7  C   UNL     1       1.086   8.798  20.417  0.00  0.00    +0.000 A 
BRANCH   7   8
ATOM      8  C   UNL     1       0.929   8.598  21.875  0.00  0.00    +0.000 C 
ATOM      9  N   UNL     1       0.771   9.459  22.839  0.00  0.00    +0.000 NA
BRANCH   9  10
ATOM     10  O   UNL     1       0.653  10.771  22.386  0.00  0.00    +0.000 OA
ATOM     11  H   UNL     1       1.526  10.928  21.983  0.00  0.00    +0.000 HD
ENDBRANCH   9  10
ENDBRANCH   7   8
BRANCH   5  12
ATOM     12  O   UNL     1      -0.726  10.617  17.727  0.00  0.00    +0.000 OA
BRANCH  12  13
ATOM     13  C   UNL     1      -1.905   9.946  17.304  0.00  0.00    +0.000 C 
BRANCH  13  14
ATOM     14  C   UNL     1      -2.641  10.875  16.329  0.00  0.00    +0.000 C 
ATOM     15  C   UNL     1      -2.909  10.171  14.995  0.00  0.00    +0.000 C 
ATOM     16  C   UNL     1      -3.945  11.362  16.949  0.00  0.00    +0.000 C 
ENDBRANCH  13  14
ENDBRANCH  12  13
ENDBRANCH   5  12
ENDBRANCH   1   2
BRANCH   1  20
ATOM     17  C   UNL     1       3.962   4.853  17.442  0.00  0.00    +0.000 A 
ATOM     18  C   UNL     1       2.728   4.428  17.876  0.00  0.00    +0.000 A 
ATOM     19  N   UNL     1       2.233   5.086  18.982  0.00  0.00    +0.000 NA
ATOM     20  C   UNL     1       3.075   6.047  19.322  0.00  0.00    +0.000 A 
ATOM     21  S   UNL     1       4.578   6.044  18.510  0.00  0.00    +0.000 S 
BRANCH  17  23
ATOM     22  C   UNL     1       5.245   4.106  15.178  0.00  0.00    +0.000 C 
ATOM     23  C   UNL     1       4.676   4.356  16.324  0.00  0.00    +0.000 C 
BRANCH  22  24
ATOM     24  C   UNL     1       5.909   3.817  13.842  0.00  0.00    +0.000 C 
ATOM     25  C   UNL     1       7.114   4.736  13.663  0.00  0.00    +0.000 C 
BRANCH  24  29
ATOM     26  C   UNL     1       3.916   3.419  10.665  0.00  0.00    +0.000 C 
ATOM     27  C   UNL     1       4.917   3.069  11.730  0.00  0.00    +0.000 C 
ATOM     28  O   UNL     1       5.624   2.069  11.668  0.00  0.00    +0.000 OA
ATOM     29  N   UNL     1       4.953   3.969  12.771  0.00  0.00    +0.000 N 
ATOM     30  H   UNL     1       4.423   4.827  12.710  0.00  0.00    +0.000 HD
ENDBRANCH  24  29
ENDBRANCH  22  24
ENDBRANCH  17  23
ENDBRANCH   1  20
TORSDOF 10
ENDMDL
MODEL 5
REMARK VINA RESULT:      -6.7      1.377      1.836
REMARK  Name = 
REMARK  14 active torsions:
REMARK  status: ('A' for Active; 'I' for Inactive)
REMARK    1  A    between atoms: C_1  and  C_2
REMARK    2  A    between atoms: N_4  and  C_5
REMARK    3  A    between atoms: C_5  and  C_6
REMARK    4  A    between atoms: C_5  and  C_7
REMARK    5  A    between atoms: C_8  and  C_9
REMARK    6  A    between atoms: C_12  and  O_13
REMARK    7  A    between atoms: O_13  and  C_14
REMARK    8  A    between atoms: C_17  and  O_18
REMARK    9  A    between atoms: O_18  and  C_19
REMARK   10  A    between atoms: C_19  and  C_20
REMARK   11  A    between atoms: C_20  and  C_21
REMARK   12  A    between atoms: C_20  and  C_22
REMARK   13  A    between atoms: C_24  and  C_25
REMARK   14  A    between atoms: N_26  and  O_27
REMARK                            x       y       z     vdW  Elec       q    Type
REMARK                         _______ _______ _______ _____ _____    ______ ____
ROOT
ATOM      1  O   UNL     1       5.074   4.502  19.367  0.00  0.00    +0.000 OA
ENDROOT
BRANCH   1   2
ATOM      2  C   UNL     1       5.488   4.243  18.075  0.00  0.00    +0.000 A 
ATOM      3  C   UNL     1       4.640   3.568  17.180  0.00  0.00    +0.000 A 
ATOM      4  C   UNL     1       4.941   3.505  15.830  0.00  0.00    +0.000 A 
ATOM      5  C   UNL     1       6.130   4.042  15.357  0.00  0.00    +0.000 A 
ATOM      6  C   UNL     1       7.038   4.616  16.251  0.00  0.00    +0.000 A 
ATOM      7  C   UNL     1       6.727   4.706  17.622  0.00  0.00    +0.000 A 
BRANCH   7   8
ATOM      8  C   UNL     1       7.715   5.424  18.458  0.00  0.00    +0.000 C 
ATOM      9  N   UNL     1       7.992   6.693  18.547  0.00  0.00    +0.000 NA
BRANCH   9  10
ATOM     10  O   UNL     1       7.149   7.492  17.778  0.00  0.00    +0.000 OA
ATOM     11  H   UNL     1       6.435   6.871  17.544  0.00  0.00    +0.000 HD
ENDBRANCH   9  10
ENDBRANCH   7   8
BRANCH   5  12
ATOM     12  O   UNL     1       6.248   4.010  14.000  0.00  0.00    +0.000 OA
BRANCH  12  13
ATOM     13  C   UNL     1       5.042   4.036  13.250  0.00  0.00    +0.000 C 
BRANCH  13  14
ATOM     14  C   UNL     1       5.357   3.497  11.848  0.00  0.00    +0.000 C 
ATOM     15  C   UNL     1       6.318   2.306  11.919  0.00  0.00    +0.000 C 
ATOM     16  C   UNL     1       4.070   3.105  11.134  0.00  0.00    +0.000 C 
ENDBRANCH  13  14
ENDBRANCH  12  13
ENDBRANCH   5  12
ENDBRANCH   1   2
BRANCH   1  20
ATOM     17  C   UNL     1       2.238   6.761  20.042  0.00  0.00    +0.000 A 
ATOM     18  C   UNL     1       1.989   5.513  20.563  0.00  0.00    +0.000 A 
ATOM     19  N   UNL     1       2.918   4.545  20.242  0.00  0.00    +0.000 NA
ATOM     20  C   UNL     1       3.891   5.099  19.540  0.00  0.00    +0.000 A 
ATOM     21  S   UNL     1       3.620   6.707  19.030  0.00  0.00    +0.000 S 
BRANCH  17  23
ATOM     22  C   UNL     1       0.899   9.104  20.262  0.00  0.00    +0.000 C 
ATOM     23  C   UNL     1       1.453   7.924  20.237  0.00  0.00    +0.000 C 
BRANCH  22  24
ATOM     24  C   UNL     1       0.253  10.479  20.289  0.00  0.00    +0.000 C 
ATOM     25  C   UNL     1      -0.259  10.774  21.697  0.00  0.00    +0.000 C 
BRANCH  24  29
ATOM     26  C   UNL     1      -2.103  11.580  17.558  0.00  0.00    +0.000 C 
ATOM     27  C   UNL     1      -0.905  11.632  18.464  0.00  0.00    +0.000 C 
ATOM     28  O   UNL     1      -0.098  12.554  18.436  0.00  0.00    +0.000 OA
ATOM     29  N   UNL     1      -0.803  10.550  19.308  0.00  0.00    +0.000 N 
ATOM     30  H   UNL     1      -1.558   9.879  19.355  0.00  0.00    +0.000 HD
ENDBRANCH  24  29
ENDBRANCH  22  24
ENDBRANCH  17  23
ENDBRANCH   1  20
TORSDOF 10
ENDMDL
MODEL 6
REMARK VINA RESULT:      -6.7      1.181      1.490
REMARK  Name = 
REMARK  14 active torsions:
REMARK  status: ('A' for Active; 'I' for Inactive)
REMARK    1  A    between atoms: C_1  and  C_2
REMARK    2  A    between atoms: N_4  and  C_5
REMARK    3  A    between atoms: C_5  and  C_6
REMARK    4  A    between atoms: C_5  and  C_7
REMARK    5  A    between atoms: C_8  and  C_9
REMARK    6  A    between atoms: C_12  and  O_13
REMARK    7  A    between atoms: O_13  and  C_14
REMARK    8  A    between atoms: C_17  and  O_18
REMARK    9  A    between atoms: O_18  and  C_19
REMARK   10  A    between atoms: C_19  and  C_20
REMARK   11  A    between atoms: C_20  and  C_21
REMARK   12  A    between atoms: C_20  and  C_22
REMARK   13  A    between atoms: C_24  and  C_25
REMARK   14  A    between atoms: N_26  and  O_27
REMARK                            x       y       z     vdW  Elec       q    Type
REMARK                         _______ _______ _______ _____ _____    ______ ____
ROOT
ATOM      1  O   UNL     1       5.136   5.383  19.073  0.00  0.00    +0.000 OA
ENDROOT
BRANCH   1   2
ATOM      2  C   UNL     1       5.620   4.904  17.871  0.00  0.00    +0.000 A 
ATOM      3  C   UNL     1       4.958   3.859  17.205  0.00  0.00    +0.000 A 
ATOM      4  C   UNL     1       5.291   3.526  15.901  0.00  0.00    +0.000 A 
ATOM      5  C   UNL     1       6.342   4.172  15.267  0.00  0.00    +0.000 A 
ATOM      6  C   UNL     1       7.084   5.135  15.955  0.00  0.00    +0.000 A 
ATOM      7  C   UNL     1       6.735   5.497  17.271  0.00  0.00    +0.000 A 
BRANCH   7   8
ATOM      8  C   UNL     1       7.526   6.598  17.865  0.00  0.00    +0.000 C 
ATOM      9  N   UNL     1       8.175   6.668  18.991  0.00  0.00    +0.000 NA
BRANCH   9  10
ATOM     10  O   UNL     1       8.175   5.466  19.697  0.00  0.00    +0.000 OA
ATOM     11  H   UNL     1       9.119   5.224  19.690  0.00  0.00    +0.000 HD
ENDBRANCH   9  10
ENDBRANCH   7   8
BRANCH   5  12
ATOM     12  O   UNL     1       6.489   3.828  13.956  0.00  0.00    +0.000 OA
BRANCH  12  13
ATOM     13  C   UNL     1       5.387   4.084  13.097  0.00  0.00    +0.000 C 
BRANCH  13  14
ATOM     14  C   UNL     1       5.239   2.877  12.161  0.00  0.00    +0.000 C 
ATOM     15  C   UNL     1       4.172   3.136  11.093  0.00  0.00    +0.000 C 
ATOM     16  C   UNL     1       6.578   2.549  11.512  0.00  0.00    +0.000 C 
ENDBRANCH  13  14
ENDBRANCH  12  13
ENDBRANCH   5  12
ENDBRANCH   1   2
BRANCH   1  20
ATOM     17  C   UNL     1       2.268   7.703  19.068  0.00  0.00    +0.000 A 
ATOM     18  C   UNL     1       2.046   6.670  19.949  0.00  0.00    +0.000 A 
ATOM     19  N   UNL     1       2.988   5.662  19.925  0.00  0.00    +0.000 NA
ATOM     20  C   UNL     1       3.944   5.988  19.073  0.00  0.00    +0.000 A 
ATOM     21  S   UNL     1       3.641   7.360  18.101  0.00  0.00    +0.000 S 
BRANCH  17  23
ATOM     22  C   UNL     1       0.925  10.045  18.870  0.00  0.00    +0.000 C 
ATOM     23  C   UNL     1       1.466   8.860  18.911  0.00  0.00    +0.000 C 
BRANCH  22  24
ATOM     24  C   UNL     1       0.296  11.428  18.822  0.00  0.00    +0.000 C 
ATOM     25  C   UNL     1       1.392  12.482  18.688  0.00  0.00    +0.000 C 
BRANCH  24  29
ATOM     26  C   UNL     1      -0.961  11.755  22.362  0.00  0.00    +0.000 C 
ATOM     27  C   UNL     1       0.039  11.583  21.253  0.00  0.00    +0.000 C 
ATOM     28  O   UNL     1       1.235  11.415  21.464  0.00  0.00    +0.000 OA
ATOM     29  N   UNL     1      -0.517  11.643  19.995  0.00  0.00    +0.000 N 
ATOM     30  H   UNL     1      -1.521  11.675  19.893  0.00  0.00    +0.000 HD
ENDBRANCH  24  29
ENDBRANCH  22  24
ENDBRANCH  17  23
ENDBRANCH   1  20
TORSDOF 10
ENDMDL
MODEL 7
REMARK VINA RESULT:      -6.7      1.247      1.593
REMARK  Name = 
REMARK  14 active torsions:
REMARK  status: ('A' for Active; 'I' for Inactive)
REMARK    1  A    between atoms: C_1  and  C_2
REMARK    2  A    between atoms: N_4  and  C_5
REMARK    3  A    between atoms: C_5  and  C_6
REMARK    4  A    between atoms: C_5  and  C_7
REMARK    5  A    between atoms: C_8  and  C_9
REMARK    6  A    between atoms: C_12  and  O_13
REMARK    7  A    between atoms: O_13  and  C_14
REMARK    8  A    between atoms: C_17  and  O_18
REMARK    9  A    between atoms: O_18  and  C_19
REMARK   10  A    between atoms: C_19  and  C_20
REMARK   11  A    between atoms: C_20  and  C_21
REMARK   12  A    between atoms: C_20  and  C_22
REMARK   13  A    between atoms: C_24  and  C_25
REMARK   14  A    between atoms: N_26  and  O_27
REMARK                            x       y       z     vdW  Elec       q    Type
REMARK                         _______ _______ _______ _____ _____    ______ ____
ROOT
ATOM      1  O   UNL     1       4.940   5.074  18.794  0.00  0.00    +0.000 OA
ENDROOT
BRANCH   1   2
ATOM      2  C   UNL     1       5.282   4.824  17.479  0.00  0.00    +0.000 A 
ATOM      3  C   UNL     1       4.549   3.896  16.719  0.00  0.00    +0.000 A 
ATOM      4  C   UNL     1       4.728   3.804  15.348  0.00  0.00    +0.000 A 
ATOM      5  C   UNL     1       5.695   4.576  14.721  0.00  0.00    +0.000 A 
ATOM      6  C   UNL     1       6.509   5.421  15.478  0.00  0.00    +0.000 A 
ATOM      7  C   UNL     1       6.317   5.539  16.868  0.00  0.00    +0.000 A 
BRANCH   7   8
ATOM      8  C   UNL     1       7.169   6.538  17.552  0.00  0.00    +0.000 C 
ATOM      9  N   UNL     1       7.927   6.431  18.604  0.00  0.00    +0.000 NA
BRANCH   9  10
ATOM     10  O   UNL     1       7.993   5.131  19.101  0.00  0.00    +0.000 OA
ATOM     11  H   UNL     1       7.053   4.923  19.256  0.00  0.00    +0.000 HD
ENDBRANCH   9  10
ENDBRANCH   7   8
BRANCH   5  12
ATOM     12  O   UNL     1       5.688   4.470  13.362  0.00  0.00    +0.000 OA
BRANCH  12  13
ATOM     13  C   UNL     1       6.502   3.455  12.793  0.00  0.00    +0.000 C 
BRANCH  13  14
ATOM     14  C   UNL     1       5.576   2.478  12.056  0.00  0.00    +0.000 C 
ATOM     15  C   UNL     1       4.447   3.224  11.338  0.00  0.00    +0.000 C 
ATOM     16  C   UNL     1       6.377   1.639  11.067  0.00  0.00    +0.000 C 
ENDBRANCH  13  14
ENDBRANCH  12  13
ENDBRANCH   5  12
ENDBRANCH   1   2
BRANCH   1  20
ATOM     17  C   UNL     1       2.268   7.536  19.426  0.00  0.00    +0.000 A 
ATOM     18  C   UNL     1       2.120   6.447  20.254  0.00  0.00    +0.000 A 
ATOM     19  N   UNL     1       2.978   5.396  20.003  0.00  0.00    +0.000 NA
ATOM     20  C   UNL     1       3.806   5.740  19.032  0.00  0.00    +0.000 A 
ATOM     21  S   UNL     1       3.444   7.201  18.225  0.00  0.00    +0.000 S 
BRANCH  17  23
ATOM     22  C   UNL     1       0.675   9.712  19.664  0.00  0.00    +0.000 C 
ATOM     23  C   UNL     1       1.528   8.742  19.487  0.00  0.00    +0.000 C 
BRANCH  22  24
ATOM     24  C   UNL     1      -0.320  10.841  19.872  0.00  0.00    +0.000 C 
ATOM     25  C   UNL     1      -0.644  10.968  21.359  0.00  0.00    +0.000 C 
BRANCH  24  29
ATOM     26  C   UNL     1      -3.199  11.159  17.456  0.00  0.00    +0.000 C 
ATOM     27  C   UNL     1      -1.906  11.520  18.132  0.00  0.00    +0.000 C 
ATOM     28  O   UNL     1      -1.273  12.531  17.847  0.00  0.00    +0.000 OA
ATOM     29  N   UNL     1      -1.506  10.608  19.082  0.00  0.00    +0.000 N 
ATOM     30  H   UNL     1      -2.125   9.855  19.344  0.00  0.00    +0.000 HD
ENDBRANCH  24  29
ENDBRANCH  22  24
ENDBRANCH  17  23
ENDBRANCH   1  20
TORSDOF 10
ENDMDL
MODEL 8
REMARK VINA RESULT:      -6.6      1.467      2.461
REMARK  Name = 
REMARK  14 active torsions:
REMARK  status: ('A' for Active; 'I' for Inactive)
REMARK    1  A    between atoms: C_1  and  C_2
REMARK    2  A    between atoms: N_4  and  C_5
REMARK    3  A    between atoms: C_5  and  C_6
REMARK    4  A    between atoms: C_5  and  C_7
REMARK    5  A    between atoms: C_8  and  C_9
REMARK    6  A    between atoms: C_12  and  O_13
REMARK    7  A    between atoms: O_13  and  C_14
REMARK    8  A    between atoms: C_17  and  O_18
REMARK    9  A    between atoms: O_18  and  C_19
REMARK   10  A    between atoms: C_19  and  C_20
REMARK   11  A    between atoms: C_20  and  C_21
REMARK   12  A    between atoms: C_20  and  C_22
REMARK   13  A    between atoms: C_24  and  C_25
REMARK   14  A    between atoms: N_26  and  O_27
REMARK                            x       y       z     vdW  Elec       q    Type
REMARK                         _______ _______ _______ _____ _____    ______ ____
ROOT
ATOM      1  O   UNL     1       4.827   6.086  18.448  0.00  0.00    +0.000 OA
ENDROOT
BRANCH   1   2
ATOM      2  C   UNL     1       5.022   5.408  17.260  0.00  0.00    +0.000 A 
ATOM      3  C   UNL     1       5.686   6.031  16.188  0.00  0.00    +0.000 A 
ATOM      4  C   UNL     1       6.092   5.298  15.085  0.00  0.00    +0.000 A 
ATOM      5  C   UNL     1       5.775   3.951  14.991  0.00  0.00    +0.000 A 
ATOM      6  C   UNL     1       5.018   3.343  15.995  0.00  0.00    +0.000 A 
ATOM      7  C   UNL     1       4.623   4.075  17.132  0.00  0.00    +0.000 A 
BRANCH   7   8
ATOM      8  C   UNL     1       3.913   3.303  18.177  0.00  0.00    +0.000 C 
ATOM      9  N   UNL     1       2.641   3.106  18.371  0.00  0.00    +0.000 NA
BRANCH   9  10
ATOM     10  O   UNL     1       1.843   3.657  17.370  0.00  0.00    +0.000 OA
ATOM     11  H   UNL     1       1.355   2.878  17.046  0.00  0.00    +0.000 HD
ENDBRANCH   9  10
ENDBRANCH   7   8
BRANCH   5  12
ATOM     12  O   UNL     1       6.329   3.329  13.913  0.00  0.00    +0.000 OA
BRANCH  12  13
ATOM     13  C   UNL     1       6.483   4.105  12.732  0.00  0.00    +0.000 C 
BRANCH  13  14
ATOM     14  C   UNL     1       5.878   3.304  11.571  0.00  0.00    +0.000 C 
ATOM     15  C   UNL     1       6.405   1.866  11.559  0.00  0.00    +0.000 C 
ATOM     16  C   UNL     1       4.357   3.317  11.660  0.00  0.00    +0.000 C 
ENDBRANCH  13  14
ENDBRANCH  12  13
ENDBRANCH   5  12
ENDBRANCH   1   2
BRANCH   1  20
ATOM     17  C   UNL     1       1.871   8.247  18.888  0.00  0.00    +0.000 A 
ATOM     18  C   UNL     1       1.942   7.321  19.903  0.00  0.00    +0.000 A 
ATOM     19  N   UNL     1       2.925   6.364  19.761  0.00  0.00    +0.000 NA
ATOM     20  C   UNL     1       3.626   6.628  18.672  0.00  0.00    +0.000 A 
ATOM     21  S   UNL     1       2.999   7.853  17.659  0.00  0.00    +0.000 S 
BRANCH  17  23
ATOM     22  C   UNL     1      -0.008  10.174  18.600  0.00  0.00    +0.000 C 
ATOM     23  C   UNL     1       0.968   9.335  18.806  0.00  0.00    +0.000 C 
BRANCH  22  24
ATOM     24  C   UNL     1      -1.146  11.152  18.359  0.00  0.00    +0.000 C 
ATOM     25  C   UNL     1      -2.009  10.654  17.203  0.00  0.00    +0.000 C 
BRANCH  24  29
ATOM     26  C   UNL     1      -0.046  14.746  18.668  0.00  0.00    +0.000 C 
ATOM     27  C   UNL     1      -0.546  13.402  19.119  0.00  0.00    +0.000 C 
ATOM     28  O   UNL     1      -0.848  13.169  20.284  0.00  0.00    +0.000 OA
ATOM     29  N   UNL     1      -0.620  12.472  18.107  0.00  0.00    +0.000 N 
ATOM     30  H   UNL     1      -0.460  12.758  17.152  0.00  0.00    +0.000 HD
ENDBRANCH  24  29
ENDBRANCH  22  24
ENDBRANCH  17  23
ENDBRANCH   1  20
TORSDOF 10
ENDMDL
MODEL 9
REMARK VINA RESULT:      -6.6      1.538      2.098
REMARK  Name = 
REMARK  14 active torsions:
REMARK  status: ('A' for Active; 'I' for Inactive)
REMARK    1  A    between atoms: C_1  and  C_2
REMARK    2  A    between atoms: N_4  and  C_5
REMARK    3  A    between atoms: C_5  and  C_6
REMARK    4  A    between atoms: C_5  and  C_7
REMARK    5  A    between atoms: C_8  and  C_9
REMARK    6  A    between atoms: C_12  and  O_13
REMARK    7  A    between atoms: O_13  and  C_14
REMARK    8  A    between atoms: C_17  and  O_18
REMARK    9  A    between atoms: O_18  and  C_19
REMARK   10  A    between atoms: C_19  and  C_20
REMARK   11  A    between atoms: C_20  and  C_21
REMARK   12  A    between atoms: C_20  and  C_22
REMARK   13  A    between atoms: C_24  and  C_25
REMARK   14  A    between atoms: N_26  and  O_27
REMARK                            x       y       z     vdW  Elec       q    Type
REMARK                         _______ _______ _______ _____ _____    ______ ____
ROOT
ATOM      1  O   UNL     1       4.404   5.218  18.733  0.00  0.00    +0.000 OA
ENDROOT
BRANCH   1   2
ATOM      2  C   UNL     1       5.033   4.664  17.635  0.00  0.00    +0.000 A 
ATOM      3  C   UNL     1       4.279   4.044  16.623  0.00  0.00    +0.000 A 
ATOM      4  C   UNL     1       4.865   3.694  15.418  0.00  0.00    +0.000 A 
ATOM      5  C   UNL     1       6.227   3.880  15.227  0.00  0.00    +0.000 A 
ATOM      6  C   UNL     1       7.011   4.391  16.264  0.00  0.00    +0.000 A 
ATOM      7  C   UNL     1       6.418   4.773  17.483  0.00  0.00    +0.000 A 
BRANCH   7   8
ATOM      8  C   UNL     1       7.328   5.395  18.472  0.00  0.00    +0.000 C 
ATOM      9  N   UNL     1       7.796   6.607  18.553  0.00  0.00    +0.000 NA
BRANCH   9  10
ATOM     10  O   UNL     1       7.274   7.460  17.582  0.00  0.00    +0.000 OA
ATOM     11  H   UNL     1       6.579   6.909  17.177  0.00  0.00    +0.000 HD
ENDBRANCH   9  10
ENDBRANCH   7   8
BRANCH   5  12
ATOM     12  O   UNL     1       6.649   3.598  13.962  0.00  0.00    +0.000 OA
BRANCH  12  13
ATOM     13  C   UNL     1       5.818   4.034  12.896  0.00  0.00    +0.000 C 
BRANCH  13  14
ATOM     14  C   UNL     1       5.413   2.793  12.088  0.00  0.00    +0.000 C 
ATOM     15  C   UNL     1       4.231   3.100  11.163  0.00  0.00    +0.000 C 
ATOM     16  C   UNL     1       6.601   2.276  11.287  0.00  0.00    +0.000 C 
ENDBRANCH  13  14
ENDBRANCH  12  13
ENDBRANCH   5  12
ENDBRANCH   1   2
BRANCH   1  20
ATOM     17  C   UNL     1       2.256   8.202  18.449  0.00  0.00    +0.000 A 
ATOM     18  C   UNL     1       3.267   8.251  17.518  0.00  0.00    +0.000 A 
ATOM     19  N   UNL     1       4.219   7.259  17.630  0.00  0.00    +0.000 NA
ATOM     20  C   UNL     1       3.869   6.436  18.603  0.00  0.00    +0.000 A 
ATOM     21  S   UNL     1       2.553   6.939  19.569  0.00  0.00    +0.000 S 
BRANCH  17  23
ATOM     22  C   UNL     1       0.302  10.075  18.527  0.00  0.00    +0.000 C 
ATOM     23  C   UNL     1       1.154   9.088  18.539  0.00  0.00    +0.000 C 
BRANCH  22  24
ATOM     24  C   UNL     1      -0.691  11.226  18.511  0.00  0.00    +0.000 C 
ATOM     25  C   UNL     1      -0.412  12.154  19.691  0.00  0.00    +0.000 C 
BRANCH  24  29
ATOM     26  C   UNL     1      -4.235  10.277  17.637  0.00  0.00    +0.000 C 
ATOM     27  C   UNL     1      -2.837  10.783  17.416  0.00  0.00    +0.000 C 
ATOM     28  O   UNL     1      -2.454  11.207  16.331  0.00  0.00    +0.000 OA
ATOM     29  N   UNL     1      -2.041  10.715  18.536  0.00  0.00    +0.000 N 
ATOM     30  H   UNL     1      -2.447  10.457  19.425  0.00  0.00    +0.000 HD
ENDBRANCH  24  29
ENDBRANCH  22  24
ENDBRANCH  17  23
ENDBRANCH   1  20
TORSDOF 10
ENDMDL
