MODEL 1
REMARK VINA RESULT:      -8.2      0.000      0.000
REMARK  Name = 
REMARK  8 active torsions:
REMARK  status: ('A' for Active; 'I' for Inactive)
REMARK    1  A    between atoms: C_1  and  O_2
REMARK    2  A    between atoms: O_2  and  C_3
REMARK    3  A    between atoms: C_6  and  C_7
REMARK    4  A    between atoms: C_7  and  SE_8
REMARK    5  A    between atoms: SE_8  and  C_9
REMARK    6  A    between atoms: C_9  and  C_10
REMARK    7  A    between atoms: C_9  and  C_16
REMARK    8  A    between atoms: C_10  and  N_11
REMARK                            x       y       z     vdW  Elec       q    Type
REMARK                         _______ _______ _______ _____ _____    ______ ____
ROOT
ATOM      1  C   UNL     1       4.886   4.010  18.455  0.00  0.00    +0.000 C 
ENDROOT
BRANCH   1   2
ATOM      2  C   UNL     1       5.544   4.228  17.073  0.00  0.00    +0.000 A 
ATOM      3  C   UNL     1       4.849   3.982  15.858  0.00  0.00    +0.000 A 
ATOM      4  C   UNL     1       5.432   4.242  14.618  0.00  0.00    +0.000 A 
ATOM      5  C   UNL     1       6.730   4.734  14.546  0.00  0.00    +0.000 A 
ATOM      6 CL   UNL     1       7.448   5.080  12.983  0.00  0.00    +0.000 Cl
ATOM      7  C   UNL     1       7.456   4.946  15.717  0.00  0.00    +0.000 A 
ATOM      8  C   UNL     1       6.884   4.691  16.972  0.00  0.00    +0.000 A 
ATOM      9 CL   UNL     1       7.907   4.966  18.379  0.00  0.00    +0.000 Cl
ENDBRANCH   1   2
BRANCH   1  10
ATOM     10 SE   UNL     1       4.355   5.763  19.234  0.00  0.00    +0.000 Se
BRANCH  10  11
ATOM     11  C   UNL     1       2.859   6.267  18.064  0.00  0.00    +0.000 C 
BRANCH  11  15
ATOM     12  C   UNL     1       0.989   9.824  19.700  0.00  0.00    +0.000 A 
ATOM     13  C   UNL     1       1.285   8.721  20.523  0.00  0.00    +0.000 A 
ATOM     14  C   UNL     1       1.896   7.585  19.989  0.00  0.00    +0.000 A 
ATOM     15  C   UNL     1       2.225   7.520  18.624  0.00  0.00    +0.000 A 
ATOM     16  C   UNL     1       1.943   8.628  17.805  0.00  0.00    +0.000 A 
ATOM     17  C   UNL     1       1.330   9.769  18.342  0.00  0.00    +0.000 A 
BRANCH  12  19
ATOM     18  C   UNL     1       0.118  12.087  19.444  0.00  0.00    +0.000 C 
ATOM     19  O   UNL     1       0.375  10.943  20.173  0.00  0.00    +0.000 OA
ENDBRANCH  12  19
ENDBRANCH  11  15
ENDBRANCH  10  11
ENDBRANCH   1  10
BRANCH   1  20
ATOM     20  C   UNL     1       3.680   3.031  18.438  0.00  0.00    +0.000 C 
BRANCH  20  21
ATOM     21  N   UNL     1       2.986   2.866  19.733  0.00  0.00    +0.000 N 
ATOM     22  C   UNL     1       1.659   2.997  19.906  0.00  0.00    +0.000 A 
ATOM     23  C   UNL     1       1.376   2.803  21.240  0.00  0.00    +0.000 A 
ATOM     24  N   UNL     1       2.518   2.549  21.903  0.00  0.00    +0.000 NA
ATOM     25  C   UNL     1       3.480   2.594  20.963  0.00  0.00    +0.000 A 
ENDBRANCH  20  21
ENDBRANCH   1  20
TORSDOF 7
ENDMDL
MODEL 2
REMARK VINA RESULT:      -7.9      0.873      1.422
REMARK  Name = 
REMARK  8 active torsions:
REMARK  status: ('A' for Active; 'I' for Inactive)
REMARK    1  A    between atoms: C_1  and  O_2
REMARK    2  A    between atoms: O_2  and  C_3
REMARK    3  A    between atoms: C_6  and  C_7
REMARK    4  A    between atoms: C_7  and  SE_8
REMARK    5  A    between atoms: SE_8  and  C_9
REMARK    6  A    between atoms: C_9  and  C_10
REMARK    7  A    between atoms: C_9  and  C_16
REMARK    8  A    between atoms: C_10  and  N_11
REMARK                            x       y       z     vdW  Elec       q    Type
REMARK                         _______ _______ _______ _____ _____    ______ ____
ROOT
ATOM      1  C   UNL     1       4.346   4.380  18.088  0.00  0.00    +0.000 C 
ENDROOT
BRANCH   1   2
ATOM      2  C   UNL     1       5.252   4.505  16.841  0.00  0.00    +0.000 A 
ATOM      3  C   UNL     1       4.843   4.044  15.560  0.00  0.00    +0.000 A 
ATOM      4  C   UNL     1       5.643   4.220  14.432  0.00  0.00    +0.000 A 
ATOM      5  C   UNL     1       6.883   4.840  14.543  0.00  0.00    +0.000 A 
ATOM      6 CL   UNL     1       7.873   5.077  13.115  0.00  0.00    +0.000 Cl
ATOM      7  C   UNL     1       7.334   5.265  15.792  0.00  0.00    +0.000 A 
ATOM      8  C   UNL     1       6.541   5.098  16.937  0.00  0.00    +0.000 A 
ATOM      9 CL   UNL     1       7.227   5.646  18.463  0.00  0.00    +0.000 Cl
ENDBRANCH   1   2
BRANCH   1  10
ATOM     10 SE   UNL     1       2.770   5.581  17.901  0.00  0.00    +0.000 Se
BRANCH  10  11
ATOM     11  C   UNL     1       2.689   6.391  19.689  0.00  0.00    +0.000 C 
BRANCH  11  15
ATOM     12  C   UNL     1       0.832  10.294  19.302  0.00  0.00    +0.000 A 
ATOM     13  C   UNL     1       1.490   9.696  18.210  0.00  0.00    +0.000 A 
ATOM     14  C   UNL     1       2.076   8.436  18.342  0.00  0.00    +0.000 A 
ATOM     15  C   UNL     1       2.021   7.742  19.563  0.00  0.00    +0.000 A 
ATOM     16  C   UNL     1       1.350   8.332  20.649  0.00  0.00    +0.000 A 
ATOM     17  C   UNL     1       0.762   9.598  20.515  0.00  0.00    +0.000 A 
BRANCH  12  19
ATOM     18  C   UNL     1      -0.890  11.841  18.537  0.00  0.00    +0.000 C 
ATOM     19  O   UNL     1       0.266  11.530  19.225  0.00  0.00    +0.000 OA
ENDBRANCH  12  19
ENDBRANCH  11  15
ENDBRANCH  10  11
ENDBRANCH   1  10
BRANCH   1  20
ATOM     20  C   UNL     1       3.893   2.927  18.401  0.00  0.00    +0.000 C 
BRANCH  20  21
ATOM     21  N   UNL     1       2.991   2.787  19.564  0.00  0.00    +0.000 N 
ATOM     22  C   UNL     1       3.397   2.792  20.845  0.00  0.00    +0.000 A 
ATOM     23  C   UNL     1       2.294   2.612  21.650  0.00  0.00    +0.000 A 
ATOM     24  N   UNL     1       1.198   2.496  20.879  0.00  0.00    +0.000 NA
ATOM     25  C   UNL     1       1.651   2.605  19.616  0.00  0.00    +0.000 A 
ENDBRANCH  20  21
ENDBRANCH   1  20
TORSDOF 7
ENDMDL
MODEL 3
REMARK VINA RESULT:      -7.9      1.003      1.450
REMARK  Name = 
REMARK  8 active torsions:
REMARK  status: ('A' for Active; 'I' for Inactive)
REMARK    1  A    between atoms: C_1  and  O_2
REMARK    2  A    between atoms: O_2  and  C_3
REMARK    3  A    between atoms: C_6  and  C_7
REMARK    4  A    between atoms: C_7  and  SE_8
REMARK    5  A    between atoms: SE_8  and  C_9
REMARK    6  A    between atoms: C_9  and  C_10
REMARK    7  A    between atoms: C_9  and  C_16
REMARK    8  A    between atoms: C_10  and  N_11
REMARK                            x       y       z     vdW  Elec       q    Type
REMARK                         _______ _______ _______ _____ _____    ______ ____
ROOT
ATOM      1  C   UNL     1       4.198   4.347  18.155  0.00  0.00    +0.000 C 
ENDROOT
BRANCH   1   2
ATOM      2  C   UNL     1       5.142   4.502  16.940  0.00  0.00    +0.000 A 
ATOM      3  C   UNL     1       4.841   3.937  15.671  0.00  0.00    +0.000 A 
ATOM      4  C   UNL     1       5.669   4.137  14.568  0.00  0.00    +0.000 A 
ATOM      5  C   UNL     1       6.832   4.888  14.694  0.00  0.00    +0.000 A 
ATOM      6 CL   UNL     1       7.857   5.154  13.295  0.00  0.00    +0.000 Cl
ATOM      7  C   UNL     1       7.181   5.420  15.934  0.00  0.00    +0.000 A 
ATOM      8  C   UNL     1       6.359   5.230  17.054  0.00  0.00    +0.000 A 
ATOM      9 CL   UNL     1       6.916   5.923  18.574  0.00  0.00    +0.000 Cl
ENDBRANCH   1   2
BRANCH   1  10
ATOM     10 SE   UNL     1       2.531   5.391  17.853  0.00  0.00    +0.000 Se
BRANCH  10  11
ATOM     11  C   UNL     1       3.199   7.233  17.992  0.00  0.00    +0.000 C 
BRANCH  11  15
ATOM     12  C   UNL     1       0.441   9.561  20.401  0.00  0.00    +0.000 A 
ATOM     13  C   UNL     1       0.709   9.916  19.064  0.00  0.00    +0.000 A 
ATOM     14  C   UNL     1       1.590   9.154  18.295  0.00  0.00    +0.000 A 
ATOM     15  C   UNL     1       2.225   8.024  18.837  0.00  0.00    +0.000 A 
ATOM     16  C   UNL     1       1.946   7.660  20.167  0.00  0.00    +0.000 A 
ATOM     17  C   UNL     1       1.060   8.426  20.939  0.00  0.00    +0.000 A 
BRANCH  12  19
ATOM     18  C   UNL     1      -0.485  10.186  22.568  0.00  0.00    +0.000 C 
ATOM     19  O   UNL     1      -0.394  10.287  21.194  0.00  0.00    +0.000 OA
ENDBRANCH  12  19
ENDBRANCH  11  15
ENDBRANCH  10  11
ENDBRANCH   1  10
BRANCH   1  20
ATOM     20  C   UNL     1       3.864   2.873  18.516  0.00  0.00    +0.000 C 
BRANCH  20  21
ATOM     21  N   UNL     1       3.130   2.688  19.786  0.00  0.00    +0.000 N 
ATOM     22  C   UNL     1       1.797   2.541  19.879  0.00  0.00    +0.000 A 
ATOM     23  C   UNL     1       1.467   2.422  21.210  0.00  0.00    +0.000 A 
ATOM     24  N   UNL     1       2.587   2.491  21.953  0.00  0.00    +0.000 NA
ATOM     25  C   UNL     1       3.582   2.653  21.061  0.00  0.00    +0.000 A 
ENDBRANCH  20  21
ENDBRANCH   1  20
TORSDOF 7
ENDMDL
MODEL 4
REMARK VINA RESULT:      -7.9      2.991      5.366
REMARK  Name = 
REMARK  8 active torsions:
REMARK  status: ('A' for Active; 'I' for Inactive)
REMARK    1  A    between atoms: C_1  and  O_2
REMARK    2  A    between atoms: O_2  and  C_3
REMARK    3  A    between atoms: C_6  and  C_7
REMARK    4  A    between atoms: C_7  and  SE_8
REMARK    5  A    between atoms: SE_8  and  C_9
REMARK    6  A    between atoms: C_9  and  C_10
REMARK    7  A    between atoms: C_9  and  C_16
REMARK    8  A    between atoms: C_10  and  N_11
REMARK                            x       y       z     vdW  Elec       q    Type
REMARK                         _______ _______ _______ _____ _____    ______ ____
ROOT
ATOM      1  C   UNL     1       4.325   4.606  17.565  0.00  0.00    +0.000 C 
ENDROOT
BRANCH   1   2
ATOM      2  C   UNL     1       3.518   3.949  18.709  0.00  0.00    +0.000 A 
ATOM      3  C   UNL     1       4.151   3.291  19.799  0.00  0.00    +0.000 A 
ATOM      4  C   UNL     1       3.415   2.757  20.856  0.00  0.00    +0.000 A 
ATOM      5  C   UNL     1       2.027   2.842  20.854  0.00  0.00    +0.000 A 
ATOM      6 CL   UNL     1       1.109   2.188  22.199  0.00  0.00    +0.000 Cl
ATOM      7  C   UNL     1       1.372   3.441  19.780  0.00  0.00    +0.000 A 
ATOM      8  C   UNL     1       2.097   3.985  18.709  0.00  0.00    +0.000 A 
ATOM      9 CL   UNL     1       1.161   4.690  17.394  0.00  0.00    +0.000 Cl
ENDBRANCH   1   2
BRANCH   1  10
ATOM     10 SE   UNL     1       4.784   6.480  18.053  0.00  0.00    +0.000 Se
BRANCH  10  11
ATOM     11  C   UNL     1       3.316   7.471  17.203  0.00  0.00    +0.000 C 
BRANCH  11  15
ATOM     12  C   UNL     1       0.808   9.104  20.345  0.00  0.00    +0.000 A 
ATOM     13  C   UNL     1       1.570   7.939  20.561  0.00  0.00    +0.000 A 
ATOM     14  C   UNL     1       2.381   7.427  19.547  0.00  0.00    +0.000 A 
ATOM     15  C   UNL     1       2.453   8.062  18.295  0.00  0.00    +0.000 A 
ATOM     16  C   UNL     1       1.705   9.234  18.084  0.00  0.00    +0.000 A 
ATOM     17  C   UNL     1       0.890   9.747  19.103  0.00  0.00    +0.000 A 
BRANCH  12  19
ATOM     18  C   UNL     1       0.005  10.932  21.744  0.00  0.00    +0.000 C 
ATOM     19  O   UNL     1      -0.012   9.625  21.298  0.00  0.00    +0.000 OA
ENDBRANCH  12  19
ENDBRANCH  11  15
ENDBRANCH  10  11
ENDBRANCH   1  10
BRANCH   1  20
ATOM     20  C   UNL     1       5.600   3.820  17.153  0.00  0.00    +0.000 C 
BRANCH  20  21
ATOM     21  N   UNL     1       6.230   4.261  15.890  0.00  0.00    +0.000 N 
ATOM     22  C   UNL     1       5.832   3.872  14.666  0.00  0.00    +0.000 A 
ATOM     23  C   UNL     1       6.662   4.457  13.736  0.00  0.00    +0.000 A 
ATOM     24  N   UNL     1       7.577   5.213  14.371  0.00  0.00    +0.000 NA
ATOM     25  C   UNL     1       7.290   5.075  15.679  0.00  0.00    +0.000 A 
ENDBRANCH  20  21
ENDBRANCH   1  20
TORSDOF 7
ENDMDL
MODEL 5
REMARK VINA RESULT:      -7.8      0.986      1.463
REMARK  Name = 
REMARK  8 active torsions:
REMARK  status: ('A' for Active; 'I' for Inactive)
REMARK    1  A    between atoms: C_1  and  O_2
REMARK    2  A    between atoms: O_2  and  C_3
REMARK    3  A    between atoms: C_6  and  C_7
REMARK    4  A    between atoms: C_7  and  SE_8
REMARK    5  A    between atoms: SE_8  and  C_9
REMARK    6  A    between atoms: C_9  and  C_10
REMARK    7  A    between atoms: C_9  and  C_16
REMARK    8  A    between atoms: C_10  and  N_11
REMARK                            x       y       z     vdW  Elec       q    Type
REMARK                         _______ _______ _______ _____ _____    ______ ____
ROOT
ATOM      1  C   UNL     1       3.967   4.757  18.208  0.00  0.00    +0.000 C 
ENDROOT
BRANCH   1   2
ATOM      2  C   UNL     1       4.947   4.773  17.011  0.00  0.00    +0.000 A 
ATOM      3  C   UNL     1       4.589   4.262  15.734  0.00  0.00    +0.000 A 
ATOM      4  C   UNL     1       5.458   4.339  14.648  0.00  0.00    +0.000 A 
ATOM      5  C   UNL     1       6.719   4.907  14.799  0.00  0.00    +0.000 A 
ATOM      6 CL   UNL     1       7.798   5.020  13.421  0.00  0.00    +0.000 Cl
ATOM      7  C   UNL     1       7.119   5.378  16.049  0.00  0.00    +0.000 A 
ATOM      8  C   UNL     1       6.256   5.310  17.152  0.00  0.00    +0.000 A 
ATOM      9 CL   UNL     1       6.881   5.909  18.686  0.00  0.00    +0.000 Cl
ENDBRANCH   1   2
BRANCH   1  10
ATOM     10 SE   UNL     1       2.787   6.358  18.135  0.00  0.00    +0.000 Se
BRANCH  10  11
ATOM     11  C   UNL     1       2.386   6.629  20.039  0.00  0.00    +0.000 C 
BRANCH  11  15
ATOM     12  C   UNL     1       0.429  10.481  20.440  0.00  0.00    +0.000 A 
ATOM     13  C   UNL     1       1.010  10.090  19.218  0.00  0.00    +0.000 A 
ATOM     14  C   UNL     1       1.628   8.844  19.096  0.00  0.00    +0.000 A 
ATOM     15  C   UNL     1       1.684   7.960  20.187  0.00  0.00    +0.000 A 
ATOM     16  C   UNL     1       1.090   8.344  21.403  0.00  0.00    +0.000 A 
ATOM     17  C   UNL     1       0.469   9.595  21.524  0.00  0.00    +0.000 A 
BRANCH  12  19
ATOM     18  C   UNL     1       0.493  12.905  20.692  0.00  0.00    +0.000 C 
ATOM     19  O   UNL     1      -0.165  11.694  20.609  0.00  0.00    +0.000 OA
ENDBRANCH  12  19
ENDBRANCH  11  15
ENDBRANCH  10  11
ENDBRANCH   1  10
BRANCH   1  20
ATOM     20  C   UNL     1       3.122   3.459  18.320  0.00  0.00    +0.000 C 
BRANCH  20  21
ATOM     21  N   UNL     1       2.708   3.095  19.693  0.00  0.00    +0.000 N 
ATOM     22  C   UNL     1       1.432   3.049  20.114  0.00  0.00    +0.000 A 
ATOM     23  C   UNL     1       1.430   2.703  21.447  0.00  0.00    +0.000 A 
ATOM     24  N   UNL     1       2.698   2.529  21.862  0.00  0.00    +0.000 NA
ATOM     25  C   UNL     1       3.454   2.774  20.776  0.00  0.00    +0.000 A 
ENDBRANCH  20  21
ENDBRANCH   1  20
TORSDOF 7
ENDMDL
MODEL 6
REMARK VINA RESULT:      -7.7      1.091      1.361
REMARK  Name = 
REMARK  8 active torsions:
REMARK  status: ('A' for Active; 'I' for Inactive)
REMARK    1  A    between atoms: C_1  and  O_2
REMARK    2  A    between atoms: O_2  and  C_3
REMARK    3  A    between atoms: C_6  and  C_7
REMARK    4  A    between atoms: C_7  and  SE_8
REMARK    5  A    between atoms: SE_8  and  C_9
REMARK    6  A    between atoms: C_9  and  C_10
REMARK    7  A    between atoms: C_9  and  C_16
REMARK    8  A    between atoms: C_10  and  N_11
REMARK                            x       y       z     vdW  Elec       q    Type
REMARK                         _______ _______ _______ _____ _____    ______ ____
ROOT
ATOM      1  C   UNL     1       3.975   4.902  18.058  0.00  0.00    +0.000 C 
ENDROOT
BRANCH   1   2
ATOM      2  C   UNL     1       4.978   4.882  16.881  0.00  0.00    +0.000 A 
ATOM      3  C   UNL     1       4.627   4.383  15.597  0.00  0.00    +0.000 A 
ATOM      4  C   UNL     1       5.520   4.429  14.528  0.00  0.00    +0.000 A 
ATOM      5  C   UNL     1       6.796   4.953  14.704  0.00  0.00    +0.000 A 
ATOM      6 CL   UNL     1       7.906   5.028  13.347  0.00  0.00    +0.000 Cl
ATOM      7  C   UNL     1       7.188   5.410  15.961  0.00  0.00    +0.000 A 
ATOM      8  C   UNL     1       6.302   5.374  17.047  0.00  0.00    +0.000 A 
ATOM      9 CL   UNL     1       6.918   5.951  18.593  0.00  0.00    +0.000 Cl
ENDBRANCH   1   2
BRANCH   1  10
ATOM     10 SE   UNL     1       2.973   6.621  18.063  0.00  0.00    +0.000 Se
BRANCH  10  11
ATOM     11  C   UNL     1       2.471   6.770  19.957  0.00  0.00    +0.000 C 
BRANCH  11  15
ATOM     12  C   UNL     1      -0.030  10.281  20.452  0.00  0.00    +0.000 A 
ATOM     13  C   UNL     1       0.130   9.354  21.501  0.00  0.00    +0.000 A 
ATOM     14  C   UNL     1       0.945   8.233  21.334  0.00  0.00    +0.000 A 
ATOM     15  C   UNL     1       1.618   8.007  20.121  0.00  0.00    +0.000 A 
ATOM     16  C   UNL     1       1.471   8.940  19.079  0.00  0.00    +0.000 A 
ATOM     17  C   UNL     1       0.652  10.066  19.247  0.00  0.00    +0.000 A 
BRANCH  12  19
ATOM     18  C   UNL     1      -0.478  12.666  20.223  0.00  0.00    +0.000 C 
ATOM     19  O   UNL     1      -0.832  11.375  20.562  0.00  0.00    +0.000 OA
ENDBRANCH  12  19
ENDBRANCH  11  15
ENDBRANCH  10  11
ENDBRANCH   1  10
BRANCH   1  20
ATOM     20  C   UNL     1       2.995   3.697  18.078  0.00  0.00    +0.000 C 
BRANCH  20  21
ATOM     21  N   UNL     1       2.479   3.328  19.413  0.00  0.00    +0.000 N 
ATOM     22  C   UNL     1       3.251   2.965  20.452  0.00  0.00    +0.000 A 
ATOM     23  C   UNL     1       2.430   2.668  21.517  0.00  0.00    +0.000 A 
ATOM     24  N   UNL     1       1.147   2.844  21.152  0.00  0.00    +0.000 NA
ATOM     25  C   UNL     1       1.207   3.245  19.868  0.00  0.00    +0.000 A 
ENDBRANCH  20  21
ENDBRANCH   1  20
TORSDOF 7
ENDMDL
MODEL 7
REMARK VINA RESULT:      -7.3      1.154      1.429
REMARK  Name = 
REMARK  8 active torsions:
REMARK  status: ('A' for Active; 'I' for Inactive)
REMARK    1  A    between atoms: C_1  and  O_2
REMARK    2  A    between atoms: O_2  and  C_3
REMARK    3  A    between atoms: C_6  and  C_7
REMARK    4  A    between atoms: C_7  and  SE_8
REMARK    5  A    between atoms: SE_8  and  C_9
REMARK    6  A    between atoms: C_9  and  C_10
REMARK    7  A    between atoms: C_9  and  C_16
REMARK    8  A    between atoms: C_10  and  N_11
REMARK                            x       y       z     vdW  Elec       q    Type
REMARK                         _______ _______ _______ _____ _____    ______ ____
ROOT
ATOM      1  C   UNL     1       4.629   4.907  18.326  0.00  0.00    +0.000 C 
ENDROOT
BRANCH   1   2
ATOM      2  C   UNL     1       5.413   4.855  16.994  0.00  0.00    +0.000 A 
ATOM      3  C   UNL     1       4.922   4.162  15.855  0.00  0.00    +0.000 A 
ATOM      4  C   UNL     1       5.609   4.176  14.641  0.00  0.00    +0.000 A 
ATOM      5  C   UNL     1       6.813   4.860  14.526  0.00  0.00    +0.000 A 
ATOM      6 CL   UNL     1       7.659   4.891  12.990  0.00  0.00    +0.000 Cl
ATOM      7  C   UNL     1       7.345   5.514  15.637  0.00  0.00    +0.000 A 
ATOM      8  C   UNL     1       6.668   5.513  16.865  0.00  0.00    +0.000 A 
ATOM      9 CL   UNL     1       7.451   6.346  18.204  0.00  0.00    +0.000 Cl
ENDBRANCH   1   2
BRANCH   1  10
ATOM     10 SE   UNL     1       2.915   5.883  18.063  0.00  0.00    +0.000 Se
BRANCH  10  11
ATOM     11  C   UNL     1       2.627   6.646  19.851  0.00  0.00    +0.000 C 
BRANCH  11  15
ATOM     12  C   UNL     1       0.467  10.384  19.415  0.00  0.00    +0.000 A 
ATOM     13  C   UNL     1       0.489   9.702  20.648  0.00  0.00    +0.000 A 
ATOM     14  C   UNL     1       1.195   8.505  20.780  0.00  0.00    +0.000 A 
ATOM     15  C   UNL     1       1.894   7.959  19.690  0.00  0.00    +0.000 A 
ATOM     16  C   UNL     1       1.885   8.648  18.464  0.00  0.00    +0.000 A 
ATOM     17  C   UNL     1       1.176   9.850  18.332  0.00  0.00    +0.000 A 
BRANCH  12  19
ATOM     18  C   UNL     1      -0.851  12.265  20.232  0.00  0.00    +0.000 C 
ATOM     19  O   UNL     1      -0.226  11.542  19.236  0.00  0.00    +0.000 OA
ENDBRANCH  12  19
ENDBRANCH  11  15
ENDBRANCH  10  11
ENDBRANCH   1  10
BRANCH   1  20
ATOM     20  C   UNL     1       4.373   3.516  18.968  0.00  0.00    +0.000 C 
BRANCH  20  21
ATOM     21  N   UNL     1       2.962   3.075  18.971  0.00  0.00    +0.000 N 
ATOM     22  C   UNL     1       2.178   3.043  20.062  0.00  0.00    +0.000 A 
ATOM     23  C   UNL     1       0.944   2.555  19.694  0.00  0.00    +0.000 A 
ATOM     24  N   UNL     1       0.950   2.282  18.377  0.00  0.00    +0.000 NA
ATOM     25  C   UNL     1       2.189   2.607  17.963  0.00  0.00    +0.000 A 
ENDBRANCH  20  21
ENDBRANCH   1  20
TORSDOF 7
ENDMDL
MODEL 8
REMARK VINA RESULT:      -7.3      1.086      1.244
REMARK  Name = 
REMARK  8 active torsions:
REMARK  status: ('A' for Active; 'I' for Inactive)
REMARK    1  A    between atoms: C_1  and  O_2
REMARK    2  A    between atoms: O_2  and  C_3
REMARK    3  A    between atoms: C_6  and  C_7
REMARK    4  A    between atoms: C_7  and  SE_8
REMARK    5  A    between atoms: SE_8  and  C_9
REMARK    6  A    between atoms: C_9  and  C_10
REMARK    7  A    between atoms: C_9  and  C_16
REMARK    8  A    between atoms: C_10  and  N_11
REMARK                            x       y       z     vdW  Elec       q    Type
REMARK                         _______ _______ _______ _____ _____    ______ ____
ROOT
ATOM      1  C   UNL     1       4.725   5.204  18.518  0.00  0.00    +0.000 C 
ENDROOT
BRANCH   1   2
ATOM      2  C   UNL     1       5.410   5.041  17.141  0.00  0.00    +0.000 A 
ATOM      3  C   UNL     1       4.848   4.242  16.108  0.00  0.00    +0.000 A 
ATOM      4  C   UNL     1       5.443   4.153  14.850  0.00  0.00    +0.000 A 
ATOM      5  C   UNL     1       6.624   4.837  14.584  0.00  0.00    +0.000 A 
ATOM      6 CL   UNL     1       7.353   4.738  12.992  0.00  0.00    +0.000 Cl
ATOM      7  C   UNL     1       7.225   5.594  15.588  0.00  0.00    +0.000 A 
ATOM      8  C   UNL     1       6.640   5.697  16.859  0.00  0.00    +0.000 A 
ATOM      9 CL   UNL     1       7.505   6.656  18.056  0.00  0.00    +0.000 Cl
ENDBRANCH   1   2
BRANCH   1  10
ATOM     10 SE   UNL     1       2.842   5.798  18.269  0.00  0.00    +0.000 Se
BRANCH  10  11
ATOM     11  C   UNL     1       3.095   7.678  17.757  0.00  0.00    +0.000 C 
BRANCH  11  15
ATOM     12  C   UNL     1       0.172  10.012  19.956  0.00  0.00    +0.000 A 
ATOM     13  C   UNL     1       0.864   8.953  20.575  0.00  0.00    +0.000 A 
ATOM     14  C   UNL     1       1.810   8.215  19.861  0.00  0.00    +0.000 A 
ATOM     15  C   UNL     1       2.087   8.512  18.516  0.00  0.00    +0.000 A 
ATOM     16  C   UNL     1       1.408   9.580  17.903  0.00  0.00    +0.000 A 
ATOM     17  C   UNL     1       0.459  10.321  18.620  0.00  0.00    +0.000 A 
BRANCH  12  19
ATOM     18  C   UNL     1      -1.515  11.770  20.054  0.00  0.00    +0.000 C 
ATOM     19  O   UNL     1      -0.773  10.745  20.607  0.00  0.00    +0.000 OA
ENDBRANCH  12  19
ENDBRANCH  11  15
ENDBRANCH  10  11
ENDBRANCH   1  10
BRANCH   1  20
ATOM     20  C   UNL     1       4.786   3.936  19.412  0.00  0.00    +0.000 C 
BRANCH  20  21
ATOM     21  N   UNL     1       3.499   3.229  19.588  0.00  0.00    +0.000 N 
ATOM     22  C   UNL     1       2.951   2.409  18.674  0.00  0.00    +0.000 A 
ATOM     23  C   UNL     1       1.747   1.957  19.166  0.00  0.00    +0.000 A 
ATOM     24  N   UNL     1       1.538   2.487  20.385  0.00  0.00    +0.000 NA
ATOM     25  C   UNL     1       2.618   3.256  20.616  0.00  0.00    +0.000 A 
ENDBRANCH  20  21
ENDBRANCH   1  20
TORSDOF 7
ENDMDL
MODEL 9
REMARK VINA RESULT:      -7.1      1.857      2.400
REMARK  Name = 
REMARK  8 active torsions:
REMARK  status: ('A' for Active; 'I' for Inactive)
REMARK    1  A    between atoms: C_1  and  O_2
REMARK    2  A    between atoms: O_2  and  C_3
REMARK    3  A    between atoms: C_6  and  C_7
REMARK    4  A    between atoms: C_7  and  SE_8
REMARK    5  A    between atoms: SE_8  and  C_9
REMARK    6  A    between atoms: C_9  and  C_10
REMARK    7  A    between atoms: C_9  and  C_16
REMARK    8  A    between atoms: C_10  and  N_11
REMARK                            x       y       z     vdW  Elec       q    Type
REMARK                         _______ _______ _______ _____ _____    ______ ____
ROOT
ATOM      1  C   UNL     1       3.142   5.670  18.477  0.00  0.00    +0.000 C 
ENDROOT
BRANCH   1   2
ATOM      2  C   UNL     1       4.090   5.488  17.269  0.00  0.00    +0.000 A 
ATOM      3  C   UNL     1       4.557   6.589  16.502  0.00  0.00    +0.000 A 
ATOM      4  C   UNL     1       5.461   6.417  15.455  0.00  0.00    +0.000 A 
ATOM      5  C   UNL     1       5.914   5.145  15.123  0.00  0.00    +0.000 A 
ATOM      6 CL   UNL     1       7.069   4.940  13.819  0.00  0.00    +0.000 Cl
ATOM      7  C   UNL     1       5.442   4.038  15.827  0.00  0.00    +0.000 A 
ATOM      8  C   UNL     1       4.534   4.193  16.884  0.00  0.00    +0.000 A 
ATOM      9 CL   UNL     1       3.985   2.721  17.680  0.00  0.00    +0.000 Cl
ENDBRANCH   1   2
BRANCH   1  10
ATOM     10 SE   UNL     1       2.484   7.548  18.542  0.00  0.00    +0.000 Se
BRANCH  10  11
ATOM     11  C   UNL     1       1.946   7.703  20.425  0.00  0.00    +0.000 C 
BRANCH  11  15
ATOM     12  C   UNL     1      -0.745  11.084  20.827  0.00  0.00    +0.000 A 
ATOM     13  C   UNL     1      -0.406  10.294  21.943  0.00  0.00    +0.000 A 
ATOM     14  C   UNL     1       0.469   9.215  21.804  0.00  0.00    +0.000 A 
ATOM     15  C   UNL     1       1.025   8.896  20.554  0.00  0.00    +0.000 A 
ATOM     16  C   UNL     1       0.699   9.694  19.443  0.00  0.00    +0.000 A 
ATOM     17  C   UNL     1      -0.179  10.778  19.582  0.00  0.00    +0.000 A 
BRANCH  12  19
ATOM     18  C   UNL     1      -2.164  12.803  19.839  0.00  0.00    +0.000 C 
ATOM     19  O   UNL     1      -1.609  12.132  20.911  0.00  0.00    +0.000 OA
ENDBRANCH  12  19
ENDBRANCH  11  15
ENDBRANCH  10  11
ENDBRANCH   1  10
BRANCH   1  20
ATOM     20  C   UNL     1       1.951   4.672  18.507  0.00  0.00    +0.000 C 
BRANCH  20  21
ATOM     21  N   UNL     1       1.780   3.936  19.778  0.00  0.00    +0.000 N 
ATOM     22  C   UNL     1       2.554   4.106  20.864  0.00  0.00    +0.000 A 
ATOM     23  C   UNL     1       2.122   3.238  21.842  0.00  0.00    +0.000 A 
ATOM     24  N   UNL     1       1.080   2.527  21.376  0.00  0.00    +0.000 NA
ATOM     25  C   UNL     1       0.894   2.971  20.119  0.00  0.00    +0.000 A 
ENDBRANCH  20  21
ENDBRANCH   1  20
TORSDOF 7
ENDMDL
