MODEL 1
REMARK VINA RESULT:      -7.3      0.000      0.000
REMARK  Name = 
REMARK  3 active torsions:
REMARK  status: ('A' for Active; 'I' for Inactive)
REMARK    1  A    between atoms: C_1  and  C_2
REMARK    2  A    between atoms: C_10  and  C_11
REMARK    3  A    between atoms: C_11  and  O_12
REMARK                            x       y       z     vdW  Elec       q    Type
REMARK                         _______ _______ _______ _____ _____    ______ ____
ROOT
ATOM      1  C   UNL     1      -0.871  10.180  18.298  0.00  0.00    +0.000 C 
ATOM      2  C   UNL     1      -2.336  10.379  17.927  0.00  0.00    +0.000 C 
ATOM      3  C   UNL     1      -2.473  10.337  16.380  0.00  0.00    +0.000 C 
ATOM      4  O   UNL     1      -3.850  10.392  15.963  0.00  0.00    +0.000 OA
ATOM      5  C   UNL     1      -4.461  11.604  16.426  0.00  0.00    +0.000 C 
ATOM      6  C   UNL     1      -4.389  11.709  17.955  0.00  0.00    +0.000 C 
ATOM      7  N   UNL     1      -2.977  11.643  18.397  0.00  0.00    +0.000 N 
ATOM      8  C   UNL     1      -2.670  12.119  19.676  0.00  0.00    +0.000 A 
ATOM      9  C   UNL     1      -3.680  12.314  20.624  0.00  0.00    +0.000 A 
ATOM     10  C   UNL     1      -3.457  12.827  21.917  0.00  0.00    +0.000 A 
ATOM     11  C   UNL     1      -2.106  13.124  22.185  0.00  0.00    +0.000 A 
ATOM     12  C   UNL     1      -1.364  13.585  23.288  0.00  0.00    +0.000 A 
ATOM     13  N   UNL     1      -0.068  13.730  23.032  0.00  0.00    +0.000 NA
ATOM     14  N   UNL     1       0.058  13.425  21.699  0.00  0.00    +0.000 N 
ATOM     15  C   UNL     1       1.294  13.635  20.989  0.00  0.00    +0.000 A 
ATOM     16  C   UNL     1       1.566  13.462  19.616  0.00  0.00    +0.000 A 
ATOM     17  C   UNL     1       2.871  13.877  19.463  0.00  0.00    +0.000 A 
ATOM     18  N   UNL     1       3.302  14.247  20.705  0.00  0.00    +0.000 N 
ATOM     19  N   UNL     1       2.365  14.107  21.652  0.00  0.00    +0.000 NA
ATOM     20  C   UNL     1      -1.159  12.956  21.180  0.00  0.00    +0.000 A 
ATOM     21  N   UNL     1      -1.397  12.469  19.937  0.00  0.00    +0.000 NA
ATOM     22  H   UNL     1       4.210  14.609  20.977  0.00  0.00    +0.000 HD
ENDROOT
BRANCH  10  23
ATOM     23  C   UNL     1      -4.643  13.073  22.864  0.00  0.00    +0.000 C 
ATOM     24  C   UNL     1      -4.547  14.502  23.464  0.00  0.00    +0.000 C 
ATOM     25  C   UNL     1      -5.595  15.477  22.919  0.00  0.00    +0.000 C 
ATOM     26  C   UNL     1      -6.932  15.370  23.650  0.00  0.00    +0.000 C 
ATOM     27  C   UNL     1      -7.773  14.467  22.768  0.00  0.00    +0.000 C 
ATOM     28  C   UNL     1      -6.789  13.981  21.720  0.00  0.00    +0.000 C 
ATOM     29  C   UNL     1      -6.006  12.749  22.197  0.00  0.00    +0.000 C 
ATOM     30  O   UNL     1      -5.897  15.093  21.570  0.00  0.00    +0.000 OA
BRANCH  23  31
ATOM     31  O   UNL     1      -4.504  12.140  23.949  0.00  0.00    +0.000 OA
ATOM     32  H   UNL     1      -4.723  12.602  24.775  0.00  0.00    +0.000 HD
ENDBRANCH  23  31
ENDBRANCH  10  23
TORSDOF 2
ENDMDL
MODEL 2
REMARK VINA RESULT:      -7.3      1.178      1.749
REMARK  Name = 
REMARK  3 active torsions:
REMARK  status: ('A' for Active; 'I' for Inactive)
REMARK    1  A    between atoms: C_1  and  C_2
REMARK    2  A    between atoms: C_10  and  C_11
REMARK    3  A    between atoms: C_11  and  O_12
REMARK                            x       y       z     vdW  Elec       q    Type
REMARK                         _______ _______ _______ _____ _____    ______ ____
ROOT
ATOM      1  C   UNL     1      -0.368  10.282  19.614  0.00  0.00    +0.000 C 
ATOM      2  C   UNL     1      -1.703  10.393  18.887  0.00  0.00    +0.000 C 
ATOM      3  C   UNL     1      -1.520   9.913  17.421  0.00  0.00    +0.000 C 
ATOM      4  O   UNL     1      -2.771   9.872  16.711  0.00  0.00    +0.000 OA
ATOM      5  C   UNL     1      -3.364  11.177  16.675  0.00  0.00    +0.000 C 
ATOM      6  C   UNL     1      -3.603  11.714  18.092  0.00  0.00    +0.000 C 
ATOM      7  N   UNL     1      -2.322  11.751  18.836  0.00  0.00    +0.000 N 
ATOM      8  C   UNL     1      -2.250  12.568  19.970  0.00  0.00    +0.000 A 
ATOM      9  C   UNL     1      -3.414  13.046  20.578  0.00  0.00    +0.000 A 
ATOM     10  C   UNL     1      -3.424  13.904  21.696  0.00  0.00    +0.000 A 
ATOM     11  C   UNL     1      -2.137  14.240  22.164  0.00  0.00    +0.000 A 
ATOM     12  C   UNL     1      -1.605  14.984  23.233  0.00  0.00    +0.000 A 
ATOM     13  N   UNL     1      -0.277  15.025  23.240  0.00  0.00    +0.000 NA
ATOM     14  N   UNL     1       0.097  14.348  22.106  0.00  0.00    +0.000 N 
ATOM     15  C   UNL     1       1.466  14.322  21.658  0.00  0.00    +0.000 A 
ATOM     16  C   UNL     1       2.002  13.758  20.482  0.00  0.00    +0.000 A 
ATOM     17  C   UNL     1       3.339  14.086  20.514  0.00  0.00    +0.000 A 
ATOM     18  N   UNL     1       3.533  14.789  21.669  0.00  0.00    +0.000 N 
ATOM     19  N   UNL     1       2.411  14.945  22.385  0.00  0.00    +0.000 NA
ATOM     20  C   UNL     1      -1.020  13.773  21.480  0.00  0.00    +0.000 A 
ATOM     21  N   UNL     1      -1.034  12.954  20.399  0.00  0.00    +0.000 NA
ATOM     22  H   UNL     1       4.391  15.197  22.025  0.00  0.00    +0.000 HD
ENDROOT
BRANCH  10  23
ATOM     23  C   UNL     1      -4.756  14.433  22.251  0.00  0.00    +0.000 C 
ATOM     24  C   UNL     1      -5.917  14.022  21.305  0.00  0.00    +0.000 C 
ATOM     25  C   UNL     1      -6.834  12.938  21.881  0.00  0.00    +0.000 C 
ATOM     26  C   UNL     1      -7.916  13.509  22.794  0.00  0.00    +0.000 C 
ATOM     27  C   UNL     1      -7.358  13.336  24.194  0.00  0.00    +0.000 C 
ATOM     28  C   UNL     1      -5.935  12.866  23.951  0.00  0.00    +0.000 C 
ATOM     29  C   UNL     1      -4.972  14.043  23.736  0.00  0.00    +0.000 C 
ATOM     30  O   UNL     1      -6.045  12.104  22.742  0.00  0.00    +0.000 OA
BRANCH  23  31
ATOM     31  O   UNL     1      -4.671  15.868  22.228  0.00  0.00    +0.000 OA
ATOM     32  H   UNL     1      -5.391  16.223  22.773  0.00  0.00    +0.000 HD
ENDBRANCH  23  31
ENDBRANCH  10  23
TORSDOF 2
ENDMDL
MODEL 3
REMARK VINA RESULT:      -7.1      9.403     11.265
REMARK  Name = 
REMARK  3 active torsions:
REMARK  status: ('A' for Active; 'I' for Inactive)
REMARK    1  A    between atoms: C_1  and  C_2
REMARK    2  A    between atoms: C_10  and  C_11
REMARK    3  A    between atoms: C_11  and  O_12
REMARK                            x       y       z     vdW  Elec       q    Type
REMARK                         _______ _______ _______ _____ _____    ______ ____
ROOT
ATOM      1  C   UNL     1       6.136  14.510  17.873  0.00  0.00    +0.000 C 
ATOM      2  C   UNL     1       5.560  15.417  18.954  0.00  0.00    +0.000 C 
ATOM      3  C   UNL     1       5.124  16.758  18.305  0.00  0.00    +0.000 C 
ATOM      4  O   UNL     1       4.453  17.616  19.247  0.00  0.00    +0.000 OA
ATOM      5  C   UNL     1       5.322  17.921  20.346  0.00  0.00    +0.000 C 
ATOM      6  C   UNL     1       5.779  16.642  21.060  0.00  0.00    +0.000 C 
ATOM      7  N   UNL     1       6.461  15.747  20.097  0.00  0.00    +0.000 N 
ATOM      8  C   UNL     1       7.291  14.746  20.613  0.00  0.00    +0.000 A 
ATOM      9  C   UNL     1       7.207  14.375  21.958  0.00  0.00    +0.000 A 
ATOM     10  C   UNL     1       8.034  13.406  22.561  0.00  0.00    +0.000 A 
ATOM     11  C   UNL     1       8.965  12.824  21.676  0.00  0.00    +0.000 A 
ATOM     12  C   UNL     1       9.941  11.814  21.746  0.00  0.00    +0.000 A 
ATOM     13  N   UNL     1      10.601  11.636  20.606  0.00  0.00    +0.000 NA
ATOM     14  N   UNL     1      10.104  12.598  19.763  0.00  0.00    +0.000 N 
ATOM     15  C   UNL     1      10.693  12.851  18.473  0.00  0.00    +0.000 A 
ATOM     16  C   UNL     1      10.367  13.850  17.532  0.00  0.00    +0.000 A 
ATOM     17  C   UNL     1      11.286  13.688  16.519  0.00  0.00    +0.000 A 
ATOM     18  N   UNL     1      12.073  12.633  16.881  0.00  0.00    +0.000 N 
ATOM     19  N   UNL     1      11.733  12.103  18.064  0.00  0.00    +0.000 NA
ATOM     20  C   UNL     1       9.031  13.277  20.363  0.00  0.00    +0.000 A 
ATOM     21  N   UNL     1       8.231  14.219  19.805  0.00  0.00    +0.000 NA
ATOM     22  H   UNL     1      12.859  12.229  16.382  0.00  0.00    +0.000 HD
ENDROOT
BRANCH  10  23
ATOM     23  C   UNL     1       7.913  13.117  24.066  0.00  0.00    +0.000 C 
ATOM     24  C   UNL     1       6.899  14.103  24.708  0.00  0.00    +0.000 C 
ATOM     25  C   UNL     1       5.575  13.454  25.119  0.00  0.00    +0.000 C 
ATOM     26  C   UNL     1       5.646  12.793  26.494  0.00  0.00    +0.000 C 
ATOM     27  C   UNL     1       5.908  11.329  26.195  0.00  0.00    +0.000 C 
ATOM     28  C   UNL     1       6.157  11.313  24.698  0.00  0.00    +0.000 C 
ATOM     29  C   UNL     1       7.622  11.622  24.357  0.00  0.00    +0.000 C 
ATOM     30  O   UNL     1       5.315  12.369  24.216  0.00  0.00    +0.000 OA
BRANCH  23  31
ATOM     31  O   UNL     1       9.201  13.389  24.643  0.00  0.00    +0.000 OA
ATOM     32  H   UNL     1       9.125  13.305  25.607  0.00  0.00    +0.000 HD
ENDBRANCH  23  31
ENDBRANCH  10  23
TORSDOF 2
ENDMDL
MODEL 4
REMARK VINA RESULT:      -7.0      9.526     11.374
REMARK  Name = 
REMARK  3 active torsions:
REMARK  status: ('A' for Active; 'I' for Inactive)
REMARK    1  A    between atoms: C_1  and  C_2
REMARK    2  A    between atoms: C_10  and  C_11
REMARK    3  A    between atoms: C_11  and  O_12
REMARK                            x       y       z     vdW  Elec       q    Type
REMARK                         _______ _______ _______ _____ _____    ______ ____
ROOT
ATOM      1  C   UNL     1       6.262  14.655  17.737  0.00  0.00    +0.000 C 
ATOM      2  C   UNL     1       5.647  15.428  18.897  0.00  0.00    +0.000 C 
ATOM      3  C   UNL     1       5.271  16.854  18.408  0.00  0.00    +0.000 C 
ATOM      4  O   UNL     1       4.568  17.599  19.420  0.00  0.00    +0.000 OA
ATOM      5  C   UNL     1       5.384  17.737  20.591  0.00  0.00    +0.000 C 
ATOM      6  C   UNL     1       5.778  16.365  21.154  0.00  0.00    +0.000 C 
ATOM      7  N   UNL     1       6.493  15.585  20.117  0.00  0.00    +0.000 N 
ATOM      8  C   UNL     1       7.276  14.505  20.538  0.00  0.00    +0.000 A 
ATOM      9  C   UNL     1       7.114  13.965  21.818  0.00  0.00    +0.000 A 
ATOM     10  C   UNL     1       7.890  12.905  22.329  0.00  0.00    +0.000 A 
ATOM     11  C   UNL     1       8.854  12.419  21.423  0.00  0.00    +0.000 A 
ATOM     12  C   UNL     1       9.806  11.384  21.409  0.00  0.00    +0.000 A 
ATOM     13  N   UNL     1      10.522  11.337  20.290  0.00  0.00    +0.000 NA
ATOM     14  N   UNL     1      10.088  12.414  19.556  0.00  0.00    +0.000 N 
ATOM     15  C   UNL     1      10.748  12.816  18.341  0.00  0.00    +0.000 A 
ATOM     16  C   UNL     1      10.492  13.937  17.524  0.00  0.00    +0.000 A 
ATOM     17  C   UNL     1      11.459  13.884  16.544  0.00  0.00    +0.000 A 
ATOM     18  N   UNL     1      12.207  12.771  16.804  0.00  0.00    +0.000 N 
ATOM     19  N   UNL     1      11.794  12.101  17.889  0.00  0.00    +0.000 NA
ATOM     20  C   UNL     1       8.998  13.037  20.185  0.00  0.00    +0.000 A 
ATOM     21  N   UNL     1       8.246  14.063  19.716  0.00  0.00    +0.000 NA
ATOM     22  H   UNL     1      13.009  12.415  16.296  0.00  0.00    +0.000 HD
ENDROOT
BRANCH  10  23
ATOM     23  C   UNL     1       7.684  12.427  23.776  0.00  0.00    +0.000 C 
ATOM     24  C   UNL     1       8.554  13.280  24.738  0.00  0.00    +0.000 C 
ATOM     25  C   UNL     1       7.750  14.247  25.611  0.00  0.00    +0.000 C 
ATOM     26  C   UNL     1       7.196  13.581  26.869  0.00  0.00    +0.000 C 
ATOM     27  C   UNL     1       5.768  13.219  26.505  0.00  0.00    +0.000 C 
ATOM     28  C   UNL     1       5.692  13.530  25.021  0.00  0.00    +0.000 C 
ATOM     29  C   UNL     1       6.184  12.355  24.164  0.00  0.00    +0.000 C 
ATOM     30  O   UNL     1       6.583  14.642  24.875  0.00  0.00    +0.000 OA
BRANCH  23  31
ATOM     31  O   UNL     1       8.173  11.076  23.837  0.00  0.00    +0.000 OA
ATOM     32  H   UNL     1       7.501  10.493  23.448  0.00  0.00    +0.000 HD
ENDBRANCH  23  31
ENDBRANCH  10  23
TORSDOF 2
ENDMDL
MODEL 5
REMARK VINA RESULT:      -6.9      8.113     12.034
REMARK  Name = 
REMARK  3 active torsions:
REMARK  status: ('A' for Active; 'I' for Inactive)
REMARK    1  A    between atoms: C_1  and  C_2
REMARK    2  A    between atoms: C_10  and  C_11
REMARK    3  A    between atoms: C_11  and  O_12
REMARK                            x       y       z     vdW  Elec       q    Type
REMARK                         _______ _______ _______ _____ _____    ______ ____
ROOT
ATOM      1  C   UNL     1       1.681   8.037  21.432  0.00  0.00    +0.000 C 
ATOM      2  C   UNL     1       1.536   8.869  20.163  0.00  0.00    +0.000 C 
ATOM      3  C   UNL     1       0.121   9.508  20.139  0.00  0.00    +0.000 C 
ATOM      4  O   UNL     1      -0.039  10.411  19.029  0.00  0.00    +0.000 OA
ATOM      5  C   UNL     1       0.149   9.713  17.791  0.00  0.00    +0.000 C 
ATOM      6  C   UNL     1       1.541   9.072  17.725  0.00  0.00    +0.000 C 
ATOM      7  N   UNL     1       1.722   8.149  18.869  0.00  0.00    +0.000 N 
ATOM      8  C   UNL     1       2.729   7.182  18.774  0.00  0.00    +0.000 A 
ATOM      9  C   UNL     1       3.742   7.301  17.818  0.00  0.00    +0.000 A 
ATOM     10  C   UNL     1       4.767   6.351  17.633  0.00  0.00    +0.000 A 
ATOM     11  C   UNL     1       4.688   5.254  18.515  0.00  0.00    +0.000 A 
ATOM     12  C   UNL     1       5.456   4.105  18.781  0.00  0.00    +0.000 A 
ATOM     13  N   UNL     1       4.940   3.332  19.730  0.00  0.00    +0.000 NA
ATOM     14  N   UNL     1       3.756   3.939  20.068  0.00  0.00    +0.000 N 
ATOM     15  C   UNL     1       2.806   3.308  20.947  0.00  0.00    +0.000 A 
ATOM     16  C   UNL     1       1.518   3.746  21.321  0.00  0.00    +0.000 A 
ATOM     17  C   UNL     1       1.019   2.733  22.110  0.00  0.00    +0.000 A 
ATOM     18  N   UNL     1       1.999   1.785  22.180  0.00  0.00    +0.000 N 
ATOM     19  N   UNL     1       3.098   2.109  21.485  0.00  0.00    +0.000 NA
ATOM     20  C   UNL     1       3.624   5.171  19.407  0.00  0.00    +0.000 A 
ATOM     21  N   UNL     1       2.642   6.093  19.562  0.00  0.00    +0.000 NA
ATOM     22  H   UNL     1       1.986   0.896  22.670  0.00  0.00    +0.000 HD
ENDROOT
BRANCH  10  23
ATOM     23  C   UNL     1       5.796   6.536  16.507  0.00  0.00    +0.000 C 
ATOM     24  C   UNL     1       7.037   5.643  16.780  0.00  0.00    +0.000 C 
ATOM     25  C   UNL     1       7.159   4.443  15.836  0.00  0.00    +0.000 C 
ATOM     26  C   UNL     1       7.835   4.802  14.514  0.00  0.00    +0.000 C 
ATOM     27  C   UNL     1       6.685   5.039  13.554  0.00  0.00    +0.000 C 
ATOM     28  C   UNL     1       5.461   4.988  14.450  0.00  0.00    +0.000 C 
ATOM     29  C   UNL     1       5.170   6.349  15.101  0.00  0.00    +0.000 C 
ATOM     30  O   UNL     1       5.834   4.041  15.459  0.00  0.00    +0.000 OA
BRANCH  23  31
ATOM     31  O   UNL     1       6.230   7.905  16.567  0.00  0.00    +0.000 OA
ATOM     32  H   UNL     1       5.499   8.440  16.917  0.00  0.00    +0.000 HD
ENDBRANCH  23  31
ENDBRANCH  10  23
TORSDOF 2
ENDMDL
MODEL 6
REMARK VINA RESULT:      -6.5      2.585      3.502
REMARK  Name = 
REMARK  3 active torsions:
REMARK  status: ('A' for Active; 'I' for Inactive)
REMARK    1  A    between atoms: C_1  and  C_2
REMARK    2  A    between atoms: C_10  and  C_11
REMARK    3  A    between atoms: C_11  and  O_12
REMARK                            x       y       z     vdW  Elec       q    Type
REMARK                         _______ _______ _______ _____ _____    ______ ____
ROOT
ATOM      1  C   UNL     1      -5.427  10.828  18.554  0.00  0.00    +0.000 C 
ATOM      2  C   UNL     1      -6.217  12.116  18.754  0.00  0.00    +0.000 C 
ATOM      3  C   UNL     1      -6.789  12.574  17.384  0.00  0.00    +0.000 C 
ATOM      4  O   UNL     1      -7.654  13.717  17.520  0.00  0.00    +0.000 OA
ATOM      5  C   UNL     1      -6.932  14.820  18.086  0.00  0.00    +0.000 C 
ATOM      6  C   UNL     1      -6.355  14.455  19.459  0.00  0.00    +0.000 C 
ATOM      7  N   UNL     1      -5.471  13.272  19.333  0.00  0.00    +0.000 N 
ATOM      8  C   UNL     1      -4.550  13.034  20.359  0.00  0.00    +0.000 A 
ATOM      9  C   UNL     1      -4.690  13.661  21.601  0.00  0.00    +0.000 A 
ATOM     10  C   UNL     1      -3.784  13.504  22.669  0.00  0.00    +0.000 A 
ATOM     11  C   UNL     1      -2.708  12.640  22.378  0.00  0.00    +0.000 A 
ATOM     12  C   UNL     1      -1.604  12.119  23.077  0.00  0.00    +0.000 A 
ATOM     13  N   UNL     1      -0.833  11.330  22.336  0.00  0.00    +0.000 NA
ATOM     14  N   UNL     1      -1.394  11.374  21.083  0.00  0.00    +0.000 N 
ATOM     15  C   UNL     1      -0.743  10.782  19.943  0.00  0.00    +0.000 A 
ATOM     16  C   UNL     1      -1.132  10.814  18.587  0.00  0.00    +0.000 A 
ATOM     17  C   UNL     1      -0.119  10.164  17.918  0.00  0.00    +0.000 A 
ATOM     18  N   UNL     1       0.782   9.776  18.869  0.00  0.00    +0.000 N 
ATOM     19  N   UNL     1       0.425  10.137  20.109  0.00  0.00    +0.000 NA
ATOM     20  C   UNL     1      -2.600  12.092  21.105  0.00  0.00    +0.000 A 
ATOM     21  N   UNL     1      -3.480  12.264  20.087  0.00  0.00    +0.000 NA
ATOM     22  H   UNL     1       1.656   9.277  18.746  0.00  0.00    +0.000 HD
ENDROOT
BRANCH  10  23
ATOM     23  C   UNL     1      -3.986  14.291  23.974  0.00  0.00    +0.000 C 
ATOM     24  C   UNL     1      -2.698  15.092  24.307  0.00  0.00    +0.000 C 
ATOM     25  C   UNL     1      -2.839  16.605  24.114  0.00  0.00    +0.000 C 
ATOM     26  C   UNL     1      -3.460  17.296  25.326  0.00  0.00    +0.000 C 
ATOM     27  C   UNL     1      -4.929  17.432  24.971  0.00  0.00    +0.000 C 
ATOM     28  C   UNL     1      -5.056  16.638  23.684  0.00  0.00    +0.000 C 
ATOM     29  C   UNL     1      -5.282  15.143  23.952  0.00  0.00    +0.000 C 
ATOM     30  O   UNL     1      -3.782  16.829  23.055  0.00  0.00    +0.000 OA
BRANCH  23  31
ATOM     31  O   UNL     1      -4.170  13.319  25.017  0.00  0.00    +0.000 OA
ATOM     32  H   UNL     1      -4.171  12.436  24.612  0.00  0.00    +0.000 HD
ENDBRANCH  23  31
ENDBRANCH  10  23
TORSDOF 2
ENDMDL
MODEL 7
REMARK VINA RESULT:      -6.5      1.255      1.731
REMARK  Name = 
REMARK  3 active torsions:
REMARK  status: ('A' for Active; 'I' for Inactive)
REMARK    1  A    between atoms: C_1  and  C_2
REMARK    2  A    between atoms: C_10  and  C_11
REMARK    3  A    between atoms: C_11  and  O_12
REMARK                            x       y       z     vdW  Elec       q    Type
REMARK                         _______ _______ _______ _____ _____    ______ ____
ROOT
ATOM      1  C   UNL     1      -0.290  10.215  18.640  0.00  0.00    +0.000 C 
ATOM      2  C   UNL     1      -1.765  10.352  18.279  0.00  0.00    +0.000 C 
ATOM      3  C   UNL     1      -1.968   9.898  16.808  0.00  0.00    +0.000 C 
ATOM      4  O   UNL     1      -3.360   9.881  16.440  0.00  0.00    +0.000 OA
ATOM      5  C   UNL     1      -3.925  11.192  16.577  0.00  0.00    +0.000 C 
ATOM      6  C   UNL     1      -3.787  11.704  18.016  0.00  0.00    +0.000 C 
ATOM      7  N   UNL     1      -2.359  11.716  18.410  0.00  0.00    +0.000 N 
ATOM      8  C   UNL     1      -1.990  12.511  19.501  0.00  0.00    +0.000 A 
ATOM      9  C   UNL     1      -2.955  12.987  20.394  0.00  0.00    +0.000 A 
ATOM     10  C   UNL     1      -2.668  13.824  21.491  0.00  0.00    +0.000 A 
ATOM     11  C   UNL     1      -1.300  14.140  21.621  0.00  0.00    +0.000 A 
ATOM     12  C   UNL     1      -0.503  14.858  22.530  0.00  0.00    +0.000 A 
ATOM     13  N   UNL     1       0.783  14.888  22.199  0.00  0.00    +0.000 NA
ATOM     14  N   UNL     1       0.847  14.229  20.997  0.00  0.00    +0.000 N 
ATOM     15  C   UNL     1       2.056  14.201  20.214  0.00  0.00    +0.000 A 
ATOM     16  C   UNL     1       2.267  13.654  18.931  0.00  0.00    +0.000 A 
ATOM     17  C   UNL     1       3.573  13.971  18.626  0.00  0.00    +0.000 A 
ATOM     18  N   UNL     1       4.064  14.649  19.705  0.00  0.00    +0.000 N 
ATOM     19  N   UNL     1       3.164  14.801  20.686  0.00  0.00    +0.000 NA
ATOM     20  C   UNL     1      -0.400  13.676  20.667  0.00  0.00    +0.000 A 
ATOM     21  N   UNL     1      -0.700  12.878  19.612  0.00  0.00    +0.000 NA
ATOM     22  H   UNL     1       4.989  15.043  19.837  0.00  0.00    +0.000 HD
ENDROOT
BRANCH  10  23
ATOM     23  C   UNL     1      -3.808  14.353  22.375  0.00  0.00    +0.000 C 
ATOM     24  C   UNL     1      -5.132  14.376  21.565  0.00  0.00    +0.000 C 
ATOM     25  C   UNL     1      -6.142  13.308  21.995  0.00  0.00    +0.000 C 
ATOM     26  C   UNL     1      -6.986  13.746  23.190  0.00  0.00    +0.000 C 
ATOM     27  C   UNL     1      -6.294  13.123  24.389  0.00  0.00    +0.000 C 
ATOM     28  C   UNL     1      -5.016  12.552  23.801  0.00  0.00    +0.000 C 
ATOM     29  C   UNL     1      -3.899  13.603  23.730  0.00  0.00    +0.000 C 
ATOM     30  O   UNL     1      -5.408  12.172  22.475  0.00  0.00    +0.000 OA
BRANCH  23  31
ATOM     31  O   UNL     1      -3.479  15.715  22.699  0.00  0.00    +0.000 OA
ATOM     32  H   UNL     1      -4.219  16.279  22.423  0.00  0.00    +0.000 HD
ENDBRANCH  23  31
ENDBRANCH  10  23
TORSDOF 2
ENDMDL
MODEL 8
REMARK VINA RESULT:      -6.4      7.676     10.698
REMARK  Name = 
REMARK  3 active torsions:
REMARK  status: ('A' for Active; 'I' for Inactive)
REMARK    1  A    between atoms: C_1  and  C_2
REMARK    2  A    between atoms: C_10  and  C_11
REMARK    3  A    between atoms: C_11  and  O_12
REMARK                            x       y       z     vdW  Elec       q    Type
REMARK                         _______ _______ _______ _____ _____    ______ ____
ROOT
ATOM      1  C   UNL     1       9.241  11.374  20.982  0.00  0.00    +0.000 C 
ATOM      2  C   UNL     1       9.867  12.393  20.037  0.00  0.00    +0.000 C 
ATOM      3  C   UNL     1      11.413  12.277  20.124  0.00  0.00    +0.000 C 
ATOM      4  O   UNL     1      12.068  13.124  19.162  0.00  0.00    +0.000 OA
ATOM      5  C   UNL     1      11.718  14.495  19.389  0.00  0.00    +0.000 C 
ATOM      6  C   UNL     1      10.200  14.700  19.294  0.00  0.00    +0.000 C 
ATOM      7  N   UNL     1       9.514  13.824  20.273  0.00  0.00    +0.000 N 
ATOM      8  C   UNL     1       8.199  14.146  20.626  0.00  0.00    +0.000 A 
ATOM      9  C   UNL     1       7.446  15.025  19.841  0.00  0.00    +0.000 A 
ATOM     10  C   UNL     1       6.132  15.428  20.151  0.00  0.00    +0.000 A 
ATOM     11  C   UNL     1       5.627  14.854  21.336  0.00  0.00    +0.000 A 
ATOM     12  C   UNL     1       4.408  14.876  22.038  0.00  0.00    +0.000 A 
ATOM     13  N   UNL     1       4.429  14.161  23.158  0.00  0.00    +0.000 NA
ATOM     14  N   UNL     1       5.718  13.699  23.250  0.00  0.00    +0.000 N 
ATOM     15  C   UNL     1       6.196  13.023  24.429  0.00  0.00    +0.000 A 
ATOM     16  C   UNL     1       7.500  12.570  24.722  0.00  0.00    +0.000 A 
ATOM     17  C   UNL     1       7.416  12.070  26.003  0.00  0.00    +0.000 A 
ATOM     18  N   UNL     1       6.116  12.228  26.392  0.00  0.00    +0.000 N 
ATOM     19  N   UNL     1       5.351  12.802  25.452  0.00  0.00    +0.000 NA
ATOM     20  C   UNL     1       6.448  14.029  22.097  0.00  0.00    +0.000 A 
ATOM     21  N   UNL     1       7.715  13.661  21.784  0.00  0.00    +0.000 NA
ATOM     22  H   UNL     1       5.685  11.979  27.275  0.00  0.00    +0.000 HD
ENDROOT
BRANCH  10  23
ATOM     23  C   UNL     1       5.411  16.455  19.264  0.00  0.00    +0.000 C 
ATOM     24  C   UNL     1       5.139  15.838  17.865  0.00  0.00    +0.000 C 
ATOM     25  C   UNL     1       3.664  15.518  17.603  0.00  0.00    +0.000 C 
ATOM     26  C   UNL     1       2.879  16.731  17.107  0.00  0.00    +0.000 C 
ATOM     27  C   UNL     1       2.211  17.282  18.353  0.00  0.00    +0.000 C 
ATOM     28  C   UNL     1       2.824  16.462  19.474  0.00  0.00    +0.000 C 
ATOM     29  C   UNL     1       4.157  17.053  19.954  0.00  0.00    +0.000 C 
ATOM     30  O   UNL     1       3.054  15.188  18.859  0.00  0.00    +0.000 OA
BRANCH  23  31
ATOM     31  O   UNL     1       6.322  17.552  19.080  0.00  0.00    +0.000 OA
ATOM     32  H   UNL     1       7.227  17.212  19.169  0.00  0.00    +0.000 HD
ENDBRANCH  23  31
ENDBRANCH  10  23
TORSDOF 2
ENDMDL
MODEL 9
REMARK VINA RESULT:      -6.4      8.371     10.989
REMARK  Name = 
REMARK  3 active torsions:
REMARK  status: ('A' for Active; 'I' for Inactive)
REMARK    1  A    between atoms: C_1  and  C_2
REMARK    2  A    between atoms: C_10  and  C_11
REMARK    3  A    between atoms: C_11  and  O_12
REMARK                            x       y       z     vdW  Elec       q    Type
REMARK                         _______ _______ _______ _____ _____    ______ ____
ROOT
ATOM      1  C   UNL     1       5.554  14.815  17.827  0.00  0.00    +0.000 C 
ATOM      2  C   UNL     1       4.692  15.364  18.958  0.00  0.00    +0.000 C 
ATOM      3  C   UNL     1       3.774  16.482  18.393  0.00  0.00    +0.000 C 
ATOM      4  O   UNL     1       2.842  16.959  19.381  0.00  0.00    +0.000 OA
ATOM      5  C   UNL     1       3.546  17.497  20.508  0.00  0.00    +0.000 C 
ATOM      6  C   UNL     1       4.461  16.442  21.142  0.00  0.00    +0.000 C 
ATOM      7  N   UNL     1       5.417  15.935  20.131  0.00  0.00    +0.000 N 
ATOM      8  C   UNL     1       6.571  15.289  20.591  0.00  0.00    +0.000 A 
ATOM      9  C   UNL     1       6.650  14.827  21.908  0.00  0.00    +0.000 A 
ATOM     10  C   UNL     1       7.789  14.203  22.456  0.00  0.00    +0.000 A 
ATOM     11  C   UNL     1       8.859  14.075  21.547  0.00  0.00    +0.000 A 
ATOM     12  C   UNL     1      10.145  13.506  21.562  0.00  0.00    +0.000 A 
ATOM     13  N   UNL     1      10.808  13.664  20.421  0.00  0.00    +0.000 NA
ATOM     14  N   UNL     1       9.973  14.421  19.637  0.00  0.00    +0.000 N 
ATOM     15  C   UNL     1      10.406  14.962  18.374  0.00  0.00    +0.000 A 
ATOM     16  C   UNL     1       9.716  15.824  17.497  0.00  0.00    +0.000 A 
ATOM     17  C   UNL     1      10.614  16.087  16.486  0.00  0.00    +0.000 A 
ATOM     18  N   UNL     1      11.746  15.385  16.788  0.00  0.00    +0.000 N 
ATOM     19  N   UNL     1      11.647  14.689  17.929  0.00  0.00    +0.000 NA
ATOM     20  C   UNL     1       8.732  14.605  20.267  0.00  0.00    +0.000 A 
ATOM     21  N   UNL     1       7.628  15.210  19.762  0.00  0.00    +0.000 NA
ATOM     22  H   UNL     1      12.619  15.341  16.273  0.00  0.00    +0.000 HD
ENDROOT
BRANCH  10  23
ATOM     23  C   UNL     1       7.806  13.793  23.937  0.00  0.00    +0.000 C 
ATOM     24  C   UNL     1       6.571  14.395  24.661  0.00  0.00    +0.000 C 
ATOM     25  C   UNL     1       5.506  13.361  25.039  0.00  0.00    +0.000 C 
ATOM     26  C   UNL     1       5.811  12.660  26.361  0.00  0.00    +0.000 C 
ATOM     27  C   UNL     1       6.477  11.359  25.953  0.00  0.00    +0.000 C 
ATOM     28  C   UNL     1       6.671  11.516  24.456  0.00  0.00    +0.000 C 
ATOM     29  C   UNL     1       7.972  12.261  24.121  0.00  0.00    +0.000 C 
ATOM     30  O   UNL     1       5.544  12.310  24.062  0.00  0.00    +0.000 OA
BRANCH  23  31
ATOM     31  O   UNL     1       8.978  14.390  24.517  0.00  0.00    +0.000 OA
ATOM     32  H   UNL     1       9.505  13.685  24.928  0.00  0.00    +0.000 HD
ENDBRANCH  23  31
ENDBRANCH  10  23
TORSDOF 2
ENDMDL
