MODEL 1
REMARK VINA RESULT:      -7.1      0.000      0.000
REMARK  Name = 
REMARK  6 active torsions:
REMARK  status: ('A' for Active; 'I' for Inactive)
REMARK    1  A    between atoms: C_1  and  O_2
REMARK    2  A    between atoms: O_2  and  C_3
REMARK    3  A    between atoms: C_6  and  O_7
REMARK    4  A    between atoms: O_7  and  C_8
REMARK    5  A    between atoms: C_9  and  C_10
REMARK    6  A    between atoms: C_15  and  C_17
REMARK                            x       y       z     vdW  Elec       q    Type
REMARK                         _______ _______ _______ _____ _____    ______ ____
ROOT
ATOM      1  C   UNL     1       4.561   5.422  17.641  0.00  0.00    +0.000 A 
ATOM      2  C   UNL     1       4.494   4.688  18.811  0.00  0.00    +0.000 A 
ATOM      3  S   UNL     1       3.265   5.317  19.848  0.00  0.00    +0.000 S 
ATOM      4  C   UNL     1       2.983   6.566  18.724  0.00  0.00    +0.000 A 
ATOM      5  N   UNL     1       2.049   7.499  19.090  0.00  0.00    +0.000 N 
ATOM      6  C   UNL     1       1.895   8.675  18.388  0.00  0.00    +0.000 C 
ATOM      7  O   UNL     1       2.536   9.038  17.409  0.00  0.00    +0.000 OA
ATOM      8  N   UNL     1       3.697   6.520  17.633  0.00  0.00    +0.000 NA
ATOM      9  H   UNL     1       1.528   7.350  19.942  0.00  0.00    +0.000 HD
ENDROOT
BRANCH   1  14
ATOM     10  C   UNL     1       5.599   4.258  14.227  0.00  0.00    +0.000 A 
ATOM     11  C   UNL     1       6.963   4.521  14.219  0.00  0.00    +0.000 A 
ATOM     12  C   UNL     1       7.576   5.123  15.319  0.00  0.00    +0.000 A 
ATOM     13  C   UNL     1       6.832   5.473  16.460  0.00  0.00    +0.000 A 
ATOM     14  C   UNL     1       5.448   5.192  16.497  0.00  0.00    +0.000 A 
ATOM     15  C   UNL     1       4.856   4.592  15.358  0.00  0.00    +0.000 A 
BRANCH  10  17
ATOM     16  C   UNL     1       6.088   3.245  12.136  0.00  0.00    +0.000 C 
ATOM     17  O   UNL     1       5.122   3.663  13.096  0.00  0.00    +0.000 OA
ENDBRANCH  10  17
BRANCH  13  18
ATOM     18  O   UNL     1       7.426   6.030  17.572  0.00  0.00    +0.000 OA
ATOM     19  C   UNL     1       7.596   7.444  17.568  0.00  0.00    +0.000 C 
ENDBRANCH  13  18
ENDBRANCH   1  14
BRANCH   6  20
ATOM     20  C   UNL     1       0.858   9.585  19.007  0.00  0.00    +0.000 C 
ATOM     21  C   UNL     1       0.827   9.650  20.347  0.00  0.00    +0.000 C 
ATOM     22  O   UNL     1      -0.073  10.350  21.100  0.00  0.00    +0.000 OA
ATOM     23  C   UNL     1      -0.945  11.184  20.339  0.00  0.00    +0.000 C 
ATOM     24  C   UNL     1      -1.194  10.713  18.904  0.00  0.00    +0.000 C 
ATOM     25  O   UNL     1      -0.032  10.263  18.193  0.00  0.00    +0.000 OA
ENDBRANCH   6  20
TORSDOF 4
ENDMDL
MODEL 2
REMARK VINA RESULT:      -7.0      0.535      1.019
REMARK  Name = 
REMARK  6 active torsions:
REMARK  status: ('A' for Active; 'I' for Inactive)
REMARK    1  A    between atoms: C_1  and  O_2
REMARK    2  A    between atoms: O_2  and  C_3
REMARK    3  A    between atoms: C_6  and  O_7
REMARK    4  A    between atoms: O_7  and  C_8
REMARK    5  A    between atoms: C_9  and  C_10
REMARK    6  A    between atoms: C_15  and  C_17
REMARK                            x       y       z     vdW  Elec       q    Type
REMARK                         _______ _______ _______ _____ _____    ______ ____
ROOT
ATOM      1  C   UNL     1       4.548   5.397  17.668  0.00  0.00    +0.000 A 
ATOM      2  C   UNL     1       4.461   4.621  18.809  0.00  0.00    +0.000 A 
ATOM      3  S   UNL     1       3.239   5.235  19.864  0.00  0.00    +0.000 S 
ATOM      4  C   UNL     1       2.986   6.530  18.786  0.00  0.00    +0.000 A 
ATOM      5  N   UNL     1       2.068   7.466  19.182  0.00  0.00    +0.000 N 
ATOM      6  C   UNL     1       1.939   8.670  18.524  0.00  0.00    +0.000 C 
ATOM      7  O   UNL     1       2.592   9.057  17.561  0.00  0.00    +0.000 OA
ATOM      8  N   UNL     1       3.705   6.511  17.697  0.00  0.00    +0.000 NA
ATOM      9  H   UNL     1       1.540   7.296  20.026  0.00  0.00    +0.000 HD
ENDROOT
BRANCH   1  14
ATOM     10  C   UNL     1       5.600   4.278  14.244  0.00  0.00    +0.000 A 
ATOM     11  C   UNL     1       6.958   4.567  14.234  0.00  0.00    +0.000 A 
ATOM     12  C   UNL     1       7.562   5.174  15.336  0.00  0.00    +0.000 A 
ATOM     13  C   UNL     1       6.814   5.502  16.481  0.00  0.00    +0.000 A 
ATOM     14  C   UNL     1       5.436   5.192  16.520  0.00  0.00    +0.000 A 
ATOM     15  C   UNL     1       4.853   4.589  15.379  0.00  0.00    +0.000 A 
BRANCH  10  17
ATOM     16  C   UNL     1       6.105   3.251  12.163  0.00  0.00    +0.000 C 
ATOM     17  O   UNL     1       5.131   3.681  13.109  0.00  0.00    +0.000 OA
ENDBRANCH  10  17
BRANCH  13  18
ATOM     18  O   UNL     1       7.400   6.062  17.596  0.00  0.00    +0.000 OA
ATOM     19  C   UNL     1       7.595   7.473  17.576  0.00  0.00    +0.000 C 
ENDBRANCH  13  18
ENDBRANCH   1  14
BRANCH   6  20
ATOM     20  C   UNL     1       0.917   9.576  19.171  0.00  0.00    +0.000 C 
ATOM     21  C   UNL     1       0.102  10.259  18.353  0.00  0.00    +0.000 C 
ATOM     22  O   UNL     1      -0.834  11.179  18.731  0.00  0.00    +0.000 OA
ATOM     23  C   UNL     1      -1.020  11.276  20.142  0.00  0.00    +0.000 C 
ATOM     24  C   UNL     1       0.201  10.886  20.979  0.00  0.00    +0.000 C 
ATOM     25  O   UNL     1       0.890   9.703  20.550  0.00  0.00    +0.000 OA
ENDBRANCH   6  20
TORSDOF 4
ENDMDL
MODEL 3
REMARK VINA RESULT:      -7.0      1.362      1.589
REMARK  Name = 
REMARK  6 active torsions:
REMARK  status: ('A' for Active; 'I' for Inactive)
REMARK    1  A    between atoms: C_1  and  O_2
REMARK    2  A    between atoms: O_2  and  C_3
REMARK    3  A    between atoms: C_6  and  O_7
REMARK    4  A    between atoms: O_7  and  C_8
REMARK    5  A    between atoms: C_9  and  C_10
REMARK    6  A    between atoms: C_15  and  C_17
REMARK                            x       y       z     vdW  Elec       q    Type
REMARK                         _______ _______ _______ _____ _____    ______ ____
ROOT
ATOM      1  C   UNL     1       3.983   5.701  18.409  0.00  0.00    +0.000 A 
ATOM      2  C   UNL     1       3.556   5.092  19.575  0.00  0.00    +0.000 A 
ATOM      3  S   UNL     1       2.232   5.964  20.261  0.00  0.00    +0.000 S 
ATOM      4  C   UNL     1       2.386   7.129  19.027  0.00  0.00    +0.000 A 
ATOM      5  N   UNL     1       1.536   8.201  19.110  0.00  0.00    +0.000 N 
ATOM      6  C   UNL     1       1.710   9.317  18.320  0.00  0.00    +0.000 C 
ATOM      7  O   UNL     1       2.595   9.506  17.495  0.00  0.00    +0.000 OA
ATOM      8  N   UNL     1       3.308   6.893  18.135  0.00  0.00    +0.000 NA
ATOM      9  H   UNL     1       0.826   8.198  19.827  0.00  0.00    +0.000 HD
ENDROOT
BRANCH   1  14
ATOM     10  C   UNL     1       5.606   4.560  15.224  0.00  0.00    +0.000 A 
ATOM     11  C   UNL     1       6.904   4.276  15.629  0.00  0.00    +0.000 A 
ATOM     12  C   UNL     1       7.296   4.487  16.952  0.00  0.00    +0.000 A 
ATOM     13  C   UNL     1       6.389   4.986  17.904  0.00  0.00    +0.000 A 
ATOM     14  C   UNL     1       5.058   5.258  17.517  0.00  0.00    +0.000 A 
ATOM     15  C   UNL     1       4.698   5.044  16.163  0.00  0.00    +0.000 A 
BRANCH  10  17
ATOM     16  C   UNL     1       6.377   3.660  13.166  0.00  0.00    +0.000 C 
ATOM     17  O   UNL     1       5.346   4.305  13.908  0.00  0.00    +0.000 OA
ENDBRANCH  10  17
BRANCH  13  18
ATOM     18  O   UNL     1       6.745   5.162  19.224  0.00  0.00    +0.000 OA
ATOM     19  C   UNL     1       8.024   5.738  19.472  0.00  0.00    +0.000 C 
ENDBRANCH  13  18
ENDBRANCH   1  14
BRANCH   6  20
ATOM     20  C   UNL     1       0.703  10.402  18.627  0.00  0.00    +0.000 C 
ATOM     21  C   UNL     1      -0.578  10.150  18.321  0.00  0.00    +0.000 C 
ATOM     22  O   UNL     1      -1.625  11.018  18.449  0.00  0.00    +0.000 OA
ATOM     23  C   UNL     1      -1.292  12.239  19.107  0.00  0.00    +0.000 C 
ATOM     24  C   UNL     1       0.174  12.659  18.978  0.00  0.00    +0.000 C 
ATOM     25  O   UNL     1       1.134  11.608  19.154  0.00  0.00    +0.000 OA
ENDBRANCH   6  20
TORSDOF 4
ENDMDL
MODEL 4
REMARK VINA RESULT:      -7.0      1.365      1.469
REMARK  Name = 
REMARK  6 active torsions:
REMARK  status: ('A' for Active; 'I' for Inactive)
REMARK    1  A    between atoms: C_1  and  O_2
REMARK    2  A    between atoms: O_2  and  C_3
REMARK    3  A    between atoms: C_6  and  O_7
REMARK    4  A    between atoms: O_7  and  C_8
REMARK    5  A    between atoms: C_9  and  C_10
REMARK    6  A    between atoms: C_15  and  C_17
REMARK                            x       y       z     vdW  Elec       q    Type
REMARK                         _______ _______ _______ _____ _____    ______ ____
ROOT
ATOM      1  C   UNL     1       3.935   5.738  18.515  0.00  0.00    +0.000 A 
ATOM      2  C   UNL     1       3.517   5.170  19.704  0.00  0.00    +0.000 A 
ATOM      3  S   UNL     1       2.175   6.044  20.351  0.00  0.00    +0.000 S 
ATOM      4  C   UNL     1       2.309   7.159  19.069  0.00  0.00    +0.000 A 
ATOM      5  N   UNL     1       1.440   8.218  19.105  0.00  0.00    +0.000 N 
ATOM      6  C   UNL     1       1.594   9.303  18.270  0.00  0.00    +0.000 C 
ATOM      7  O   UNL     1       2.478   9.473  17.439  0.00  0.00    +0.000 OA
ATOM      8  N   UNL     1       3.238   6.904  18.189  0.00  0.00    +0.000 NA
ATOM      9  H   UNL     1       0.728   8.231  19.821  0.00  0.00    +0.000 HD
ENDROOT
BRANCH   1  14
ATOM     10  C   UNL     1       5.585   4.483  15.386  0.00  0.00    +0.000 A 
ATOM     11  C   UNL     1       6.889   4.250  15.803  0.00  0.00    +0.000 A 
ATOM     12  C   UNL     1       7.276   4.533  17.114  0.00  0.00    +0.000 A 
ATOM     13  C   UNL     1       6.357   5.056  18.042  0.00  0.00    +0.000 A 
ATOM     14  C   UNL     1       5.020   5.277  17.643  0.00  0.00    +0.000 A 
ATOM     15  C   UNL     1       4.666   4.991  16.302  0.00  0.00    +0.000 A 
BRANCH  10  17
ATOM     16  C   UNL     1       6.462   4.016  13.230  0.00  0.00    +0.000 C 
ATOM     17  O   UNL     1       5.332   4.161  14.084  0.00  0.00    +0.000 OA
ENDBRANCH  10  17
BRANCH  13  18
ATOM     18  O   UNL     1       6.708   5.303  19.352  0.00  0.00    +0.000 OA
ATOM     19  C   UNL     1       8.051   5.716  19.589  0.00  0.00    +0.000 C 
ENDBRANCH  13  18
ENDBRANCH   1  14
BRANCH   6  20
ATOM     20  C   UNL     1       0.567  10.381  18.529  0.00  0.00    +0.000 C 
ATOM     21  C   UNL     1       0.946  11.413  19.297  0.00  0.00    +0.000 C 
ATOM     22  O   UNL     1       0.154  12.447  19.709  0.00  0.00    +0.000 OA
ATOM     23  C   UNL     1      -1.145  12.455  19.120  0.00  0.00    +0.000 C 
ATOM     24  C   UNL     1      -1.665  11.081  18.691  0.00  0.00    +0.000 C 
ATOM     25  O   UNL     1      -0.713  10.245  18.018  0.00  0.00    +0.000 OA
ENDBRANCH   6  20
TORSDOF 4
ENDMDL
MODEL 5
REMARK VINA RESULT:      -6.9      1.056      1.085
REMARK  Name = 
REMARK  6 active torsions:
REMARK  status: ('A' for Active; 'I' for Inactive)
REMARK    1  A    between atoms: C_1  and  O_2
REMARK    2  A    between atoms: O_2  and  C_3
REMARK    3  A    between atoms: C_6  and  O_7
REMARK    4  A    between atoms: O_7  and  C_8
REMARK    5  A    between atoms: C_9  and  C_10
REMARK    6  A    between atoms: C_15  and  C_17
REMARK                            x       y       z     vdW  Elec       q    Type
REMARK                         _______ _______ _______ _____ _____    ______ ____
ROOT
ATOM      1  C   UNL     1       4.692   4.717  17.206  0.00  0.00    +0.000 A 
ATOM      2  C   UNL     1       4.627   3.728  18.169  0.00  0.00    +0.000 A 
ATOM      3  S   UNL     1       3.505   4.163  19.407  0.00  0.00    +0.000 S 
ATOM      4  C   UNL     1       3.263   5.662  18.633  0.00  0.00    +0.000 A 
ATOM      5  N   UNL     1       2.423   6.535  19.272  0.00  0.00    +0.000 N 
ATOM      6  C   UNL     1       2.324   7.853  18.881  0.00  0.00    +0.000 C 
ATOM      7  O   UNL     1       2.941   8.402  17.975  0.00  0.00    +0.000 OA
ATOM      8  N   UNL     1       3.916   5.836  17.517  0.00  0.00    +0.000 NA
ATOM      9  H   UNL     1       1.936   6.218  20.097  0.00  0.00    +0.000 HD
ENDROOT
BRANCH   1  14
ATOM     10  C   UNL     1       5.554   4.069  13.611  0.00  0.00    +0.000 A 
ATOM     11  C   UNL     1       6.880   4.474  13.539  0.00  0.00    +0.000 A 
ATOM     12  C   UNL     1       7.520   5.008  14.658  0.00  0.00    +0.000 A 
ATOM     13  C   UNL     1       6.842   5.145  15.883  0.00  0.00    +0.000 A 
ATOM     14  C   UNL     1       5.500   4.715  15.982  0.00  0.00    +0.000 A 
ATOM     15  C   UNL     1       4.878   4.190  14.824  0.00  0.00    +0.000 A 
BRANCH  10  17
ATOM     16  C   UNL     1       5.793   2.521  11.827  0.00  0.00    +0.000 C 
ATOM     17  O   UNL     1       5.045   3.559  12.451  0.00  0.00    +0.000 OA
ENDBRANCH  10  17
BRANCH  13  18
ATOM     18  O   UNL     1       7.468   5.630  17.010  0.00  0.00    +0.000 OA
ATOM     19  C   UNL     1       7.421   7.039  17.214  0.00  0.00    +0.000 C 
ENDBRANCH  13  18
ENDBRANCH   1  14
BRANCH   6  20
ATOM     20  C   UNL     1       1.393   8.649  19.767  0.00  0.00    +0.000 C 
ATOM     21  C   UNL     1       1.305   8.274  21.052  0.00  0.00    +0.000 C 
ATOM     22  O   UNL     1       0.473   8.810  21.994  0.00  0.00    +0.000 OA
ATOM     23  C   UNL     1      -0.237   9.966  21.553  0.00  0.00    +0.000 C 
ATOM     24  C   UNL     1      -0.476  10.037  20.043  0.00  0.00    +0.000 C 
ATOM     25  O   UNL     1       0.647   9.681  19.225  0.00  0.00    +0.000 OA
ENDBRANCH   6  20
TORSDOF 4
ENDMDL
MODEL 6
REMARK VINA RESULT:      -6.9      3.412      4.760
REMARK  Name = 
REMARK  6 active torsions:
REMARK  status: ('A' for Active; 'I' for Inactive)
REMARK    1  A    between atoms: C_1  and  O_2
REMARK    2  A    between atoms: O_2  and  C_3
REMARK    3  A    between atoms: C_6  and  O_7
REMARK    4  A    between atoms: O_7  and  C_8
REMARK    5  A    between atoms: C_9  and  C_10
REMARK    6  A    between atoms: C_15  and  C_17
REMARK                            x       y       z     vdW  Elec       q    Type
REMARK                         _______ _______ _______ _____ _____    ______ ____
ROOT
ATOM      1  C   UNL     1       2.609   7.076  18.880  0.00  0.00    +0.000 A 
ATOM      2  C   UNL     1       2.327   7.619  17.640  0.00  0.00    +0.000 A 
ATOM      3  S   UNL     1       1.542   9.147  17.816  0.00  0.00    +0.000 S 
ATOM      4  C   UNL     1       1.544   8.931  19.506  0.00  0.00    +0.000 A 
ATOM      5  N   UNL     1       0.928   9.916  20.234  0.00  0.00    +0.000 N 
ATOM      6  C   UNL     1       0.655   9.753  21.575  0.00  0.00    +0.000 C 
ATOM      7  O   UNL     1       0.895   8.767  22.262  0.00  0.00    +0.000 OA
ATOM      8  N   UNL     1       2.116   7.842  19.939  0.00  0.00    +0.000 NA
ATOM      9  H   UNL     1       0.595  10.736  19.749  0.00  0.00    +0.000 HD
ENDROOT
BRANCH   1  14
ATOM     10  C   UNL     1       5.421   4.592  18.976  0.00  0.00    +0.000 A 
ATOM     11  C   UNL     1       4.802   3.452  19.474  0.00  0.00    +0.000 A 
ATOM     12  C   UNL     1       3.453   3.476  19.830  0.00  0.00    +0.000 A 
ATOM     13  C   UNL     1       2.688   4.647  19.689  0.00  0.00    +0.000 A 
ATOM     14  C   UNL     1       3.293   5.810  19.161  0.00  0.00    +0.000 A 
ATOM     15  C   UNL     1       4.667   5.754  18.823  0.00  0.00    +0.000 A 
BRANCH  10  17
ATOM     16  C   UNL     1       7.582   5.568  18.867  0.00  0.00    +0.000 C 
ATOM     17  O   UNL     1       6.740   4.438  18.660  0.00  0.00    +0.000 OA
ENDBRANCH  10  17
BRANCH  13  18
ATOM     18  O   UNL     1       1.345   4.680  19.995  0.00  0.00    +0.000 OA
ATOM     19  C   UNL     1       0.711   3.427  20.235  0.00  0.00    +0.000 C 
ENDBRANCH  13  18
ENDBRANCH   1  14
BRANCH   6  20
ATOM     20  C   UNL     1      -0.089  10.932  22.159  0.00  0.00    +0.000 C 
ATOM     21  C   UNL     1      -1.158  10.661  22.922  0.00  0.00    +0.000 C 
ATOM     22  O   UNL     1      -2.005  11.577  23.480  0.00  0.00    +0.000 OA
ATOM     23  C   UNL     1      -1.582  12.930  23.326  0.00  0.00    +0.000 C 
ATOM     24  C   UNL     1      -0.704  13.193  22.100  0.00  0.00    +0.000 C 
ATOM     25  O   UNL     1       0.320  12.219  21.855  0.00  0.00    +0.000 OA
ENDBRANCH   6  20
TORSDOF 4
ENDMDL
MODEL 7
REMARK VINA RESULT:      -6.8      1.876      3.253
REMARK  Name = 
REMARK  6 active torsions:
REMARK  status: ('A' for Active; 'I' for Inactive)
REMARK    1  A    between atoms: C_1  and  O_2
REMARK    2  A    between atoms: O_2  and  C_3
REMARK    3  A    between atoms: C_6  and  O_7
REMARK    4  A    between atoms: O_7  and  C_8
REMARK    5  A    between atoms: C_9  and  C_10
REMARK    6  A    between atoms: C_15  and  C_17
REMARK                            x       y       z     vdW  Elec       q    Type
REMARK                         _______ _______ _______ _____ _____    ______ ____
ROOT
ATOM      1  C   UNL     1       3.248   6.256  18.762  0.00  0.00    +0.000 A 
ATOM      2  C   UNL     1       2.812   5.702  19.952  0.00  0.00    +0.000 A 
ATOM      3  S   UNL     1       1.605   6.703  20.676  0.00  0.00    +0.000 S 
ATOM      4  C   UNL     1       1.820   7.835  19.421  0.00  0.00    +0.000 A 
ATOM      5  N   UNL     1       1.080   8.984  19.521  0.00  0.00    +0.000 N 
ATOM      6  C   UNL     1       1.327  10.071  18.711  0.00  0.00    +0.000 C 
ATOM      7  O   UNL     1       2.193  10.165  17.849  0.00  0.00    +0.000 OA
ATOM      8  N   UNL     1       2.679   7.504  18.497  0.00  0.00    +0.000 NA
ATOM      9  H   UNL     1       0.401   9.056  20.265  0.00  0.00    +0.000 HD
ENDROOT
BRANCH   1  14
ATOM     10  C   UNL     1       6.441   6.058  16.799  0.00  0.00    +0.000 A 
ATOM     11  C   UNL     1       6.248   4.926  16.018  0.00  0.00    +0.000 A 
ATOM     12  C   UNL     1       5.080   4.171  16.140  0.00  0.00    +0.000 A 
ATOM     13  C   UNL     1       4.072   4.539  17.050  0.00  0.00    +0.000 A 
ATOM     14  C   UNL     1       4.240   5.702  17.835  0.00  0.00    +0.000 A 
ATOM     15  C   UNL     1       5.443   6.437  17.695  0.00  0.00    +0.000 A 
BRANCH  10  17
ATOM     16  C   UNL     1       7.873   7.858  17.388  0.00  0.00    +0.000 C 
ATOM     17  O   UNL     1       7.620   6.712  16.582  0.00  0.00    +0.000 OA
ENDBRANCH  10  17
BRANCH  13  18
ATOM     18  O   UNL     1       2.895   3.832  17.155  0.00  0.00    +0.000 OA
ATOM     19  C   UNL     1       2.971   2.548  17.767  0.00  0.00    +0.000 C 
ENDBRANCH  13  18
ENDBRANCH   1  14
BRANCH   6  20
ATOM     20  C   UNL     1       0.441  11.250  19.040  0.00  0.00    +0.000 C 
ATOM     21  C   UNL     1      -0.660  11.002  19.765  0.00  0.00    +0.000 C 
ATOM     22  O   UNL     1      -1.624  11.909  20.105  0.00  0.00    +0.000 OA
ATOM     23  C   UNL     1      -1.306  13.255  19.758  0.00  0.00    +0.000 C 
ATOM     24  C   UNL     1      -0.356  13.403  18.566  0.00  0.00    +0.000 C 
ATOM     25  O   UNL     1       0.763  12.506  18.555  0.00  0.00    +0.000 OA
ENDBRANCH   6  20
TORSDOF 4
ENDMDL
MODEL 8
REMARK VINA RESULT:      -6.8      1.866      3.279
REMARK  Name = 
REMARK  6 active torsions:
REMARK  status: ('A' for Active; 'I' for Inactive)
REMARK    1  A    between atoms: C_1  and  O_2
REMARK    2  A    between atoms: O_2  and  C_3
REMARK    3  A    between atoms: C_6  and  O_7
REMARK    4  A    between atoms: O_7  and  C_8
REMARK    5  A    between atoms: C_9  and  C_10
REMARK    6  A    between atoms: C_15  and  C_17
REMARK                            x       y       z     vdW  Elec       q    Type
REMARK                         _______ _______ _______ _____ _____    ______ ____
ROOT
ATOM      1  C   UNL     1       3.486   5.189  19.081  0.00  0.00    +0.000 A 
ATOM      2  C   UNL     1       3.275   4.285  20.106  0.00  0.00    +0.000 A 
ATOM      3  S   UNL     1       2.144   4.919  21.247  0.00  0.00    +0.000 S 
ATOM      4  C   UNL     1       2.094   6.373  20.359  0.00  0.00    +0.000 A 
ATOM      5  N   UNL     1       1.317   7.369  20.889  0.00  0.00    +0.000 N 
ATOM      6  C   UNL     1       1.372   8.658  20.404  0.00  0.00    +0.000 C 
ATOM      7  O   UNL     1       2.084   9.075  19.498  0.00  0.00    +0.000 OA
ATOM      8  N   UNL     1       2.814   6.399  19.271  0.00  0.00    +0.000 NA
ATOM      9  H   UNL     1       0.762   7.163  21.707  0.00  0.00    +0.000 HD
ENDROOT
BRANCH   1  14
ATOM     10  C   UNL     1       6.366   5.826  16.761  0.00  0.00    +0.000 A 
ATOM     11  C   UNL     1       6.092   4.979  15.696  0.00  0.00    +0.000 A 
ATOM     12  C   UNL     1       4.973   4.144  15.724  0.00  0.00    +0.000 A 
ATOM     13  C   UNL     1       4.098   4.144  16.825  0.00  0.00    +0.000 A 
ATOM     14  C   UNL     1       4.347   5.017  17.907  0.00  0.00    +0.000 A 
ATOM     15  C   UNL     1       5.498   5.841  17.852  0.00  0.00    +0.000 A 
BRANCH  10  17
ATOM     16  C   UNL     1       7.612   7.716  17.479  0.00  0.00    +0.000 C 
ATOM     17  O   UNL     1       7.485   6.594  16.611  0.00  0.00    +0.000 OA
ENDBRANCH  10  17
BRANCH  13  18
ATOM     18  O   UNL     1       2.966   3.358  16.854  0.00  0.00    +0.000 OA
ATOM     19  C   UNL     1       3.091   2.076  17.460  0.00  0.00    +0.000 C 
ENDBRANCH  13  18
ENDBRANCH   1  14
BRANCH   6  20
ATOM     20  C   UNL     1       0.486   9.605  21.180  0.00  0.00    +0.000 C 
ATOM     21  C   UNL     1       0.073   9.200  22.391  0.00  0.00    +0.000 C 
ATOM     22  O   UNL     1      -0.786   9.869  23.217  0.00  0.00    +0.000 OA
ATOM     23  C   UNL     1      -1.128  11.177  22.764  0.00  0.00    +0.000 C 
ATOM     24  C   UNL     1      -1.053  11.372  21.247  0.00  0.00    +0.000 C 
ATOM     25  O   UNL     1       0.100  10.806  20.610  0.00  0.00    +0.000 OA
ENDBRANCH   6  20
TORSDOF 4
ENDMDL
MODEL 9
REMARK VINA RESULT:      -6.8      2.909      4.693
REMARK  Name = 
REMARK  6 active torsions:
REMARK  status: ('A' for Active; 'I' for Inactive)
REMARK    1  A    between atoms: C_1  and  O_2
REMARK    2  A    between atoms: O_2  and  C_3
REMARK    3  A    between atoms: C_6  and  O_7
REMARK    4  A    between atoms: O_7  and  C_8
REMARK    5  A    between atoms: C_9  and  C_10
REMARK    6  A    between atoms: C_15  and  C_17
REMARK                            x       y       z     vdW  Elec       q    Type
REMARK                         _______ _______ _______ _____ _____    ______ ____
ROOT
ATOM      1  C   UNL     1       2.599   7.042  18.768  0.00  0.00    +0.000 A 
ATOM      2  C   UNL     1       2.502   7.707  17.560  0.00  0.00    +0.000 A 
ATOM      3  S   UNL     1       1.844   9.287  17.792  0.00  0.00    +0.000 S 
ATOM      4  C   UNL     1       1.645   8.939  19.448  0.00  0.00    +0.000 A 
ATOM      5  N   UNL     1       1.046   9.919  20.196  0.00  0.00    +0.000 N 
ATOM      6  C   UNL     1       0.617   9.678  21.483  0.00  0.00    +0.000 C 
ATOM      7  O   UNL     1       0.692   8.622  22.100  0.00  0.00    +0.000 OA
ATOM      8  N   UNL     1       2.067   7.767  19.837  0.00  0.00    +0.000 NA
ATOM      9  H   UNL     1       0.843  10.804  19.756  0.00  0.00    +0.000 HD
ENDROOT
BRANCH   1  14
ATOM     10  C   UNL     1       2.613   3.450  19.857  0.00  0.00    +0.000 A 
ATOM     11  C   UNL     1       3.937   3.080  19.666  0.00  0.00    +0.000 A 
ATOM     12  C   UNL     1       4.858   3.987  19.137  0.00  0.00    +0.000 A 
ATOM     13  C   UNL     1       4.469   5.294  18.791  0.00  0.00    +0.000 A 
ATOM     14  C   UNL     1       3.132   5.696  19.002  0.00  0.00    +0.000 A 
ATOM     15  C   UNL     1       2.221   4.747  19.527  0.00  0.00    +0.000 A 
BRANCH  10  17
ATOM     16  C   UNL     1       1.435   2.630  21.749  0.00  0.00    +0.000 C 
ATOM     17  O   UNL     1       1.815   2.477  20.385  0.00  0.00    +0.000 OA
ENDBRANCH  10  17
BRANCH  13  18
ATOM     18  O   UNL     1       5.371   6.216  18.308  0.00  0.00    +0.000 OA
ATOM     19  C   UNL     1       6.149   5.823  17.181  0.00  0.00    +0.000 C 
ENDBRANCH  13  18
ENDBRANCH   1  14
BRANCH   6  20
ATOM     20  C   UNL     1      -0.075  10.875  22.094  0.00  0.00    +0.000 C 
ATOM     21  C   UNL     1      -1.137  10.632  22.876  0.00  0.00    +0.000 C 
ATOM     22  O   UNL     1      -1.942  11.569  23.460  0.00  0.00    +0.000 OA
ATOM     23  C   UNL     1      -1.478  12.910  23.310  0.00  0.00    +0.000 C 
ATOM     24  C   UNL     1      -0.618  13.156  22.067  0.00  0.00    +0.000 C 
ATOM     25  O   UNL     1       0.368  12.152  21.792  0.00  0.00    +0.000 OA
ENDBRANCH   6  20
TORSDOF 4
ENDMDL
