MODEL 1
REMARK VINA RESULT:      -7.9      0.000      0.000
REMARK  Name = 
REMARK  11 active torsions:
REMARK  status: ('A' for Active; 'I' for Inactive)
REMARK    1  A    between atoms: C_1  and  C_2
REMARK    2  A    between atoms: C_2  and  C_3
REMARK    3  A    between atoms: C_3  and  C_4
REMARK    4  A    between atoms: C_4  and  C_5
REMARK    5  A    between atoms: C_4  and  C_6
REMARK    6  A    between atoms: C_4  and  C_24
REMARK    7  A    between atoms: C_6  and  C_7
REMARK    8  A    between atoms: C_7  and  C_8
REMARK    9  A    between atoms: C_8  and  N_9
REMARK   10  A    between atoms: C_10  and  C_12
REMARK   11  A    between atoms: C_21  and  C_22
REMARK                            x       y       z     vdW  Elec       q    Type
REMARK                         _______ _______ _______ _____ _____    ______ ____
ROOT
ATOM      1  N   UNL     1       7.258   8.068  17.264  0.00  0.00    +0.000 N 
ATOM      2  C   UNL     1       6.673   6.894  17.677  0.00  0.00    +0.000 C 
ATOM      3  O   UNL     1       7.186   6.134  18.495  0.00  0.00    +0.000 OA
ATOM      4  H   UNL     1       6.859   8.542  16.458  0.00  0.00    +0.000 HD
ENDROOT
BRANCH   2   5
ATOM      5  C   UNL     1       5.372   6.529  16.949  0.00  0.00    +0.000 C 
ATOM      6  C   UNL     1       4.193   6.875  17.879  0.00  0.00    +0.000 C 
ATOM      7  C   UNL     1       3.384   5.618  17.852  0.00  0.00    +0.000 A 
ATOM      8  C   UNL     1       2.151   5.411  18.453  0.00  0.00    +0.000 A 
ATOM      9  C   UNL     1       1.549   4.159  18.314  0.00  0.00    +0.000 A 
ATOM     10  C   UNL     1       2.187   3.142  17.591  0.00  0.00    +0.000 A 
ATOM     11  C   UNL     1       3.434   3.365  16.998  0.00  0.00    +0.000 A 
ATOM     12  C   UNL     1       4.025   4.612  17.134  0.00  0.00    +0.000 A 
ATOM     13  N   UNL     1       5.254   5.077  16.614  0.00  0.00    +0.000 N 
ATOM     14  C   UNL     1       6.049   4.367  15.725  0.00  0.00    +0.000 C 
ATOM     15  C   UNL     1       7.318   5.025  15.234  0.00  0.00    +0.000 C 
ATOM     16  O   UNL     1       5.825   3.213  15.362  0.00  0.00    +0.000 OA
ENDBRANCH   2   5
BRANCH   1  17
ATOM     17  C   UNL     1       8.506   8.553  17.811  0.00  0.00    +0.000 C 
BRANCH  17  18
ATOM     18  C   UNL     1       8.423  10.017  18.245  0.00  0.00    +0.000 C 
BRANCH  18  19
ATOM     19  C   UNL     1       9.296  10.304  19.474  0.00  0.00    +0.000 C 
BRANCH  19  20
ATOM     20  C   UNL     1       9.990  11.700  19.506  0.00  0.00    +0.000 C 
ATOM     21  C   UNL     1      11.488  11.526  19.154  0.00  0.00    +0.000 C 
BRANCH  20  22
ATOM     22  C   UNL     1       9.322  12.606  18.427  0.00  0.00    +0.000 C 
ATOM     23  O   UNL     1       8.478  13.598  19.029  0.00  0.00    +0.000 OA
ATOM     24  C   UNL     1       8.617  14.734  18.179  0.00  0.00    +0.000 C 
ATOM     25  C   UNL     1      10.051  14.650  17.731  0.00  0.00    +0.000 C 
ATOM     26  O   UNL     1      10.296  13.252  17.591  0.00  0.00    +0.000 OA
ENDBRANCH  20  22
BRANCH  20  27
ATOM     27  C   UNL     1       9.907  12.376  20.911  0.00  0.00    +0.000 C 
BRANCH  27  29
ATOM     28  C   UNL     1       8.250  12.752  22.789  0.00  0.00    +0.000 C 
ATOM     29  C   UNL     1       8.920  11.724  21.890  0.00  0.00    +0.000 C 
ENDBRANCH  27  29
ENDBRANCH  20  27
ENDBRANCH  19  20
ENDBRANCH  18  19
ENDBRANCH  17  18
ENDBRANCH   1  17
TORSDOF 8
ENDMDL
MODEL 2
REMARK VINA RESULT:      -7.7      1.013      2.375
REMARK  Name = 
REMARK  11 active torsions:
REMARK  status: ('A' for Active; 'I' for Inactive)
REMARK    1  A    between atoms: C_1  and  C_2
REMARK    2  A    between atoms: C_2  and  C_3
REMARK    3  A    between atoms: C_3  and  C_4
REMARK    4  A    between atoms: C_4  and  C_5
REMARK    5  A    between atoms: C_4  and  C_6
REMARK    6  A    between atoms: C_4  and  C_24
REMARK    7  A    between atoms: C_6  and  C_7
REMARK    8  A    between atoms: C_7  and  C_8
REMARK    9  A    between atoms: C_8  and  N_9
REMARK   10  A    between atoms: C_10  and  C_12
REMARK   11  A    between atoms: C_21  and  C_22
REMARK                            x       y       z     vdW  Elec       q    Type
REMARK                         _______ _______ _______ _____ _____    ______ ____
ROOT
ATOM      1  N   UNL     1       7.083   8.018  17.261  0.00  0.00    +0.000 N 
ATOM      2  C   UNL     1       6.542   6.824  17.676  0.00  0.00    +0.000 C 
ATOM      3  O   UNL     1       7.084   6.083  18.492  0.00  0.00    +0.000 OA
ATOM      4  H   UNL     1       6.665   8.478  16.457  0.00  0.00    +0.000 HD
ENDROOT
BRANCH   2   5
ATOM      5  C   UNL     1       5.253   6.413  16.952  0.00  0.00    +0.000 C 
ATOM      6  C   UNL     1       4.063   6.745  17.874  0.00  0.00    +0.000 C 
ATOM      7  C   UNL     1       3.287   5.467  17.867  0.00  0.00    +0.000 A 
ATOM      8  C   UNL     1       2.058   5.239  18.469  0.00  0.00    +0.000 A 
ATOM      9  C   UNL     1       1.489   3.969  18.351  0.00  0.00    +0.000 A 
ATOM     10  C   UNL     1       2.154   2.957  17.647  0.00  0.00    +0.000 A 
ATOM     11  C   UNL     1       3.396   3.202  17.052  0.00  0.00    +0.000 A 
ATOM     12  C   UNL     1       3.955   4.466  17.167  0.00  0.00    +0.000 A 
ATOM     13  N   UNL     1       5.173   4.954  16.641  0.00  0.00    +0.000 N 
ATOM     14  C   UNL     1       5.987   4.249  15.766  0.00  0.00    +0.000 C 
ATOM     15  C   UNL     1       7.240   4.931  15.266  0.00  0.00    +0.000 C 
ATOM     16  O   UNL     1       5.793   3.084  15.423  0.00  0.00    +0.000 OA
ENDBRANCH   2   5
BRANCH   1  17
ATOM     17  C   UNL     1       8.315   8.547  17.805  0.00  0.00    +0.000 C 
BRANCH  17  18
ATOM     18  C   UNL     1       8.217  10.039  18.126  0.00  0.00    +0.000 C 
BRANCH  18  19
ATOM     19  C   UNL     1       9.599  10.676  18.335  0.00  0.00    +0.000 C 
BRANCH  19  20
ATOM     20  C   UNL     1       9.662  12.227  18.194  0.00  0.00    +0.000 C 
ATOM     21  C   UNL     1       8.353  12.727  17.534  0.00  0.00    +0.000 C 
BRANCH  20  22
ATOM     22  C   UNL     1       9.775  12.846  19.621  0.00  0.00    +0.000 C 
ATOM     23  O   UNL     1       8.577  13.551  19.979  0.00  0.00    +0.000 OA
ATOM     24  C   UNL     1       8.454  13.333  21.382  0.00  0.00    +0.000 C 
ATOM     25  C   UNL     1       8.992  11.939  21.559  0.00  0.00    +0.000 C 
ATOM     26  O   UNL     1      10.059  11.850  20.617  0.00  0.00    +0.000 OA
ENDBRANCH  20  22
BRANCH  20  27
ATOM     27  C   UNL     1      10.854  12.696  17.301  0.00  0.00    +0.000 C 
BRANCH  27  29
ATOM     28  C   UNL     1      11.206  15.188  17.020  0.00  0.00    +0.000 C 
ATOM     29  C   UNL     1      11.594  13.944  17.804  0.00  0.00    +0.000 C 
ENDBRANCH  27  29
ENDBRANCH  20  27
ENDBRANCH  19  20
ENDBRANCH  18  19
ENDBRANCH  17  18
ENDBRANCH   1  17
TORSDOF 8
ENDMDL
MODEL 3
REMARK VINA RESULT:      -7.6      5.900      9.505
REMARK  Name = 
REMARK  11 active torsions:
REMARK  status: ('A' for Active; 'I' for Inactive)
REMARK    1  A    between atoms: C_1  and  C_2
REMARK    2  A    between atoms: C_2  and  C_3
REMARK    3  A    between atoms: C_3  and  C_4
REMARK    4  A    between atoms: C_4  and  C_5
REMARK    5  A    between atoms: C_4  and  C_6
REMARK    6  A    between atoms: C_4  and  C_24
REMARK    7  A    between atoms: C_6  and  C_7
REMARK    8  A    between atoms: C_7  and  C_8
REMARK    9  A    between atoms: C_8  and  N_9
REMARK   10  A    between atoms: C_10  and  C_12
REMARK   11  A    between atoms: C_21  and  C_22
REMARK                            x       y       z     vdW  Elec       q    Type
REMARK                         _______ _______ _______ _____ _____    ______ ____
ROOT
ATOM      1  N   UNL     1       0.962   9.079  18.440  0.00  0.00    +0.000 N 
ATOM      2  C   UNL     1       0.693  10.264  19.082  0.00  0.00    +0.000 C 
ATOM      3  O   UNL     1       1.455  11.228  19.072  0.00  0.00    +0.000 OA
ATOM      4  H   UNL     1       0.371   8.279  18.647  0.00  0.00    +0.000 HD
ENDROOT
BRANCH   2   5
ATOM      5  C   UNL     1      -0.589  10.264  19.927  0.00  0.00    +0.000 C 
ATOM      6  C   UNL     1      -1.503  11.391  19.406  0.00  0.00    +0.000 C 
ATOM      7  C   UNL     1      -1.869  12.114  20.661  0.00  0.00    +0.000 A 
ATOM      8  C   UNL     1      -2.759  13.171  20.782  0.00  0.00    +0.000 A 
ATOM      9  C   UNL     1      -2.970  13.717  22.050  0.00  0.00    +0.000 A 
ATOM     10  C   UNL     1      -2.290  13.207  23.163  0.00  0.00    +0.000 A 
ATOM     11  C   UNL     1      -1.390  12.146  23.023  0.00  0.00    +0.000 A 
ATOM     12  C   UNL     1      -1.187  11.603  21.764  0.00  0.00    +0.000 A 
ATOM     13  N   UNL     1      -0.356  10.526  21.379  0.00  0.00    +0.000 N 
ATOM     14  C   UNL     1       0.328   9.708  22.267  0.00  0.00    +0.000 C 
ATOM     15  C   UNL     1       1.147   8.575  21.693  0.00  0.00    +0.000 C 
ATOM     16  O   UNL     1       0.368   9.884  23.484  0.00  0.00    +0.000 OA
ENDBRANCH   2   5
BRANCH   1  17
ATOM     17  C   UNL     1       2.144   8.882  17.629  0.00  0.00    +0.000 C 
BRANCH  17  18
ATOM     18  C   UNL     1       3.041   7.767  18.168  0.00  0.00    +0.000 C 
BRANCH  18  19
ATOM     19  C   UNL     1       2.394   6.383  18.016  0.00  0.00    +0.000 C 
BRANCH  19  20
ATOM     20  C   UNL     1       3.335   5.162  18.247  0.00  0.00    +0.000 C 
ATOM     21  C   UNL     1       2.863   3.987  17.355  0.00  0.00    +0.000 C 
BRANCH  20  22
ATOM     22  C   UNL     1       4.780   5.567  17.823  0.00  0.00    +0.000 C 
ATOM     23  O   UNL     1       5.765   4.867  18.596  0.00  0.00    +0.000 OA
ATOM     24  C   UNL     1       6.838   4.657  17.681  0.00  0.00    +0.000 C 
ATOM     25  C   UNL     1       6.131   4.446  16.370  0.00  0.00    +0.000 C 
ATOM     26  O   UNL     1       5.014   5.330  16.424  0.00  0.00    +0.000 OA
ENDBRANCH  20  22
BRANCH  20  27
ATOM     27  C   UNL     1       3.320   4.670  19.729  0.00  0.00    +0.000 C 
BRANCH  27  29
ATOM     28  C   UNL     1       1.053   3.980  20.620  0.00  0.00    +0.000 C 
ATOM     29  C   UNL     1       2.088   5.091  20.543  0.00  0.00    +0.000 C 
ENDBRANCH  27  29
ENDBRANCH  20  27
ENDBRANCH  19  20
ENDBRANCH  18  19
ENDBRANCH  17  18
ENDBRANCH   1  17
TORSDOF 8
ENDMDL
MODEL 4
REMARK VINA RESULT:      -7.6      5.933     10.053
REMARK  Name = 
REMARK  11 active torsions:
REMARK  status: ('A' for Active; 'I' for Inactive)
REMARK    1  A    between atoms: C_1  and  C_2
REMARK    2  A    between atoms: C_2  and  C_3
REMARK    3  A    between atoms: C_3  and  C_4
REMARK    4  A    between atoms: C_4  and  C_5
REMARK    5  A    between atoms: C_4  and  C_6
REMARK    6  A    between atoms: C_4  and  C_24
REMARK    7  A    between atoms: C_6  and  C_7
REMARK    8  A    between atoms: C_7  and  C_8
REMARK    9  A    between atoms: C_8  and  N_9
REMARK   10  A    between atoms: C_10  and  C_12
REMARK   11  A    between atoms: C_21  and  C_22
REMARK                            x       y       z     vdW  Elec       q    Type
REMARK                         _______ _______ _______ _____ _____    ______ ____
ROOT
ATOM      1  N   UNL     1       0.941   9.036  18.406  0.00  0.00    +0.000 N 
ATOM      2  C   UNL     1       0.724  10.209  19.091  0.00  0.00    +0.000 C 
ATOM      3  O   UNL     1       1.527  11.138  19.113  0.00  0.00    +0.000 OA
ATOM      4  H   UNL     1       0.316   8.256  18.586  0.00  0.00    +0.000 HD
ENDROOT
BRANCH   2   5
ATOM      5  C   UNL     1      -0.557  10.235  19.936  0.00  0.00    +0.000 C 
ATOM      6  C   UNL     1      -1.451  11.376  19.412  0.00  0.00    +0.000 C 
ATOM      7  C   UNL     1      -1.803  12.110  20.665  0.00  0.00    +0.000 A 
ATOM      8  C   UNL     1      -2.673  13.183  20.783  0.00  0.00    +0.000 A 
ATOM      9  C   UNL     1      -2.873  13.738  22.048  0.00  0.00    +0.000 A 
ATOM     10  C   UNL     1      -2.200  13.221  23.163  0.00  0.00    +0.000 A 
ATOM     11  C   UNL     1      -1.320  12.143  23.026  0.00  0.00    +0.000 A 
ATOM     12  C   UNL     1      -1.129  11.591  21.768  0.00  0.00    +0.000 A 
ATOM     13  N   UNL     1      -0.317  10.499  21.388  0.00  0.00    +0.000 N 
ATOM     14  C   UNL     1       0.354   9.672  22.278  0.00  0.00    +0.000 C 
ATOM     15  C   UNL     1       1.151   8.522  21.708  0.00  0.00    +0.000 C 
ATOM     16  O   UNL     1       0.397   9.852  23.494  0.00  0.00    +0.000 OA
ENDBRANCH   2   5
BRANCH   1  17
ATOM     17  C   UNL     1       2.114   8.817  17.587  0.00  0.00    +0.000 C 
BRANCH  17  18
ATOM     18  C   UNL     1       3.068   7.791  18.200  0.00  0.00    +0.000 C 
BRANCH  18  19
ATOM     19  C   UNL     1       2.533   6.358  18.071  0.00  0.00    +0.000 C 
BRANCH  19  20
ATOM     20  C   UNL     1       3.605   5.249  17.841  0.00  0.00    +0.000 C 
ATOM     21  C   UNL     1       4.406   5.043  19.151  0.00  0.00    +0.000 C 
BRANCH  20  22
ATOM     22  C   UNL     1       2.870   3.920  17.487  0.00  0.00    +0.000 C 
ATOM     23  O   UNL     1       3.344   2.831  18.293  0.00  0.00    +0.000 OA
ATOM     24  C   UNL     1       2.189   2.022  18.497  0.00  0.00    +0.000 C 
ATOM     25  C   UNL     1       1.076   3.031  18.576  0.00  0.00    +0.000 C 
ATOM     26  O   UNL     1       1.445   4.039  17.637  0.00  0.00    +0.000 OA
ENDBRANCH  20  22
BRANCH  20  27
ATOM     27  C   UNL     1       4.621   5.625  16.717  0.00  0.00    +0.000 C 
BRANCH  27  29
ATOM     28  C   UNL     1       5.910   4.020  15.242  0.00  0.00    +0.000 C 
ATOM     29  C   UNL     1       5.839   4.697  16.602  0.00  0.00    +0.000 C 
ENDBRANCH  27  29
ENDBRANCH  20  27
ENDBRANCH  19  20
ENDBRANCH  18  19
ENDBRANCH  17  18
ENDBRANCH   1  17
TORSDOF 8
ENDMDL
MODEL 5
REMARK VINA RESULT:      -7.6      6.070     10.198
REMARK  Name = 
REMARK  11 active torsions:
REMARK  status: ('A' for Active; 'I' for Inactive)
REMARK    1  A    between atoms: C_1  and  C_2
REMARK    2  A    between atoms: C_2  and  C_3
REMARK    3  A    between atoms: C_3  and  C_4
REMARK    4  A    between atoms: C_4  and  C_5
REMARK    5  A    between atoms: C_4  and  C_6
REMARK    6  A    between atoms: C_4  and  C_24
REMARK    7  A    between atoms: C_6  and  C_7
REMARK    8  A    between atoms: C_7  and  C_8
REMARK    9  A    between atoms: C_8  and  N_9
REMARK   10  A    between atoms: C_10  and  C_12
REMARK   11  A    between atoms: C_21  and  C_22
REMARK                            x       y       z     vdW  Elec       q    Type
REMARK                         _______ _______ _______ _____ _____    ______ ____
ROOT
ATOM      1  N   UNL     1       1.407   9.185  18.685  0.00  0.00    +0.000 N 
ATOM      2  C   UNL     1       0.934  10.384  19.163  0.00  0.00    +0.000 C 
ATOM      3  O   UNL     1       1.559  11.439  19.085  0.00  0.00    +0.000 OA
ATOM      4  H   UNL     1       0.914   8.337  18.949  0.00  0.00    +0.000 HD
ENDROOT
BRANCH   2   5
ATOM      5  C   UNL     1      -0.398  10.297  19.922  0.00  0.00    +0.000 C 
ATOM      6  C   UNL     1      -1.323  11.409  19.390  0.00  0.00    +0.000 C 
ATOM      7  C   UNL     1      -1.798  12.060  20.649  0.00  0.00    +0.000 A 
ATOM      8  C   UNL     1      -2.737  13.075  20.756  0.00  0.00    +0.000 A 
ATOM      9  C   UNL     1      -3.051  13.555  22.029  0.00  0.00    +0.000 A 
ATOM     10  C   UNL     1      -2.422  13.023  23.162  0.00  0.00    +0.000 A 
ATOM     11  C   UNL     1      -1.472  12.004  23.036  0.00  0.00    +0.000 A 
ATOM     12  C   UNL     1      -1.167  11.527  21.770  0.00  0.00    +0.000 A 
ATOM     13  N   UNL     1      -0.268  10.502  21.396  0.00  0.00    +0.000 N 
ATOM     14  C   UNL     1       0.392   9.672  22.291  0.00  0.00    +0.000 C 
ATOM     15  C   UNL     1       1.291   8.599  21.724  0.00  0.00    +0.000 C 
ATOM     16  O   UNL     1       0.346   9.795  23.515  0.00  0.00    +0.000 OA
ENDBRANCH   2   5
BRANCH   1  17
ATOM     17  C   UNL     1       2.664   9.069  17.977  0.00  0.00    +0.000 C 
BRANCH  17  18
ATOM     18  C   UNL     1       3.073   7.613  17.752  0.00  0.00    +0.000 C 
BRANCH  18  19
ATOM     19  C   UNL     1       2.038   6.630  18.315  0.00  0.00    +0.000 C 
BRANCH  19  20
ATOM     20  C   UNL     1       2.601   5.273  18.838  0.00  0.00    +0.000 C 
ATOM     21  C   UNL     1       4.064   5.479  19.300  0.00  0.00    +0.000 C 
BRANCH  20  22
ATOM     22  C   UNL     1       1.745   4.824  20.061  0.00  0.00    +0.000 C 
ATOM     23  O   UNL     1       0.969   3.656  19.755  0.00  0.00    +0.000 OA
ATOM     24  C   UNL     1       0.938   2.929  20.980  0.00  0.00    +0.000 C 
ATOM     25  C   UNL     1       2.289   3.212  21.578  0.00  0.00    +0.000 C 
ATOM     26  O   UNL     1       2.559   4.566  21.218  0.00  0.00    +0.000 OA
ENDBRANCH  20  22
BRANCH  20  27
ATOM     27  C   UNL     1       2.602   4.164  17.737  0.00  0.00    +0.000 C 
BRANCH  27  29
ATOM     28  C   UNL     1       3.449   1.812  18.138  0.00  0.00    +0.000 C 
ATOM     29  C   UNL     1       3.823   3.234  17.751  0.00  0.00    +0.000 C 
ENDBRANCH  27  29
ENDBRANCH  20  27
ENDBRANCH  19  20
ENDBRANCH  18  19
ENDBRANCH  17  18
ENDBRANCH   1  17
TORSDOF 8
ENDMDL
MODEL 6
REMARK VINA RESULT:      -7.5      1.680      2.957
REMARK  Name = 
REMARK  11 active torsions:
REMARK  status: ('A' for Active; 'I' for Inactive)
REMARK    1  A    between atoms: C_1  and  C_2
REMARK    2  A    between atoms: C_2  and  C_3
REMARK    3  A    between atoms: C_3  and  C_4
REMARK    4  A    between atoms: C_4  and  C_5
REMARK    5  A    between atoms: C_4  and  C_6
REMARK    6  A    between atoms: C_4  and  C_24
REMARK    7  A    between atoms: C_6  and  C_7
REMARK    8  A    between atoms: C_7  and  C_8
REMARK    9  A    between atoms: C_8  and  N_9
REMARK   10  A    between atoms: C_10  and  C_12
REMARK   11  A    between atoms: C_21  and  C_22
REMARK                            x       y       z     vdW  Elec       q    Type
REMARK                         _______ _______ _______ _____ _____    ______ ____
ROOT
ATOM      1  N   UNL     1       6.461   7.484  17.706  0.00  0.00    +0.000 N 
ATOM      2  C   UNL     1       5.934   6.663  16.737  0.00  0.00    +0.000 C 
ATOM      3  O   UNL     1       6.556   6.306  15.741  0.00  0.00    +0.000 OA
ATOM      4  H   UNL     1       5.828   7.875  18.397  0.00  0.00    +0.000 HD
ENDROOT
BRANCH   2   5
ATOM      5  C   UNL     1       4.452   6.312  16.926  0.00  0.00    +0.000 C 
ATOM      6  C   UNL     1       3.790   7.452  17.726  0.00  0.00    +0.000 C 
ATOM      7  C   UNL     1       3.071   6.710  18.805  0.00  0.00    +0.000 A 
ATOM      8  C   UNL     1       2.226   7.250  19.764  0.00  0.00    +0.000 A 
ATOM      9  C   UNL     1       1.644   6.388  20.695  0.00  0.00    +0.000 A 
ATOM     10  C   UNL     1       1.919   5.015  20.658  0.00  0.00    +0.000 A 
ATOM     11  C   UNL     1       2.778   4.487  19.689  0.00  0.00    +0.000 A 
ATOM     12  C   UNL     1       3.350   5.346  18.763  0.00  0.00    +0.000 A 
ATOM     13  N   UNL     1       4.222   5.049  17.691  0.00  0.00    +0.000 N 
ATOM     14  C   UNL     1       4.561   3.765  17.288  0.00  0.00    +0.000 C 
ATOM     15  C   UNL     1       5.478   3.621  16.096  0.00  0.00    +0.000 C 
ATOM     16  O   UNL     1       4.219   2.740  17.875  0.00  0.00    +0.000 OA
ENDBRANCH   2   5
BRANCH   1  17
ATOM     17  C   UNL     1       7.831   7.949  17.674  0.00  0.00    +0.000 C 
BRANCH  17  18
ATOM     18  C   UNL     1       7.933   9.471  17.775  0.00  0.00    +0.000 C 
BRANCH  18  19
ATOM     19  C   UNL     1       8.999   9.911  18.789  0.00  0.00    +0.000 C 
BRANCH  19  20
ATOM     20  C   UNL     1       9.600  11.333  18.572  0.00  0.00    +0.000 C 
ATOM     21  C   UNL     1       8.561  12.210  17.830  0.00  0.00    +0.000 C 
BRANCH  20  22
ATOM     22  C   UNL     1       9.885  11.965  19.968  0.00  0.00    +0.000 C 
ATOM     23  O   UNL     1       9.188  13.208  20.131  0.00  0.00    +0.000 OA
ATOM     24  C   UNL     1       8.847  13.237  21.514  0.00  0.00    +0.000 C 
ATOM     25  C   UNL     1       8.581  11.790  21.829  0.00  0.00    +0.000 C 
ATOM     26  O   UNL     1       9.532  11.076  21.041  0.00  0.00    +0.000 OA
ENDBRANCH  20  22
BRANCH  20  27
ATOM     27  C   UNL     1      10.901  11.306  17.710  0.00  0.00    +0.000 C 
BRANCH  27  29
ATOM     28  C   UNL     1      11.996  13.315  16.625  0.00  0.00    +0.000 C 
ATOM     29  C   UNL     1      11.836  12.508  17.904  0.00  0.00    +0.000 C 
ENDBRANCH  27  29
ENDBRANCH  20  27
ENDBRANCH  19  20
ENDBRANCH  18  19
ENDBRANCH  17  18
ENDBRANCH   1  17
TORSDOF 8
ENDMDL
MODEL 7
REMARK VINA RESULT:      -7.5      2.294      9.838
REMARK  Name = 
REMARK  11 active torsions:
REMARK  status: ('A' for Active; 'I' for Inactive)
REMARK    1  A    between atoms: C_1  and  C_2
REMARK    2  A    between atoms: C_2  and  C_3
REMARK    3  A    between atoms: C_3  and  C_4
REMARK    4  A    between atoms: C_4  and  C_5
REMARK    5  A    between atoms: C_4  and  C_6
REMARK    6  A    between atoms: C_4  and  C_24
REMARK    7  A    between atoms: C_6  and  C_7
REMARK    8  A    between atoms: C_7  and  C_8
REMARK    9  A    between atoms: C_8  and  N_9
REMARK   10  A    between atoms: C_10  and  C_12
REMARK   11  A    between atoms: C_21  and  C_22
REMARK                            x       y       z     vdW  Elec       q    Type
REMARK                         _______ _______ _______ _____ _____    ______ ____
ROOT
ATOM      1  N   UNL     1       8.859   9.597  18.885  0.00  0.00    +0.000 N 
ATOM      2  C   UNL     1       9.109  10.949  18.898  0.00  0.00    +0.000 C 
ATOM      3  O   UNL     1       8.796  11.704  17.982  0.00  0.00    +0.000 OA
ATOM      4  H   UNL     1       9.309   9.022  19.592  0.00  0.00    +0.000 HD
ENDROOT
BRANCH   2   5
ATOM      5  C   UNL     1       9.926  11.443  20.100  0.00  0.00    +0.000 C 
ATOM      6  C   UNL     1       8.963  11.625  21.289  0.00  0.00    +0.000 C 
ATOM      7  C   UNL     1       9.300  13.000  21.768  0.00  0.00    +0.000 A 
ATOM      8  C   UNL     1       8.788  13.639  22.887  0.00  0.00    +0.000 A 
ATOM      9  C   UNL     1       9.230  14.933  23.171  0.00  0.00    +0.000 A 
ATOM     10  C   UNL     1      10.161  15.563  22.335  0.00  0.00    +0.000 A 
ATOM     11  C   UNL     1      10.662  14.907  21.207  0.00  0.00    +0.000 A 
ATOM     12  C   UNL     1      10.225  13.621  20.931  0.00  0.00    +0.000 A 
ATOM     13  N   UNL     1      10.598  12.759  19.875  0.00  0.00    +0.000 N 
ATOM     14  C   UNL     1      11.615  13.023  18.969  0.00  0.00    +0.000 C 
ATOM     15  C   UNL     1      11.913  11.978  17.920  0.00  0.00    +0.000 C 
ATOM     16  O   UNL     1      12.244  14.080  18.920  0.00  0.00    +0.000 OA
ENDBRANCH   2   5
BRANCH   1  17
ATOM     17  C   UNL     1       8.136   8.948  17.813  0.00  0.00    +0.000 C 
BRANCH  17  18
ATOM     18  C   UNL     1       8.040   7.434  18.008  0.00  0.00    +0.000 C 
BRANCH  18  19
ATOM     19  C   UNL     1       6.860   6.828  17.236  0.00  0.00    +0.000 C 
BRANCH  19  20
ATOM     20  C   UNL     1       6.525   5.340  17.562  0.00  0.00    +0.000 C 
ATOM     21  C   UNL     1       7.835   4.597  17.923  0.00  0.00    +0.000 C 
BRANCH  20  22
ATOM     22  C   UNL     1       5.573   5.310  18.797  0.00  0.00    +0.000 C 
ATOM     23  O   UNL     1       4.214   5.565  18.414  0.00  0.00    +0.000 OA
ATOM     24  C   UNL     1       3.446   4.757  19.302  0.00  0.00    +0.000 C 
ATOM     25  C   UNL     1       4.314   3.543  19.495  0.00  0.00    +0.000 C 
ATOM     26  O   UNL     1       5.644   4.056  19.497  0.00  0.00    +0.000 OA
ENDBRANCH  20  22
BRANCH  20  27
ATOM     27  C   UNL     1       5.873   4.597  16.353  0.00  0.00    +0.000 C 
BRANCH  27  29
ATOM     28  C   UNL     1       5.932   4.036  13.885  0.00  0.00    +0.000 C 
ATOM     29  C   UNL     1       6.716   4.576  15.070  0.00  0.00    +0.000 C 
ENDBRANCH  27  29
ENDBRANCH  20  27
ENDBRANCH  19  20
ENDBRANCH  18  19
ENDBRANCH  17  18
ENDBRANCH   1  17
TORSDOF 8
ENDMDL
MODEL 8
REMARK VINA RESULT:      -7.4      5.544      7.603
REMARK  Name = 
REMARK  11 active torsions:
REMARK  status: ('A' for Active; 'I' for Inactive)
REMARK    1  A    between atoms: C_1  and  C_2
REMARK    2  A    between atoms: C_2  and  C_3
REMARK    3  A    between atoms: C_3  and  C_4
REMARK    4  A    between atoms: C_4  and  C_5
REMARK    5  A    between atoms: C_4  and  C_6
REMARK    6  A    between atoms: C_4  and  C_24
REMARK    7  A    between atoms: C_6  and  C_7
REMARK    8  A    between atoms: C_7  and  C_8
REMARK    9  A    between atoms: C_8  and  N_9
REMARK   10  A    between atoms: C_10  and  C_12
REMARK   11  A    between atoms: C_21  and  C_22
REMARK                            x       y       z     vdW  Elec       q    Type
REMARK                         _______ _______ _______ _____ _____    ______ ____
ROOT
ATOM      1  N   UNL     1       2.715   6.988  19.098  0.00  0.00    +0.000 N 
ATOM      2  C   UNL     1       2.712   5.849  19.869  0.00  0.00    +0.000 C 
ATOM      3  O   UNL     1       2.041   5.726  20.890  0.00  0.00    +0.000 OA
ATOM      4  H   UNL     1       3.428   7.076  18.379  0.00  0.00    +0.000 HD
ENDROOT
BRANCH   2   5
ATOM      5  C   UNL     1       3.709   4.769  19.428  0.00  0.00    +0.000 C 
ATOM      6  C   UNL     1       5.114   5.402  19.395  0.00  0.00    +0.000 C 
ATOM      7  C   UNL     1       5.615   4.999  18.046  0.00  0.00    +0.000 A 
ATOM      8  C   UNL     1       6.881   5.228  17.527  0.00  0.00    +0.000 A 
ATOM      9  C   UNL     1       7.161   4.771  16.237  0.00  0.00    +0.000 A 
ATOM     10  C   UNL     1       6.179   4.106  15.493  0.00  0.00    +0.000 A 
ATOM     11  C   UNL     1       4.905   3.889  16.028  0.00  0.00    +0.000 A 
ATOM     12  C   UNL     1       4.633   4.339  17.310  0.00  0.00    +0.000 A 
ATOM     13  N   UNL     1       3.443   4.221  18.064  0.00  0.00    +0.000 N 
ATOM     14  C   UNL     1       2.338   3.478  17.673  0.00  0.00    +0.000 C 
ATOM     15  C   UNL     1       1.157   3.424  18.614  0.00  0.00    +0.000 C 
ATOM     16  O   UNL     1       2.229   2.917  16.583  0.00  0.00    +0.000 OA
ENDBRANCH   2   5
BRANCH   1  17
ATOM     17  C   UNL     1       1.868   8.126  19.384  0.00  0.00    +0.000 C 
BRANCH  17  18
ATOM     18  C   UNL     1       1.646   9.010  18.156  0.00  0.00    +0.000 C 
BRANCH  18  19
ATOM     19  C   UNL     1       1.293  10.454  18.542  0.00  0.00    +0.000 C 
BRANCH  19  20
ATOM     20  C   UNL     1      -0.227  10.764  18.700  0.00  0.00    +0.000 C 
ATOM     21  C   UNL     1      -0.665  10.413  20.144  0.00  0.00    +0.000 C 
BRANCH  20  22
ATOM     22  C   UNL     1      -0.444  12.290  18.466  0.00  0.00    +0.000 C 
ATOM     23  O   UNL     1      -1.239  12.870  19.511  0.00  0.00    +0.000 OA
ATOM     24  C   UNL     1      -0.707  14.183  19.664  0.00  0.00    +0.000 C 
ATOM     25  C   UNL     1       0.760  13.989  19.392  0.00  0.00    +0.000 C 
ATOM     26  O   UNL     1       0.802  13.000  18.365  0.00  0.00    +0.000 OA
ENDBRANCH  20  22
BRANCH  20  27
ATOM     27  C   UNL     1      -1.111   9.931  17.719  0.00  0.00    +0.000 C 
BRANCH  27  29
ATOM     28  C   UNL     1      -2.975   9.860  16.007  0.00  0.00    +0.000 C 
ATOM     29  C   UNL     1      -2.167  10.737  16.950  0.00  0.00    +0.000 C 
ENDBRANCH  27  29
ENDBRANCH  20  27
ENDBRANCH  19  20
ENDBRANCH  18  19
ENDBRANCH  17  18
ENDBRANCH   1  17
TORSDOF 8
ENDMDL
MODEL 9
REMARK VINA RESULT:      -7.4      6.019      9.736
REMARK  Name = 
REMARK  11 active torsions:
REMARK  status: ('A' for Active; 'I' for Inactive)
REMARK    1  A    between atoms: C_1  and  C_2
REMARK    2  A    between atoms: C_2  and  C_3
REMARK    3  A    between atoms: C_3  and  C_4
REMARK    4  A    between atoms: C_4  and  C_5
REMARK    5  A    between atoms: C_4  and  C_6
REMARK    6  A    between atoms: C_4  and  C_24
REMARK    7  A    between atoms: C_6  and  C_7
REMARK    8  A    between atoms: C_7  and  C_8
REMARK    9  A    between atoms: C_8  and  N_9
REMARK   10  A    between atoms: C_10  and  C_12
REMARK   11  A    between atoms: C_21  and  C_22
REMARK                            x       y       z     vdW  Elec       q    Type
REMARK                         _______ _______ _______ _____ _____    ______ ____
ROOT
ATOM      1  N   UNL     1       1.540   8.095  21.188  0.00  0.00    +0.000 N 
ATOM      2  C   UNL     1       0.300   8.611  21.485  0.00  0.00    +0.000 C 
ATOM      3  O   UNL     1      -0.731   7.945  21.467  0.00  0.00    +0.000 OA
ATOM      4  H   UNL     1       2.307   8.747  21.049  0.00  0.00    +0.000 HD
ENDROOT
BRANCH   2   5
ATOM      5  C   UNL     1       0.273  10.126  21.727  0.00  0.00    +0.000 C 
ATOM      6  C   UNL     1      -0.514  10.386  23.027  0.00  0.00    +0.000 C 
ATOM      7  C   UNL     1      -1.483  11.445  22.610  0.00  0.00    +0.000 A 
ATOM      8  C   UNL     1      -2.380  12.117  23.425  0.00  0.00    +0.000 A 
ATOM      9  C   UNL     1      -3.209  13.080  22.845  0.00  0.00    +0.000 A 
ATOM     10  C   UNL     1      -3.132  13.346  21.472  0.00  0.00    +0.000 A 
ATOM     11  C   UNL     1      -2.226  12.654  20.663  0.00  0.00    +0.000 A 
ATOM     12  C   UNL     1      -1.402  11.702  21.243  0.00  0.00    +0.000 A 
ATOM     13  N   UNL     1      -0.405  10.899  20.643  0.00  0.00    +0.000 N 
ATOM     14  C   UNL     1       0.025  11.034  19.331  0.00  0.00    +0.000 C 
ATOM     15  C   UNL     1       1.129  10.118  18.855  0.00  0.00    +0.000 C 
ATOM     16  O   UNL     1      -0.478  11.801  18.511  0.00  0.00    +0.000 OA
ENDBRANCH   2   5
BRANCH   1  17
ATOM     17  C   UNL     1       1.752   6.694  20.894  0.00  0.00    +0.000 C 
BRANCH  17  18
ATOM     18  C   UNL     1       2.521   6.483  19.589  0.00  0.00    +0.000 C 
BRANCH  18  19
ATOM     19  C   UNL     1       3.565   5.363  19.710  0.00  0.00    +0.000 C 
BRANCH  19  20
ATOM     20  C   UNL     1       3.377   4.150  18.749  0.00  0.00    +0.000 C 
ATOM     21  C   UNL     1       2.187   4.439  17.801  0.00  0.00    +0.000 C 
BRANCH  20  22
ATOM     22  C   UNL     1       4.673   3.993  17.897  0.00  0.00    +0.000 C 
ATOM     23  O   UNL     1       4.787   5.041  16.924  0.00  0.00    +0.000 OA
ATOM     24  C   UNL     1       6.188   5.283  16.837  0.00  0.00    +0.000 C 
ATOM     25  C   UNL     1       6.663   5.048  18.245  0.00  0.00    +0.000 C 
ATOM     26  O   UNL     1       5.854   3.971  18.716  0.00  0.00    +0.000 OA
ENDBRANCH  20  22
BRANCH  20  27
ATOM     27  C   UNL     1       3.065   2.825  19.515  0.00  0.00    +0.000 C 
BRANCH  27  29
ATOM     28  C   UNL     1       1.287   2.800  21.318  0.00  0.00    +0.000 C 
ATOM     29  C   UNL     1       2.764   2.994  21.011  0.00  0.00    +0.000 C 
ENDBRANCH  27  29
ENDBRANCH  20  27
ENDBRANCH  19  20
ENDBRANCH  18  19
ENDBRANCH  17  18
ENDBRANCH   1  17
TORSDOF 8
ENDMDL
