MODEL 1
REMARK VINA RESULT:      -8.1      0.000      0.000
REMARK  Name = 
REMARK  6 active torsions:
REMARK  status: ('A' for Active; 'I' for Inactive)
REMARK    1  A    between atoms: C_1  and  C_2
REMARK    2  A    between atoms: C_5  and  S_6
REMARK    3  A    between atoms: S_6  and  N_9
REMARK    4  A    between atoms: N_9  and  C_10
REMARK    5  A    between atoms: C_10  and  N_12
REMARK    6  A    between atoms: N_12  and  C_13
REMARK                            x       y       z     vdW  Elec       q    Type
REMARK                         _______ _______ _______ _____ _____    ______ ____
ROOT
ATOM      1  C   UNL     1       4.273   2.533  19.173  0.00  0.00    +0.000 C 
ATOM      2  S   UNL     1       3.744   1.494  17.975  0.00  0.00    +0.000 S 
ENDROOT
BRANCH   1   3
ATOM      3  N   UNL     1       3.646   2.650  20.423  0.00  0.00    +0.000 N 
ATOM      4  H   UNL     1       4.124   2.334  21.259  0.00  0.00    +0.000 HD
BRANCH   3   5
ATOM      5  S   UNL     1       2.163   3.321  20.823  0.00  0.00    +0.000 S 
ATOM      6  O   UNL     1       2.146   3.578  22.247  0.00  0.00    +0.000 OA
ATOM      7  O   UNL     1       1.181   2.437  20.225  0.00  0.00    +0.000 OA
BRANCH   5  12
ATOM      8  C   UNL     1       2.065   8.589  17.781  0.00  0.00    +0.000 C 
ATOM      9  C   UNL     1       2.052   7.297  18.546  0.00  0.00    +0.000 A 
ATOM     10  C   UNL     1       2.182   7.280  19.945  0.00  0.00    +0.000 A 
ATOM     11  C   UNL     1       2.190   6.070  20.646  0.00  0.00    +0.000 A 
ATOM     12  C   UNL     1       2.055   4.866  19.949  0.00  0.00    +0.000 A 
ATOM     13  C   UNL     1       1.935   4.870  18.556  0.00  0.00    +0.000 A 
ATOM     14  C   UNL     1       1.924   6.085  17.861  0.00  0.00    +0.000 A 
ENDBRANCH   5  12
ENDBRANCH   3   5
ENDBRANCH   1   3
BRANCH   1  15
ATOM     15  N   UNL     1       5.388   3.352  19.101  0.00  0.00    +0.000 N 
ATOM     16  H   UNL     1       6.054   3.248  19.854  0.00  0.00    +0.000 HD
BRANCH  15  17
ATOM     17  C   UNL     1       5.730   4.383  18.086  0.00  0.00    +0.000 C 
ATOM     18  C   UNL     1       5.436   5.822  18.581  0.00  0.00    +0.000 C 
ATOM     19  C   UNL     1       5.723   6.848  17.474  0.00  0.00    +0.000 C 
ATOM     20  C   UNL     1       7.217   6.809  17.126  0.00  0.00    +0.000 C 
ATOM     21  C   UNL     1       7.606   5.397  16.659  0.00  0.00    +0.000 C 
ATOM     22  C   UNL     1       6.811   5.087  15.382  0.00  0.00    +0.000 C 
ATOM     23  C   UNL     1       5.309   5.113  15.687  0.00  0.00    +0.000 C 
ATOM     24  C   UNL     1       4.893   6.490  16.231  0.00  0.00    +0.000 C 
ATOM     25  C   UNL     1       5.013   4.055  16.751  0.00  0.00    +0.000 C 
ATOM     26  C   UNL     1       7.262   4.363  17.763  0.00  0.00    +0.000 C 
ENDBRANCH  15  17
ENDBRANCH   1  15
TORSDOF 5
ENDMDL
MODEL 2
REMARK VINA RESULT:      -8.0      3.442      6.323
REMARK  Name = 
REMARK  6 active torsions:
REMARK  status: ('A' for Active; 'I' for Inactive)
REMARK    1  A    between atoms: C_1  and  C_2
REMARK    2  A    between atoms: C_5  and  S_6
REMARK    3  A    between atoms: S_6  and  N_9
REMARK    4  A    between atoms: N_9  and  C_10
REMARK    5  A    between atoms: C_10  and  N_12
REMARK    6  A    between atoms: N_12  and  C_13
REMARK                            x       y       z     vdW  Elec       q    Type
REMARK                         _______ _______ _______ _____ _____    ______ ____
ROOT
ATOM      1  C   UNL     1       6.537   4.585  18.707  0.00  0.00    +0.000 C 
ATOM      2  S   UNL     1       7.418   5.671  19.623  0.00  0.00    +0.000 S 
ENDROOT
BRANCH   1   3
ATOM      3  N   UNL     1       6.651   4.483  17.312  0.00  0.00    +0.000 N 
ATOM      4  H   UNL     1       6.818   3.580  16.883  0.00  0.00    +0.000 HD
BRANCH   3   5
ATOM      5  S   UNL     1       6.492   5.663  16.132  0.00  0.00    +0.000 S 
ATOM      6  O   UNL     1       7.720   6.427  16.079  0.00  0.00    +0.000 OA
ATOM      7  O   UNL     1       5.233   6.318  16.427  0.00  0.00    +0.000 OA
BRANCH   5  12
ATOM      8  C   UNL     1       5.815   2.501  10.977  0.00  0.00    +0.000 C 
ATOM      9  C   UNL     1       5.979   3.316  12.228  0.00  0.00    +0.000 A 
ATOM     10  C   UNL     1       7.161   4.033  12.479  0.00  0.00    +0.000 A 
ATOM     11  C   UNL     1       7.311   4.771  13.656  0.00  0.00    +0.000 A 
ATOM     12  C   UNL     1       6.269   4.807  14.589  0.00  0.00    +0.000 A 
ATOM     13  C   UNL     1       5.092   4.089  14.355  0.00  0.00    +0.000 A 
ATOM     14  C   UNL     1       4.948   3.355  13.171  0.00  0.00    +0.000 A 
ENDBRANCH   5  12
ENDBRANCH   3   5
ENDBRANCH   1   3
BRANCH   1  15
ATOM     15  N   UNL     1       5.644   3.647  19.199  0.00  0.00    +0.000 N 
ATOM     16  H   UNL     1       6.059   2.858  19.674  0.00  0.00    +0.000 HD
BRANCH  15  17
ATOM     17  C   UNL     1       4.160   3.623  19.100  0.00  0.00    +0.000 C 
ATOM     18  C   UNL     1       3.664   2.955  17.793  0.00  0.00    +0.000 C 
ATOM     19  C   UNL     1       2.133   3.027  17.692  0.00  0.00    +0.000 C 
ATOM     20  C   UNL     1       1.513   2.229  18.847  0.00  0.00    +0.000 C 
ATOM     21  C   UNL     1       1.987   2.805  20.191  0.00  0.00    +0.000 C 
ATOM     22  C   UNL     1       1.483   4.253  20.288  0.00  0.00    +0.000 C 
ATOM     23  C   UNL     1       2.083   5.088  19.151  0.00  0.00    +0.000 C 
ATOM     24  C   UNL     1       1.693   4.498  17.785  0.00  0.00    +0.000 C 
ATOM     25  C   UNL     1       3.606   5.060  19.281  0.00  0.00    +0.000 C 
ATOM     26  C   UNL     1       3.536   2.776  20.260  0.00  0.00    +0.000 C 
ENDBRANCH  15  17
ENDBRANCH   1  15
TORSDOF 5
ENDMDL
MODEL 3
REMARK VINA RESULT:      -8.0      0.131      1.819
REMARK  Name = 
REMARK  6 active torsions:
REMARK  status: ('A' for Active; 'I' for Inactive)
REMARK    1  A    between atoms: C_1  and  C_2
REMARK    2  A    between atoms: C_5  and  S_6
REMARK    3  A    between atoms: S_6  and  N_9
REMARK    4  A    between atoms: N_9  and  C_10
REMARK    5  A    between atoms: C_10  and  N_12
REMARK    6  A    between atoms: N_12  and  C_13
REMARK                            x       y       z     vdW  Elec       q    Type
REMARK                         _______ _______ _______ _____ _____    ______ ____
ROOT
ATOM      1  C   UNL     1       4.352   2.473  19.205  0.00  0.00    +0.000 C 
ATOM      2  S   UNL     1       3.834   1.318  18.115  0.00  0.00    +0.000 S 
ENDROOT
BRANCH   1   3
ATOM      3  N   UNL     1       3.717   2.714  20.433  0.00  0.00    +0.000 N 
ATOM      4  H   UNL     1       4.193   2.490  21.300  0.00  0.00    +0.000 HD
BRANCH   3   5
ATOM      5  S   UNL     1       2.226   3.410  20.754  0.00  0.00    +0.000 S 
ATOM      6  O   UNL     1       2.135   3.662  22.176  0.00  0.00    +0.000 OA
ATOM      7  O   UNL     1       1.264   2.546  20.099  0.00  0.00    +0.000 OA
BRANCH   5  12
ATOM      8  C   UNL     1       1.844   8.730  17.826  0.00  0.00    +0.000 C 
ATOM      9  C   UNL     1       1.975   7.411  18.532  0.00  0.00    +0.000 A 
ATOM     10  C   UNL     1       1.873   6.198  17.831  0.00  0.00    +0.000 A 
ATOM     11  C   UNL     1       1.974   4.975  18.501  0.00  0.00    +0.000 A 
ATOM     12  C   UNL     1       2.194   4.959  19.882  0.00  0.00    +0.000 A 
ATOM     13  C   UNL     1       2.287   6.160  20.592  0.00  0.00    +0.000 A 
ATOM     14  C   UNL     1       2.187   7.380  19.913  0.00  0.00    +0.000 A 
ENDBRANCH   5  12
ENDBRANCH   3   5
ENDBRANCH   1   3
BRANCH   1  15
ATOM     15  N   UNL     1       5.466   3.285  19.059  0.00  0.00    +0.000 N 
ATOM     16  H   UNL     1       6.181   3.175  19.764  0.00  0.00    +0.000 HD
BRANCH  15  17
ATOM     17  C   UNL     1       5.745   4.316  18.024  0.00  0.00    +0.000 C 
ATOM     18  C   UNL     1       4.877   4.131  16.753  0.00  0.00    +0.000 C 
ATOM     19  C   UNL     1       5.256   5.163  15.681  0.00  0.00    +0.000 C 
ATOM     20  C   UNL     1       4.953   6.573  16.207  0.00  0.00    +0.000 C 
ATOM     21  C   UNL     1       5.748   6.827  17.498  0.00  0.00    +0.000 C 
ATOM     22  C   UNL     1       7.244   6.759  17.152  0.00  0.00    +0.000 C 
ATOM     23  C   UNL     1       7.590   5.363  16.623  0.00  0.00    +0.000 C 
ATOM     24  C   UNL     1       6.757   5.038  15.371  0.00  0.00    +0.000 C 
ATOM     25  C   UNL     1       7.263   4.339  17.710  0.00  0.00    +0.000 C 
ATOM     26  C   UNL     1       5.398   5.748  18.555  0.00  0.00    +0.000 C 
ENDBRANCH  15  17
ENDBRANCH   1  15
TORSDOF 5
ENDMDL
MODEL 4
REMARK VINA RESULT:      -7.9      3.470      6.274
REMARK  Name = 
REMARK  6 active torsions:
REMARK  status: ('A' for Active; 'I' for Inactive)
REMARK    1  A    between atoms: C_1  and  C_2
REMARK    2  A    between atoms: C_5  and  S_6
REMARK    3  A    between atoms: S_6  and  N_9
REMARK    4  A    between atoms: N_9  and  C_10
REMARK    5  A    between atoms: C_10  and  N_12
REMARK    6  A    between atoms: N_12  and  C_13
REMARK                            x       y       z     vdW  Elec       q    Type
REMARK                         _______ _______ _______ _____ _____    ______ ____
ROOT
ATOM      1  C   UNL     1       6.519   4.568  18.651  0.00  0.00    +0.000 C 
ATOM      2  S   UNL     1       7.381   5.671  19.563  0.00  0.00    +0.000 S 
ENDROOT
BRANCH   1   3
ATOM      3  N   UNL     1       6.641   4.457  17.258  0.00  0.00    +0.000 N 
ATOM      4  H   UNL     1       6.788   3.548  16.834  0.00  0.00    +0.000 HD
BRANCH   3   5
ATOM      5  S   UNL     1       6.520   5.635  16.071  0.00  0.00    +0.000 S 
ATOM      6  O   UNL     1       7.768   6.366  16.023  0.00  0.00    +0.000 OA
ATOM      7  O   UNL     1       5.277   6.324  16.355  0.00  0.00    +0.000 OA
BRANCH   5  12
ATOM      8  C   UNL     1       5.811   2.471  10.922  0.00  0.00    +0.000 C 
ATOM      9  C   UNL     1       5.981   3.287  12.171  0.00  0.00    +0.000 A 
ATOM     10  C   UNL     1       7.145   4.042  12.394  0.00  0.00    +0.000 A 
ATOM     11  C   UNL     1       7.302   4.780  13.570  0.00  0.00    +0.000 A 
ATOM     12  C   UNL     1       6.285   4.778  14.530  0.00  0.00    +0.000 A 
ATOM     13  C   UNL     1       5.127   4.022  14.324  0.00  0.00    +0.000 A 
ATOM     14  C   UNL     1       4.975   3.288  13.142  0.00  0.00    +0.000 A 
ENDBRANCH   5  12
ENDBRANCH   3   5
ENDBRANCH   1   3
BRANCH   1  15
ATOM     15  N   UNL     1       5.634   3.623  19.145  0.00  0.00    +0.000 N 
ATOM     16  H   UNL     1       6.058   2.815  19.579  0.00  0.00    +0.000 HD
BRANCH  15  17
ATOM     17  C   UNL     1       4.148   3.616  19.102  0.00  0.00    +0.000 C 
ATOM     18  C   UNL     1       3.523   2.861  20.302  0.00  0.00    +0.000 C 
ATOM     19  C   UNL     1       1.993   2.806  20.174  0.00  0.00    +0.000 C 
ATOM     20  C   UNL     1       1.430   4.233  20.222  0.00  0.00    +0.000 C 
ATOM     21  C   UNL     1       2.032   5.068  19.080  0.00  0.00    +0.000 C 
ATOM     22  C   UNL     1       1.600   4.430  17.751  0.00  0.00    +0.000 C 
ATOM     23  C   UNL     1       2.146   3.000  17.661  0.00  0.00    +0.000 C 
ATOM     24  C   UNL     1       1.626   2.150  18.833  0.00  0.00    +0.000 C 
ATOM     25  C   UNL     1       3.671   3.059  17.735  0.00  0.00    +0.000 C 
ATOM     26  C   UNL     1       3.579   5.073  19.189  0.00  0.00    +0.000 C 
ENDBRANCH  15  17
ENDBRANCH   1  15
TORSDOF 5
ENDMDL
MODEL 5
REMARK VINA RESULT:      -7.9      3.362      6.322
REMARK  Name = 
REMARK  6 active torsions:
REMARK  status: ('A' for Active; 'I' for Inactive)
REMARK    1  A    between atoms: C_1  and  C_2
REMARK    2  A    between atoms: C_5  and  S_6
REMARK    3  A    between atoms: S_6  and  N_9
REMARK    4  A    between atoms: N_9  and  C_10
REMARK    5  A    between atoms: C_10  and  N_12
REMARK    6  A    between atoms: N_12  and  C_13
REMARK                            x       y       z     vdW  Elec       q    Type
REMARK                         _______ _______ _______ _____ _____    ______ ____
ROOT
ATOM      1  C   UNL     1       4.295   6.681  17.913  0.00  0.00    +0.000 C 
ATOM      2  S   UNL     1       2.908   7.613  17.882  0.00  0.00    +0.000 S 
ENDROOT
BRANCH   1   3
ATOM      3  N   UNL     1       5.448   6.991  17.177  0.00  0.00    +0.000 N 
ATOM      4  H   UNL     1       5.563   7.918  16.783  0.00  0.00    +0.000 HD
BRANCH   3   5
ATOM      5  S   UNL     1       6.801   6.055  16.852  0.00  0.00    +0.000 S 
ATOM      6  O   UNL     1       6.968   5.102  17.928  0.00  0.00    +0.000 OA
ATOM      7  O   UNL     1       7.850   7.009  16.548  0.00  0.00    +0.000 OA
BRANCH   5  12
ATOM      8  C   UNL     1       5.747   2.832  11.800  0.00  0.00    +0.000 C 
ATOM      9  C   UNL     1       5.999   3.662  13.026  0.00  0.00    +0.000 A 
ATOM     10  C   UNL     1       7.151   4.458  13.142  0.00  0.00    +0.000 A 
ATOM     11  C   UNL     1       7.387   5.209  14.296  0.00  0.00    +0.000 A 
ATOM     12  C   UNL     1       6.460   5.179  15.343  0.00  0.00    +0.000 A 
ATOM     13  C   UNL     1       5.314   4.383  15.244  0.00  0.00    +0.000 A 
ATOM     14  C   UNL     1       5.084   3.636  14.083  0.00  0.00    +0.000 A 
ENDBRANCH   5  12
ENDBRANCH   3   5
ENDBRANCH   1   3
BRANCH   1  15
ATOM     15  N   UNL     1       4.491   5.544  18.680  0.00  0.00    +0.000 N 
ATOM     16  H   UNL     1       5.451   5.340  18.921  0.00  0.00    +0.000 HD
BRANCH  15  17
ATOM     17  C   UNL     1       3.488   4.563  19.176  0.00  0.00    +0.000 C 
ATOM     18  C   UNL     1       2.685   5.098  20.389  0.00  0.00    +0.000 C 
ATOM     19  C   UNL     1       1.723   4.025  20.920  0.00  0.00    +0.000 C 
ATOM     20  C   UNL     1       0.691   3.689  19.834  0.00  0.00    +0.000 C 
ATOM     21  C   UNL     1       1.410   3.184  18.572  0.00  0.00    +0.000 C 
ATOM     22  C   UNL     1       2.153   1.891  18.938  0.00  0.00    +0.000 C 
ATOM     23  C   UNL     1       3.199   2.183  20.022  0.00  0.00    +0.000 C 
ATOM     24  C   UNL     1       2.526   2.763  21.277  0.00  0.00    +0.000 C 
ATOM     25  C   UNL     1       4.188   3.212  19.474  0.00  0.00    +0.000 C 
ATOM     26  C   UNL     1       2.418   4.254  18.076  0.00  0.00    +0.000 C 
ENDBRANCH  15  17
ENDBRANCH   1  15
TORSDOF 5
ENDMDL
MODEL 6
REMARK VINA RESULT:      -7.9      3.284      6.333
REMARK  Name = 
REMARK  6 active torsions:
REMARK  status: ('A' for Active; 'I' for Inactive)
REMARK    1  A    between atoms: C_1  and  C_2
REMARK    2  A    between atoms: C_5  and  S_6
REMARK    3  A    between atoms: S_6  and  N_9
REMARK    4  A    between atoms: N_9  and  C_10
REMARK    5  A    between atoms: C_10  and  N_12
REMARK    6  A    between atoms: N_12  and  C_13
REMARK                            x       y       z     vdW  Elec       q    Type
REMARK                         _______ _______ _______ _____ _____    ______ ____
ROOT
ATOM      1  C   UNL     1       3.577   6.992  18.056  0.00  0.00    +0.000 C 
ATOM      2  S   UNL     1       2.389   8.164  18.151  0.00  0.00    +0.000 S 
ENDROOT
BRANCH   1   3
ATOM      3  N   UNL     1       4.482   6.898  16.988  0.00  0.00    +0.000 N 
ATOM      4  H   UNL     1       4.215   7.231  16.068  0.00  0.00    +0.000 HD
BRANCH   3   5
ATOM      5  S   UNL     1       6.065   6.347  16.966  0.00  0.00    +0.000 S 
ATOM      6  O   UNL     1       6.286   5.539  18.146  0.00  0.00    +0.000 OA
ATOM      7  O   UNL     1       6.868   7.530  16.726  0.00  0.00    +0.000 OA
BRANCH   5  12
ATOM      8  C   UNL     1       6.497   3.054  11.867  0.00  0.00    +0.000 C 
ATOM      9  C   UNL     1       6.398   3.833  13.147  0.00  0.00    +0.000 A 
ATOM     10  C   UNL     1       5.292   3.690  14.001  0.00  0.00    +0.000 A 
ATOM     11  C   UNL     1       5.199   4.435  15.180  0.00  0.00    +0.000 A 
ATOM     12  C   UNL     1       6.224   5.324  15.519  0.00  0.00    +0.000 A 
ATOM     13  C   UNL     1       7.325   5.483  14.672  0.00  0.00    +0.000 A 
ATOM     14  C   UNL     1       7.412   4.730  13.495  0.00  0.00    +0.000 A 
ENDBRANCH   5  12
ENDBRANCH   3   5
ENDBRANCH   1   3
BRANCH   1  15
ATOM     15  N   UNL     1       3.837   6.022  19.010  0.00  0.00    +0.000 N 
ATOM     16  H   UNL     1       4.669   6.170  19.565  0.00  0.00    +0.000 HD
BRANCH  15  17
ATOM     17  C   UNL     1       3.080   4.779  19.315  0.00  0.00    +0.000 C 
ATOM     18  C   UNL     1       2.222   4.299  18.117  0.00  0.00    +0.000 C 
ATOM     19  C   UNL     1       1.393   3.064  18.502  0.00  0.00    +0.000 C 
ATOM     20  C   UNL     1       2.341   1.907  18.844  0.00  0.00    +0.000 C 
ATOM     21  C   UNL     1       3.262   2.315  20.005  0.00  0.00    +0.000 C 
ATOM     22  C   UNL     1       2.380   2.586  21.233  0.00  0.00    +0.000 C 
ATOM     23  C   UNL     1       1.417   3.741  20.934  0.00  0.00    +0.000 C 
ATOM     24  C   UNL     1       0.527   3.402  19.727  0.00  0.00    +0.000 C 
ATOM     25  C   UNL     1       2.242   4.985  20.603  0.00  0.00    +0.000 C 
ATOM     26  C   UNL     1       4.054   3.593  19.626  0.00  0.00    +0.000 C 
ENDBRANCH  15  17
ENDBRANCH   1  15
TORSDOF 5
ENDMDL
MODEL 7
REMARK VINA RESULT:      -7.9      3.331      6.423
REMARK  Name = 
REMARK  6 active torsions:
REMARK  status: ('A' for Active; 'I' for Inactive)
REMARK    1  A    between atoms: C_1  and  C_2
REMARK    2  A    between atoms: C_5  and  S_6
REMARK    3  A    between atoms: S_6  and  N_9
REMARK    4  A    between atoms: N_9  and  C_10
REMARK    5  A    between atoms: C_10  and  N_12
REMARK    6  A    between atoms: N_12  and  C_13
REMARK                            x       y       z     vdW  Elec       q    Type
REMARK                         _______ _______ _______ _____ _____    ______ ____
ROOT
ATOM      1  C   UNL     1       3.632   6.934  17.846  0.00  0.00    +0.000 C 
ATOM      2  S   UNL     1       2.547   8.206  17.842  0.00  0.00    +0.000 S 
ENDROOT
BRANCH   1   3
ATOM      3  N   UNL     1       4.481   6.644  16.768  0.00  0.00    +0.000 N 
ATOM      4  H   UNL     1       4.153   6.771  15.817  0.00  0.00    +0.000 HD
BRANCH   3   5
ATOM      5  S   UNL     1       6.081   6.142  16.764  0.00  0.00    +0.000 S 
ATOM      6  O   UNL     1       6.295   5.286  17.911  0.00  0.00    +0.000 OA
ATOM      7  O   UNL     1       6.852   7.359  16.603  0.00  0.00    +0.000 OA
BRANCH   5  12
ATOM      8  C   UNL     1       6.757   3.115  11.530  0.00  0.00    +0.000 C 
ATOM      9  C   UNL     1       6.597   3.827  12.842  0.00  0.00    +0.000 A 
ATOM     10  C   UNL     1       5.462   3.626  13.645  0.00  0.00    +0.000 A 
ATOM     11  C   UNL     1       5.312   4.311  14.854  0.00  0.00    +0.000 A 
ATOM     12  C   UNL     1       6.310   5.195  15.276  0.00  0.00    +0.000 A 
ATOM     13  C   UNL     1       7.440   5.411  14.481  0.00  0.00    +0.000 A 
ATOM     14  C   UNL     1       7.583   4.719  13.273  0.00  0.00    +0.000 A 
ENDBRANCH   5  12
ENDBRANCH   3   5
ENDBRANCH   1   3
BRANCH   1  15
ATOM     15  N   UNL     1       3.852   6.060  18.897  0.00  0.00    +0.000 N 
ATOM     16  H   UNL     1       4.662   6.261  19.468  0.00  0.00    +0.000 HD
BRANCH  15  17
ATOM     17  C   UNL     1       3.081   4.850  19.289  0.00  0.00    +0.000 C 
ATOM     18  C   UNL     1       2.114   5.120  20.469  0.00  0.00    +0.000 C 
ATOM     19  C   UNL     1       1.401   3.827  20.895  0.00  0.00    +0.000 C 
ATOM     20  C   UNL     1       0.534   3.323  19.733  0.00  0.00    +0.000 C 
ATOM     21  C   UNL     1       1.415   3.065  18.501  0.00  0.00    +0.000 C 
ATOM     22  C   UNL     1       2.419   1.959  18.860  0.00  0.00    +0.000 C 
ATOM     23  C   UNL     1       3.309   2.425  20.018  0.00  0.00    +0.000 C 
ATOM     24  C   UNL     1       2.456   2.767  21.251  0.00  0.00    +0.000 C 
ATOM     25  C   UNL     1       4.059   3.682  19.576  0.00  0.00    +0.000 C 
ATOM     26  C   UNL     1       2.170   4.363  18.112  0.00  0.00    +0.000 C 
ENDBRANCH  15  17
ENDBRANCH   1  15
TORSDOF 5
ENDMDL
MODEL 8
REMARK VINA RESULT:      -7.8      0.133      1.850
REMARK  Name = 
REMARK  6 active torsions:
REMARK  status: ('A' for Active; 'I' for Inactive)
REMARK    1  A    between atoms: C_1  and  C_2
REMARK    2  A    between atoms: C_5  and  S_6
REMARK    3  A    between atoms: S_6  and  N_9
REMARK    4  A    between atoms: N_9  and  C_10
REMARK    5  A    between atoms: C_10  and  N_12
REMARK    6  A    between atoms: N_12  and  C_13
REMARK                            x       y       z     vdW  Elec       q    Type
REMARK                         _______ _______ _______ _____ _____    ______ ____
ROOT
ATOM      1  C   UNL     1       4.272   2.526  19.165  0.00  0.00    +0.000 C 
ATOM      2  S   UNL     1       3.731   1.455  18.000  0.00  0.00    +0.000 S 
ENDROOT
BRANCH   1   3
ATOM      3  N   UNL     1       3.643   2.694  20.408  0.00  0.00    +0.000 N 
ATOM      4  H   UNL     1       4.101   2.371  21.253  0.00  0.00    +0.000 HD
BRANCH   3   5
ATOM      5  S   UNL     1       2.191   3.440  20.786  0.00  0.00    +0.000 S 
ATOM      6  O   UNL     1       2.174   3.716  22.207  0.00  0.00    +0.000 OA
ATOM      7  O   UNL     1       1.173   2.596  20.190  0.00  0.00    +0.000 OA
BRANCH   5  12
ATOM      8  C   UNL     1       1.828   8.720  17.785  0.00  0.00    +0.000 C 
ATOM      9  C   UNL     1       1.955   7.410  18.508  0.00  0.00    +0.000 A 
ATOM     10  C   UNL     1       1.833   6.188  17.826  0.00  0.00    +0.000 A 
ATOM     11  C   UNL     1       1.930   4.975  18.513  0.00  0.00    +0.000 A 
ATOM     12  C   UNL     1       2.164   4.977  19.892  0.00  0.00    +0.000 A 
ATOM     13  C   UNL     1       2.276   6.187  20.583  0.00  0.00    +0.000 A 
ATOM     14  C   UNL     1       2.181   7.398  19.888  0.00  0.00    +0.000 A 
ENDBRANCH   5  12
ENDBRANCH   3   5
ENDBRANCH   1   3
BRANCH   1  15
ATOM     15  N   UNL     1       5.399   3.326  19.069  0.00  0.00    +0.000 N 
ATOM     16  H   UNL     1       6.072   3.221  19.816  0.00  0.00    +0.000 HD
BRANCH  15  17
ATOM     17  C   UNL     1       5.745   4.339  18.037  0.00  0.00    +0.000 C 
ATOM     18  C   UNL     1       7.228   4.250  17.593  0.00  0.00    +0.000 C 
ATOM     19  C   UNL     1       7.563   5.365  16.591  0.00  0.00    +0.000 C 
ATOM     20  C   UNL     1       6.721   5.174  15.322  0.00  0.00    +0.000 C 
ATOM     21  C   UNL     1       5.227   5.210  15.680  0.00  0.00    +0.000 C 
ATOM     22  C   UNL     1       4.913   6.600  16.256  0.00  0.00    +0.000 C 
ATOM     23  C   UNL     1       5.734   6.830  17.530  0.00  0.00    +0.000 C 
ATOM     24  C   UNL     1       7.238   6.726  17.228  0.00  0.00    +0.000 C 
ATOM     25  C   UNL     1       5.361   5.752  18.547  0.00  0.00    +0.000 C 
ATOM     26  C   UNL     1       4.909   4.116  16.732  0.00  0.00    +0.000 C 
ENDBRANCH  15  17
ENDBRANCH   1  15
TORSDOF 5
ENDMDL
MODEL 9
REMARK VINA RESULT:      -7.8      3.334      6.294
REMARK  Name = 
REMARK  6 active torsions:
REMARK  status: ('A' for Active; 'I' for Inactive)
REMARK    1  A    between atoms: C_1  and  C_2
REMARK    2  A    between atoms: C_5  and  S_6
REMARK    3  A    between atoms: S_6  and  N_9
REMARK    4  A    between atoms: N_9  and  C_10
REMARK    5  A    between atoms: C_10  and  N_12
REMARK    6  A    between atoms: N_12  and  C_13
REMARK                            x       y       z     vdW  Elec       q    Type
REMARK                         _______ _______ _______ _____ _____    ______ ____
ROOT
ATOM      1  C   UNL     1       4.187   6.823  17.956  0.00  0.00    +0.000 C 
ATOM      2  S   UNL     1       2.798   7.749  17.866  0.00  0.00    +0.000 S 
ENDROOT
BRANCH   1   3
ATOM      3  N   UNL     1       5.320   7.054  17.163  0.00  0.00    +0.000 N 
ATOM      4  H   UNL     1       5.417   7.931  16.663  0.00  0.00    +0.000 HD
BRANCH   3   5
ATOM      5  S   UNL     1       6.675   6.098  16.918  0.00  0.00    +0.000 S 
ATOM      6  O   UNL     1       6.773   5.154  18.011  0.00  0.00    +0.000 OA
ATOM      7  O   UNL     1       7.750   7.035  16.659  0.00  0.00    +0.000 OA
BRANCH   5  12
ATOM      8  C   UNL     1       5.841   2.836  11.850  0.00  0.00    +0.000 C 
ATOM      9  C   UNL     1       6.040   3.675  13.079  0.00  0.00    +0.000 A 
ATOM     10  C   UNL     1       7.183   4.476  13.237  0.00  0.00    +0.000 A 
ATOM     11  C   UNL     1       7.369   5.236  14.394  0.00  0.00    +0.000 A 
ATOM     12  C   UNL     1       6.399   5.210  15.402  0.00  0.00    +0.000 A 
ATOM     13  C   UNL     1       5.261   4.409  15.262  0.00  0.00    +0.000 A 
ATOM     14  C   UNL     1       5.082   3.653  14.097  0.00  0.00    +0.000 A 
ENDBRANCH   5  12
ENDBRANCH   3   5
ENDBRANCH   1   3
BRANCH   1  15
ATOM     15  N   UNL     1       4.402   5.769  18.830  0.00  0.00    +0.000 N 
ATOM     16  H   UNL     1       5.313   5.744  19.265  0.00  0.00    +0.000 HD
BRANCH  15  17
ATOM     17  C   UNL     1       3.490   4.652  19.195  0.00  0.00    +0.000 C 
ATOM     18  C   UNL     1       4.257   3.392  19.669  0.00  0.00    +0.000 C 
ATOM     19  C   UNL     1       3.284   2.238  19.955  0.00  0.00    +0.000 C 
ATOM     20  C   UNL     1       2.354   2.636  21.109  0.00  0.00    +0.000 C 
ATOM     21  C   UNL     1       1.577   3.909  20.735  0.00  0.00    +0.000 C 
ATOM     22  C   UNL     1       0.707   3.588  19.510  0.00  0.00    +0.000 C 
ATOM     23  C   UNL     1       1.601   3.187  18.330  0.00  0.00    +0.000 C 
ATOM     24  C   UNL     1       2.453   1.959  18.692  0.00  0.00    +0.000 C 
ATOM     25  C   UNL     1       2.534   4.356  18.011  0.00  0.00    +0.000 C 
ATOM     26  C   UNL     1       2.570   5.052  20.396  0.00  0.00    +0.000 C 
ENDBRANCH  15  17
ENDBRANCH   1  15
TORSDOF 5
ENDMDL
