MODEL 1
REMARK VINA RESULT:      -5.0      0.000      0.000
REMARK  Name = 
REMARK  5 active torsions:
REMARK  status: ('A' for Active; 'I' for Inactive)
REMARK    1  A    between atoms: C_2  and  C_3
REMARK    2  A    between atoms: C_4  and  N_5
REMARK    3  A    between atoms: C_6  and  C_7
REMARK    4  A    between atoms: C_6  and  C_9
REMARK    5  A    between atoms: C_11  and  C_12
REMARK                            x       y       z     vdW  Elec       q    Type
REMARK                         _______ _______ _______ _____ _____    ______ ____
ROOT
ATOM      1  C   UNL     1       0.565  12.514  19.781  0.00  0.00    +0.000 C 
ATOM      2  C   UNL     1      -0.510  13.196  19.407  0.00  0.00    +0.000 C 
ATOM      3  C   UNL     1      -1.727  12.880  20.205  0.00  0.00    +0.000 C 
ATOM      4  C   UNL     1      -1.668  12.179  21.670  0.00  0.00    +0.000 C 
ATOM      5  C   UNL     1      -0.293  11.589  21.985  0.00  0.00    +0.000 C 
ATOM      6  C   UNL     1      -0.499  10.310  22.829  0.00  0.00    +0.000 C 
ATOM      7  O   UNL     1      -0.761   9.211  21.964  0.00  0.00    +0.000 OA
ATOM      8  C   UNL     1       0.392   8.906  21.172  0.00  0.00    +0.000 C 
ATOM      9  C   UNL     1       0.821  10.109  20.370  0.00  0.00    +0.000 C 
ATOM     10  C   UNL     1       0.459  11.363  20.698  0.00  0.00    +0.000 C 
ENDROOT
BRANCH   4  11
ATOM     11  C   UNL     1      -2.102  13.021  22.910  0.00  0.00    +0.000 A 
ATOM     12  C   UNL     1      -1.226  13.922  23.560  0.00  0.00    +0.000 A 
ATOM     13  C   UNL     1      -1.693  14.764  24.566  0.00  0.00    +0.000 A 
ATOM     14  C   UNL     1      -3.017  14.654  24.944  0.00  0.00    +0.000 A 
ATOM     15  N   UNL     1      -3.872  13.763  24.396  0.00  0.00    +0.000 NA
ATOM     16  C   UNL     1      -3.406  12.977  23.396  0.00  0.00    +0.000 A 
ENDBRANCH   4  11
BRANCH   2  17
ATOM     17  N   UNL     1      -0.562  14.125  18.367  0.00  0.00    +0.000 N 
ATOM     18  H   UNL     1       0.078  14.920  18.406  0.00  0.00    +0.000 HD
ATOM     19  H   UNL     1      -0.663  13.769  17.415  0.00  0.00    +0.000 HD
ENDBRANCH   2  17
BRANCH   1  21
ATOM     20  N   UNL     1       2.839  12.865  18.218  0.00  0.00    +0.000 NA
ATOM     21  C   UNL     1       1.808  12.706  18.927  0.00  0.00    +0.000 C 
ENDBRANCH   1  21
BRANCH   3  22
ATOM     22  C   UNL     1      -2.628  12.021  19.332  0.00  0.00    +0.000 C 
ATOM     23  N   UNL     1      -3.374  11.309  18.607  0.00  0.00    +0.000 NA
ENDBRANCH   3  22
BRANCH   3  24
ATOM     24  C   UNL     1      -2.205  14.268  20.599  0.00  0.00    +0.000 C 
ATOM     25  N   UNL     1      -2.601  15.419  20.925  0.00  0.00    +0.000 NA
ENDBRANCH   3  24
TORSDOF 5
ENDMDL
MODEL 2
REMARK VINA RESULT:      -4.9      0.609      1.008
REMARK  Name = 
REMARK  5 active torsions:
REMARK  status: ('A' for Active; 'I' for Inactive)
REMARK    1  A    between atoms: C_2  and  C_3
REMARK    2  A    between atoms: C_4  and  N_5
REMARK    3  A    between atoms: C_6  and  C_7
REMARK    4  A    between atoms: C_6  and  C_9
REMARK    5  A    between atoms: C_11  and  C_12
REMARK                            x       y       z     vdW  Elec       q    Type
REMARK                         _______ _______ _______ _____ _____    ______ ____
ROOT
ATOM      1  C   UNL     1       0.550  12.474  19.771  0.00  0.00    +0.000 C 
ATOM      2  C   UNL     1      -0.511  13.159  19.362  0.00  0.00    +0.000 C 
ATOM      3  C   UNL     1      -1.736  12.902  20.168  0.00  0.00    +0.000 C 
ATOM      4  C   UNL     1      -1.695  12.269  21.664  0.00  0.00    +0.000 C 
ATOM      5  C   UNL     1      -0.333  11.668  22.011  0.00  0.00    +0.000 C 
ATOM      6  C   UNL     1      -0.567  10.433  22.913  0.00  0.00    +0.000 C 
ATOM      7  O   UNL     1      -0.848   9.300  22.098  0.00  0.00    +0.000 OA
ATOM      8  C   UNL     1       0.302   8.938  21.326  0.00  0.00    +0.000 C 
ATOM      9  C   UNL     1       0.757  10.093  20.471  0.00  0.00    +0.000 C 
ATOM     10  C   UNL     1       0.418  11.368  20.740  0.00  0.00    +0.000 C 
ENDROOT
BRANCH   4  11
ATOM     11  C   UNL     1      -2.118  13.176  22.862  0.00  0.00    +0.000 A 
ATOM     12  C   UNL     1      -3.422  13.147  23.410  0.00  0.00    +0.000 A 
ATOM     13  C   UNL     1      -3.717  13.858  24.572  0.00  0.00    +0.000 A 
ATOM     14  C   UNL     1      -2.719  14.629  25.134  0.00  0.00    +0.000 A 
ATOM     15  N   UNL     1      -1.481  14.737  24.608  0.00  0.00    +0.000 NA
ATOM     16  C   UNL     1      -1.204  14.011  23.498  0.00  0.00    +0.000 A 
ENDBRANCH   4  11
BRANCH   2  17
ATOM     17  N   UNL     1      -0.542  14.039  18.280  0.00  0.00    +0.000 N 
ATOM     18  H   UNL     1      -0.430  13.646  17.343  0.00  0.00    +0.000 HD
ATOM     19  H   UNL     1      -1.237  14.788  18.294  0.00  0.00    +0.000 HD
ENDBRANCH   2  17
BRANCH   1  21
ATOM     20  N   UNL     1       2.835  12.708  18.204  0.00  0.00    +0.000 NA
ATOM     21  C   UNL     1       1.799  12.602  18.914  0.00  0.00    +0.000 C 
ENDBRANCH   1  21
BRANCH   3  22
ATOM     22  C   UNL     1      -2.651  12.022  19.332  0.00  0.00    +0.000 C 
ATOM     23  N   UNL     1      -3.409  11.292  18.637  0.00  0.00    +0.000 NA
ENDBRANCH   3  22
BRANCH   3  24
ATOM     24  C   UNL     1      -2.188  14.316  20.496  0.00  0.00    +0.000 C 
ATOM     25  N   UNL     1      -2.562  15.489  20.767  0.00  0.00    +0.000 NA
ENDBRANCH   3  24
TORSDOF 5
ENDMDL
MODEL 3
REMARK VINA RESULT:      -4.9      2.700      5.064
REMARK  Name = 
REMARK  5 active torsions:
REMARK  status: ('A' for Active; 'I' for Inactive)
REMARK    1  A    between atoms: C_2  and  C_3
REMARK    2  A    between atoms: C_4  and  N_5
REMARK    3  A    between atoms: C_6  and  C_7
REMARK    4  A    between atoms: C_6  and  C_9
REMARK    5  A    between atoms: C_11  and  C_12
REMARK                            x       y       z     vdW  Elec       q    Type
REMARK                         _______ _______ _______ _____ _____    ______ ____
ROOT
ATOM      1  C   UNL     1      -1.545  11.410  21.842  0.00  0.00    +0.000 C 
ATOM      2  C   UNL     1      -2.491  12.146  22.411  0.00  0.00    +0.000 C 
ATOM      3  C   UNL     1      -3.229  13.016  21.453  0.00  0.00    +0.000 C 
ATOM      4  C   UNL     1      -3.248  12.750  19.850  0.00  0.00    +0.000 C 
ATOM      5  C   UNL     1      -2.184  11.745  19.408  0.00  0.00    +0.000 C 
ATOM      6  C   UNL     1      -1.675  12.166  18.009  0.00  0.00    +0.000 C 
ATOM      7  O   UNL     1      -0.664  13.158  18.154  0.00  0.00    +0.000 OA
ATOM      8  C   UNL     1       0.498  12.604  18.779  0.00  0.00    +0.000 C 
ATOM      9  C   UNL     1       0.152  12.016  20.123  0.00  0.00    +0.000 C 
ATOM     10  C   UNL     1      -1.105  11.667  20.457  0.00  0.00    +0.000 C 
ENDROOT
BRANCH   4  11
ATOM     11  C   UNL     1      -4.593  12.318  19.188  0.00  0.00    +0.000 A 
ATOM     12  C   UNL     1      -4.915  10.963  18.942  0.00  0.00    +0.000 A 
ATOM     13  C   UNL     1      -6.185  10.607  18.489  0.00  0.00    +0.000 A 
ATOM     14  C   UNL     1      -7.092  11.617  18.238  0.00  0.00    +0.000 A 
ATOM     15  N   UNL     1      -6.805  12.927  18.397  0.00  0.00    +0.000 NA
ATOM     16  C   UNL     1      -5.577  13.250  18.870  0.00  0.00    +0.000 A 
ENDBRANCH   4  11
BRANCH   2  17
ATOM     17  N   UNL     1      -2.804  12.159  23.771  0.00  0.00    +0.000 N 
ATOM     18  H   UNL     1      -2.089  11.836  24.427  0.00  0.00    +0.000 HD
ATOM     19  H   UNL     1      -3.312  12.967  24.135  0.00  0.00    +0.000 HD
ENDBRANCH   2  17
BRANCH   1  21
ATOM     20  N   UNL     1       0.042   9.914  23.568  0.00  0.00    +0.000 NA
ATOM     21  C   UNL     1      -0.678  10.592  22.786  0.00  0.00    +0.000 C 
ENDBRANCH   1  21
BRANCH   3  22
ATOM     22  C   UNL     1      -2.741  14.439  21.668  0.00  0.00    +0.000 C 
ATOM     23  N   UNL     1      -2.337  15.620  21.847  0.00  0.00    +0.000 NA
ENDBRANCH   3  22
BRANCH   3  24
ATOM     24  C   UNL     1      -4.674  12.683  21.789  0.00  0.00    +0.000 C 
ATOM     25  N   UNL     1      -5.872  12.408  22.069  0.00  0.00    +0.000 NA
ENDBRANCH   3  24
TORSDOF 5
ENDMDL
MODEL 4
REMARK VINA RESULT:      -4.8      2.662      5.049
REMARK  Name = 
REMARK  5 active torsions:
REMARK  status: ('A' for Active; 'I' for Inactive)
REMARK    1  A    between atoms: C_2  and  C_3
REMARK    2  A    between atoms: C_4  and  N_5
REMARK    3  A    between atoms: C_6  and  C_7
REMARK    4  A    between atoms: C_6  and  C_9
REMARK    5  A    between atoms: C_11  and  C_12
REMARK                            x       y       z     vdW  Elec       q    Type
REMARK                         _______ _______ _______ _____ _____    ______ ____
ROOT
ATOM      1  C   UNL     1      -1.507  11.409  21.866  0.00  0.00    +0.000 C 
ATOM      2  C   UNL     1      -2.419  12.162  22.467  0.00  0.00    +0.000 C 
ATOM      3  C   UNL     1      -3.171  13.049  21.537  0.00  0.00    +0.000 C 
ATOM      4  C   UNL     1      -3.249  12.789  19.935  0.00  0.00    +0.000 C 
ATOM      5  C   UNL     1      -2.220  11.765  19.455  0.00  0.00    +0.000 C 
ATOM      6  C   UNL     1      -1.750  12.180  18.041  0.00  0.00    +0.000 C 
ATOM      7  O   UNL     1      -0.715  13.151  18.154  0.00  0.00    +0.000 OA
ATOM      8  C   UNL     1       0.456  12.572  18.739  0.00  0.00    +0.000 C 
ATOM      9  C   UNL     1       0.143  11.986  20.092  0.00  0.00    +0.000 C 
ATOM     10  C   UNL     1      -1.109  11.662  20.467  0.00  0.00    +0.000 C 
ENDROOT
BRANCH   4  11
ATOM     11  C   UNL     1      -4.624  12.386  19.317  0.00  0.00    +0.000 A 
ATOM     12  C   UNL     1      -5.613  13.341  18.983  0.00  0.00    +0.000 A 
ATOM     13  C   UNL     1      -6.764  12.958  18.296  0.00  0.00    +0.000 A 
ATOM     14  C   UNL     1      -6.931  11.619  18.004  0.00  0.00    +0.000 A 
ATOM     15  N   UNL     1      -6.044  10.666  18.362  0.00  0.00    +0.000 NA
ATOM     16  C   UNL     1      -4.916  11.063  18.999  0.00  0.00    +0.000 A 
ENDBRANCH   4  11
BRANCH   2  17
ATOM     17  N   UNL     1      -2.686  12.177  23.837  0.00  0.00    +0.000 N 
ATOM     18  H   UNL     1      -2.060  12.717  24.438  0.00  0.00    +0.000 HD
ATOM     19  H   UNL     1      -3.660  12.264  24.132  0.00  0.00    +0.000 HD
ENDBRANCH   2  17
BRANCH   1  21
ATOM     20  N   UNL     1       0.106   9.877  23.534  0.00  0.00    +0.000 NA
ATOM     21  C   UNL     1      -0.625  10.571  22.777  0.00  0.00    +0.000 C 
ENDBRANCH   1  21
BRANCH   3  22
ATOM     22  C   UNL     1      -2.648  14.462  21.739  0.00  0.00    +0.000 C 
ATOM     23  N   UNL     1      -2.214  15.634  21.907  0.00  0.00    +0.000 NA
ENDBRANCH   3  22
BRANCH   3  24
ATOM     24  C   UNL     1      -4.610  12.745  21.920  0.00  0.00    +0.000 C 
ATOM     25  N   UNL     1      -5.804  12.493  22.237  0.00  0.00    +0.000 NA
ENDBRANCH   3  24
TORSDOF 5
ENDMDL
MODEL 5
REMARK VINA RESULT:      -4.7      9.262     10.947
REMARK  Name = 
REMARK  5 active torsions:
REMARK  status: ('A' for Active; 'I' for Inactive)
REMARK    1  A    between atoms: C_2  and  C_3
REMARK    2  A    between atoms: C_4  and  N_5
REMARK    3  A    between atoms: C_6  and  C_7
REMARK    4  A    between atoms: C_6  and  C_9
REMARK    5  A    between atoms: C_11  and  C_12
REMARK                            x       y       z     vdW  Elec       q    Type
REMARK                         _______ _______ _______ _____ _____    ______ ____
ROOT
ATOM      1  C   UNL     1       9.855  15.918  18.411  0.00  0.00    +0.000 C 
ATOM      2  C   UNL     1       8.549  15.722  18.541  0.00  0.00    +0.000 C 
ATOM      3  C   UNL     1       8.196  14.378  19.077  0.00  0.00    +0.000 C 
ATOM      4  C   UNL     1       9.251  13.442  19.884  0.00  0.00    +0.000 C 
ATOM      5  C   UNL     1      10.694  13.926  19.743  0.00  0.00    +0.000 C 
ATOM      6  C   UNL     1      11.619  12.686  19.724  0.00  0.00    +0.000 C 
ATOM      7  O   UNL     1      11.677  12.160  18.403  0.00  0.00    +0.000 OA
ATOM      8  C   UNL     1      12.333  13.080  17.524  0.00  0.00    +0.000 C 
ATOM      9  C   UNL     1      11.629  14.412  17.523  0.00  0.00    +0.000 C 
ATOM     10  C   UNL     1      10.811  14.798  18.520  0.00  0.00    +0.000 C 
ENDROOT
BRANCH   4  11
ATOM     11  C   UNL     1       8.998  13.182  21.401  0.00  0.00    +0.000 A 
ATOM     12  C   UNL     1       9.260  14.159  22.391  0.00  0.00    +0.000 A 
ATOM     13  C   UNL     1       8.881  13.946  23.715  0.00  0.00    +0.000 A 
ATOM     14  C   UNL     1       8.296  12.737  24.037  0.00  0.00    +0.000 A 
ATOM     15  N   UNL     1       8.088  11.752  23.138  0.00  0.00    +0.000 NA
ATOM     16  C   UNL     1       8.432  11.992  21.849  0.00  0.00    +0.000 A 
ENDBRANCH   4  11
BRANCH   2  17
ATOM     17  N   UNL     1       7.553  16.642  18.212  0.00  0.00    +0.000 N 
ATOM     18  H   UNL     1       6.747  16.302  17.684  0.00  0.00    +0.000 HD
ATOM     19  H   UNL     1       7.278  17.322  18.923  0.00  0.00    +0.000 HD
ENDBRANCH   2  17
BRANCH   1  21
ATOM     20  N   UNL     1      10.619  18.309  17.213  0.00  0.00    +0.000 NA
ATOM     21  C   UNL     1      10.273  17.225  17.756  0.00  0.00    +0.000 C 
ENDBRANCH   1  21
BRANCH   3  22
ATOM     22  C   UNL     1       7.661  13.556  17.915  0.00  0.00    +0.000 C 
ATOM     23  N   UNL     1       7.217  12.875  16.952  0.00  0.00    +0.000 NA
ENDBRANCH   3  22
BRANCH   3  24
ATOM     24  C   UNL     1       7.249  14.740  20.209  0.00  0.00    +0.000 C 
ATOM     25  N   UNL     1       6.464  15.039  21.149  0.00  0.00    +0.000 NA
ENDBRANCH   3  24
TORSDOF 5
ENDMDL
MODEL 6
REMARK VINA RESULT:      -4.6      7.511     11.033
REMARK  Name = 
REMARK  5 active torsions:
REMARK  status: ('A' for Active; 'I' for Inactive)
REMARK    1  A    between atoms: C_2  and  C_3
REMARK    2  A    between atoms: C_4  and  N_5
REMARK    3  A    between atoms: C_6  and  C_7
REMARK    4  A    between atoms: C_6  and  C_9
REMARK    5  A    between atoms: C_11  and  C_12
REMARK                            x       y       z     vdW  Elec       q    Type
REMARK                         _______ _______ _______ _____ _____    ______ ____
ROOT
ATOM      1  C   UNL     1       6.276  14.811  21.253  0.00  0.00    +0.000 C 
ATOM      2  C   UNL     1       6.154  14.954  19.940  0.00  0.00    +0.000 C 
ATOM      3  C   UNL     1       7.447  15.194  19.241  0.00  0.00    +0.000 C 
ATOM      4  C   UNL     1       8.888  14.829  19.897  0.00  0.00    +0.000 C 
ATOM      5  C   UNL     1       8.796  14.537  21.395  0.00  0.00    +0.000 C 
ATOM      6  C   UNL     1      10.092  15.049  22.066  0.00  0.00    +0.000 C 
ATOM      7  O   UNL     1       9.964  16.440  22.340  0.00  0.00    +0.000 OA
ATOM      8  C   UNL     1       8.960  16.667  23.334  0.00  0.00    +0.000 C 
ATOM      9  C   UNL     1       7.635  16.100  22.894  0.00  0.00    +0.000 C 
ATOM     10  C   UNL     1       7.534  15.150  21.945  0.00  0.00    +0.000 C 
ENDROOT
BRANCH   4  11
ATOM     11  C   UNL     1       9.723  13.677  19.253  0.00  0.00    +0.000 A 
ATOM     12  C   UNL     1       9.573  12.325  19.642  0.00  0.00    +0.000 A 
ATOM     13  C   UNL     1      10.224  11.311  18.942  0.00  0.00    +0.000 A 
ATOM     14  C   UNL     1      11.056  11.670  17.901  0.00  0.00    +0.000 A 
ATOM     15  N   UNL     1      11.279  12.952  17.539  0.00  0.00    +0.000 NA
ATOM     16  C   UNL     1      10.610  13.921  18.209  0.00  0.00    +0.000 A 
ENDBRANCH   4  11
BRANCH   2  17
ATOM     17  N   UNL     1       4.956  14.907  19.225  0.00  0.00    +0.000 N 
ATOM     18  H   UNL     1       5.012  14.880  18.205  0.00  0.00    +0.000 HD
ATOM     19  H   UNL     1       4.213  14.302  19.578  0.00  0.00    +0.000 HD
ENDBRANCH   2  17
BRANCH   1  21
ATOM     20  N   UNL     1       3.902  14.577  22.682  0.00  0.00    +0.000 NA
ATOM     21  C   UNL     1       4.978  14.683  22.034  0.00  0.00    +0.000 C 
ENDBRANCH   1  21
BRANCH   3  22
ATOM     22  C   UNL     1       7.486  16.664  18.858  0.00  0.00    +0.000 C 
ATOM     23  N   UNL     1       7.519  17.884  18.540  0.00  0.00    +0.000 NA
ENDBRANCH   3  22
BRANCH   3  24
ATOM     24  C   UNL     1       7.394  14.155  18.133  0.00  0.00    +0.000 C 
ATOM     25  N   UNL     1       7.350  13.294  17.213  0.00  0.00    +0.000 NA
ENDBRANCH   3  24
TORSDOF 5
ENDMDL
MODEL 7
REMARK VINA RESULT:      -4.6      2.753      4.858
REMARK  Name = 
REMARK  5 active torsions:
REMARK  status: ('A' for Active; 'I' for Inactive)
REMARK    1  A    between atoms: C_2  and  C_3
REMARK    2  A    between atoms: C_4  and  N_5
REMARK    3  A    between atoms: C_6  and  C_7
REMARK    4  A    between atoms: C_6  and  C_9
REMARK    5  A    between atoms: C_11  and  C_12
REMARK                            x       y       z     vdW  Elec       q    Type
REMARK                         _______ _______ _______ _____ _____    ______ ____
ROOT
ATOM      1  C   UNL     1      -0.507  11.659  21.758  0.00  0.00    +0.000 C 
ATOM      2  C   UNL     1      -0.130  11.465  20.501  0.00  0.00    +0.000 C 
ATOM      3  C   UNL     1      -0.579  12.536  19.570  0.00  0.00    +0.000 C 
ATOM      4  C   UNL     1      -1.031  14.014  20.072  0.00  0.00    +0.000 C 
ATOM      5  C   UNL     1      -1.264  14.076  21.582  0.00  0.00    +0.000 C 
ATOM      6  C   UNL     1      -2.422  15.066  21.851  0.00  0.00    +0.000 C 
ATOM      7  O   UNL     1      -3.665  14.390  21.698  0.00  0.00    +0.000 OA
ATOM      8  C   UNL     1      -3.829  13.399  22.717  0.00  0.00    +0.000 C 
ATOM      9  C   UNL     1      -2.692  12.409  22.687  0.00  0.00    +0.000 C 
ATOM     10  C   UNL     1      -1.509  12.685  22.106  0.00  0.00    +0.000 C 
ENDROOT
BRANCH   4  11
ATOM     11  C   UNL     1      -0.130  15.231  19.694  0.00  0.00    +0.000 A 
ATOM     12  C   UNL     1      -0.366  16.019  18.543  0.00  0.00    +0.000 A 
ATOM     13  C   UNL     1       0.366  17.184  18.320  0.00  0.00    +0.000 A 
ATOM     14  C   UNL     1       1.357  17.512  19.223  0.00  0.00    +0.000 A 
ATOM     15  N   UNL     1       1.659  16.754  20.299  0.00  0.00    +0.000 NA
ATOM     16  C   UNL     1       0.914  15.644  20.516  0.00  0.00    +0.000 A 
ENDBRANCH   4  11
BRANCH   2  17
ATOM     17  N   UNL     1       0.605  10.375  20.032  0.00  0.00    +0.000 N 
ATOM     18  H   UNL     1       0.541  10.151  19.037  0.00  0.00    +0.000 HD
ATOM     19  H   UNL     1       1.556  10.255  20.385  0.00  0.00    +0.000 HD
ENDBRANCH   2  17
BRANCH   1  21
ATOM     20  N   UNL     1       0.088   9.610  23.542  0.00  0.00    +0.000 NA
ATOM     21  C   UNL     1      -0.182  10.539  22.733  0.00  0.00    +0.000 C 
ENDBRANCH   1  21
BRANCH   3  22
ATOM     22  C   UNL     1      -1.726  11.969  18.749  0.00  0.00    +0.000 C 
ATOM     23  N   UNL     1      -2.678  11.498  18.069  0.00  0.00    +0.000 NA
ENDBRANCH   3  22
BRANCH   3  24
ATOM     24  C   UNL     1       0.718  12.888  18.859  0.00  0.00    +0.000 C 
ATOM     25  N   UNL     1       1.794  13.178  18.270  0.00  0.00    +0.000 NA
ENDBRANCH   3  24
TORSDOF 5
ENDMDL
MODEL 8
REMARK VINA RESULT:      -4.5      8.182     10.070
REMARK  Name = 
REMARK  5 active torsions:
REMARK  status: ('A' for Active; 'I' for Inactive)
REMARK    1  A    between atoms: C_2  and  C_3
REMARK    2  A    between atoms: C_4  and  N_5
REMARK    3  A    between atoms: C_6  and  C_7
REMARK    4  A    between atoms: C_6  and  C_9
REMARK    5  A    between atoms: C_11  and  C_12
REMARK                            x       y       z     vdW  Elec       q    Type
REMARK                         _______ _______ _______ _____ _____    ______ ____
ROOT
ATOM      1  C   UNL     1      10.152  15.049  21.292  0.00  0.00    +0.000 C 
ATOM      2  C   UNL     1       8.992  15.636  21.557  0.00  0.00    +0.000 C 
ATOM      3  C   UNL     1       7.846  14.689  21.631  0.00  0.00    +0.000 C 
ATOM      4  C   UNL     1       8.030  13.092  21.867  0.00  0.00    +0.000 C 
ATOM      5  C   UNL     1       9.475  12.632  21.671  0.00  0.00    +0.000 C 
ATOM      6  C   UNL     1       9.450  11.211  21.061  0.00  0.00    +0.000 C 
ATOM      7  O   UNL     1       9.300  11.306  19.649  0.00  0.00    +0.000 OA
ATOM      8  C   UNL     1      10.459  11.903  19.059  0.00  0.00    +0.000 C 
ATOM      9  C   UNL     1      10.716  13.266  19.648  0.00  0.00    +0.000 C 
ATOM     10  C   UNL     1      10.213  13.647  20.837  0.00  0.00    +0.000 C 
ENDROOT
BRANCH   4  11
ATOM     11  C   UNL     1       7.530  12.481  23.213  0.00  0.00    +0.000 A 
ATOM     12  C   UNL     1       8.337  12.446  24.375  0.00  0.00    +0.000 A 
ATOM     13  C   UNL     1       7.805  12.031  25.595  0.00  0.00    +0.000 A 
ATOM     14  C   UNL     1       6.492  11.607  25.620  0.00  0.00    +0.000 A 
ATOM     15  N   UNL     1       5.706  11.562  24.523  0.00  0.00    +0.000 NA
ATOM     16  C   UNL     1       6.232  12.001  23.354  0.00  0.00    +0.000 A 
ENDBRANCH   4  11
BRANCH   2  17
ATOM     17  N   UNL     1       8.798  17.006  21.746  0.00  0.00    +0.000 N 
ATOM     18  H   UNL     1       9.261  17.446  22.543  0.00  0.00    +0.000 HD
ATOM     19  H   UNL     1       8.815  17.607  20.920  0.00  0.00    +0.000 HD
ENDBRANCH   2  17
BRANCH   1  21
ATOM     20  N   UNL     1      12.322  16.747  20.914  0.00  0.00    +0.000 NA
ATOM     21  C   UNL     1      11.338  15.977  21.085  0.00  0.00    +0.000 C 
ENDBRANCH   1  21
BRANCH   3  22
ATOM     22  C   UNL     1       7.033  14.865  20.359  0.00  0.00    +0.000 C 
ATOM     23  N   UNL     1       6.358  15.012  19.304  0.00  0.00    +0.000 NA
ENDBRANCH   3  22
BRANCH   3  24
ATOM     24  C   UNL     1       7.213  15.077  22.958  0.00  0.00    +0.000 C 
ATOM     25  N   UNL     1       6.688  15.398  24.058  0.00  0.00    +0.000 NA
ENDBRANCH   3  24
TORSDOF 5
ENDMDL
MODEL 9
REMARK VINA RESULT:      -4.5      2.731      4.833
REMARK  Name = 
REMARK  5 active torsions:
REMARK  status: ('A' for Active; 'I' for Inactive)
REMARK    1  A    between atoms: C_2  and  C_3
REMARK    2  A    between atoms: C_4  and  N_5
REMARK    3  A    between atoms: C_6  and  C_7
REMARK    4  A    between atoms: C_6  and  C_9
REMARK    5  A    between atoms: C_11  and  C_12
REMARK                            x       y       z     vdW  Elec       q    Type
REMARK                         _______ _______ _______ _____ _____    ______ ____
ROOT
ATOM      1  C   UNL     1      -3.366  12.770  21.322  0.00  0.00    +0.000 C 
ATOM      2  C   UNL     1      -2.826  12.709  22.533  0.00  0.00    +0.000 C 
ATOM      3  C   UNL     1      -1.350  12.908  22.540  0.00  0.00    +0.000 C 
ATOM      4  C   UNL     1      -0.545  13.613  21.318  0.00  0.00    +0.000 C 
ATOM      5  C   UNL     1      -1.392  13.739  20.051  0.00  0.00    +0.000 C 
ATOM      6  C   UNL     1      -0.461  13.563  18.829  0.00  0.00    +0.000 C 
ATOM      7  O   UNL     1      -0.288  12.176  18.563  0.00  0.00    +0.000 OA
ATOM      8  C   UNL     1      -1.520  11.589  18.131  0.00  0.00    +0.000 C 
ATOM      9  C   UNL     1      -2.598  11.789  19.166  0.00  0.00    +0.000 C 
ATOM     10  C   UNL     1      -2.526  12.747  20.109  0.00  0.00    +0.000 C 
ENDROOT
BRANCH   4  11
ATOM     11  C   UNL     1       0.114  15.004  21.572  0.00  0.00    +0.000 A 
ATOM     12  C   UNL     1       1.463  15.140  21.976  0.00  0.00    +0.000 A 
ATOM     13  C   UNL     1       2.058  16.399  22.047  0.00  0.00    +0.000 A 
ATOM     14  C   UNL     1       1.278  17.503  21.765  0.00  0.00    +0.000 A 
ATOM     15  N   UNL     1      -0.030  17.423  21.439  0.00  0.00    +0.000 NA
ATOM     16  C   UNL     1      -0.580  16.188  21.343  0.00  0.00    +0.000 A 
ENDBRANCH   4  11
BRANCH   2  17
ATOM     17  N   UNL     1      -3.519  12.471  23.721  0.00  0.00    +0.000 N 
ATOM     18  H   UNL     1      -3.593  13.240  24.390  0.00  0.00    +0.000 HD
ATOM     19  H   UNL     1      -4.385  11.932  23.667  0.00  0.00    +0.000 HD
ENDBRANCH   2  17
BRANCH   1  21
ATOM     20  N   UNL     1      -6.082  12.195  21.165  0.00  0.00    +0.000 NA
ATOM     21  C   UNL     1      -4.850  12.455  21.236  0.00  0.00    +0.000 C 
ENDBRANCH   1  21
BRANCH   3  22
ATOM     22  C   UNL     1      -0.713  11.547  22.774  0.00  0.00    +0.000 C 
ATOM     23  N   UNL     1      -0.185  10.419  22.968  0.00  0.00    +0.000 NA
ENDBRANCH   3  22
BRANCH   3  24
ATOM     24  C   UNL     1      -1.191  13.978  23.608  0.00  0.00    +0.000 C 
ATOM     25  N   UNL     1      -1.060  14.866  24.493  0.00  0.00    +0.000 NA
ENDBRANCH   3  24
TORSDOF 5
ENDMDL
