MODEL 1
REMARK VINA RESULT:      -7.2      0.000      0.000
REMARK  Name = 
REMARK  4 active torsions:
REMARK  status: ('A' for Active; 'I' for Inactive)
REMARK    1  A    between atoms: C_1  and  O_2
REMARK    2  A    between atoms: O_2  and  C_3
REMARK    3  A    between atoms: C_7  and  C_8
REMARK    4  A    between atoms: C_13  and  C_14
REMARK                            x       y       z     vdW  Elec       q    Type
REMARK                         _______ _______ _______ _____ _____    ______ ____
ROOT
ATOM      1  C   UNL     1       5.029   5.560  17.528  0.00  0.00    +0.000 C 
ATOM      2  O   UNL     1       5.798   6.493  17.728  0.00  0.00    +0.000 OA
ATOM      3  N   UNL     1       4.978   4.754  16.406  0.00  0.00    +0.000 N 
ATOM      4  C   UNL     1       5.897   4.849  15.370  0.00  0.00    +0.000 A 
ATOM      5  C   UNL     1       5.771   4.201  14.116  0.00  0.00    +0.000 A 
ATOM      6  C   UNL     1       6.894   4.576  13.415  0.00  0.00    +0.000 A 
ATOM      7  C   UNL     1       7.423   4.308  12.068  0.00  0.00    +0.000 C 
ATOM      8  O   UNL     1       7.655   5.378  14.200  0.00  0.00    +0.000 OA
ATOM      9  N   UNL     1       7.034   5.549  15.414  0.00  0.00    +0.000 NA
ATOM     10  H   UNL     1       4.195   4.136  16.263  0.00  0.00    +0.000 HD
ENDROOT
BRANCH   1  15
ATOM     11  C   UNL     1       2.970   3.908  20.260  0.00  0.00    +0.000 A 
ATOM     12  C   UNL     1       2.131   4.973  20.605  0.00  0.00    +0.000 A 
ATOM     13  C   UNL     1       2.222   6.197  19.945  0.00  0.00    +0.000 A 
ATOM     14  C   UNL     1       3.158   6.360  18.928  0.00  0.00    +0.000 A 
ATOM     15  C   UNL     1       3.999   5.298  18.568  0.00  0.00    +0.000 A 
ATOM     16  C   UNL     1       3.909   4.068  19.237  0.00  0.00    +0.000 A 
BRANCH  11  18
ATOM     17  C   UNL     1       1.543   2.662  21.703  0.00  0.00    +0.000 C 
ATOM     18  O   UNL     1       2.775   2.777  21.005  0.00  0.00    +0.000 OA
ENDBRANCH  11  18
ENDBRANCH   1  15
TORSDOF 2
ENDMDL
MODEL 2
REMARK VINA RESULT:      -7.0      1.215      1.376
REMARK  Name = 
REMARK  4 active torsions:
REMARK  status: ('A' for Active; 'I' for Inactive)
REMARK    1  A    between atoms: C_1  and  O_2
REMARK    2  A    between atoms: O_2  and  C_3
REMARK    3  A    between atoms: C_7  and  C_8
REMARK    4  A    between atoms: C_13  and  C_14
REMARK                            x       y       z     vdW  Elec       q    Type
REMARK                         _______ _______ _______ _____ _____    ______ ____
ROOT
ATOM      1  C   UNL     1       4.744   4.690  17.597  0.00  0.00    +0.000 C 
ATOM      2  O   UNL     1       5.400   5.555  18.167  0.00  0.00    +0.000 OA
ATOM      3  N   UNL     1       4.911   4.244  16.299  0.00  0.00    +0.000 N 
ATOM      4  C   UNL     1       5.949   4.675  15.484  0.00  0.00    +0.000 A 
ATOM      5  C   UNL     1       6.046   4.416  14.094  0.00  0.00    +0.000 A 
ATOM      6  C   UNL     1       7.216   5.025  13.706  0.00  0.00    +0.000 A 
ATOM      7  C   UNL     1       7.941   5.183  12.435  0.00  0.00    +0.000 C 
ATOM      8  O   UNL     1       7.797   5.594  14.792  0.00  0.00    +0.000 OA
ATOM      9  N   UNL     1       7.008   5.377  15.896  0.00  0.00    +0.000 NA
ATOM     10  H   UNL     1       4.208   3.663  15.871  0.00  0.00    +0.000 HD
ENDROOT
BRANCH   1  15
ATOM     11  C   UNL     1       2.579   3.296  20.391  0.00  0.00    +0.000 A 
ATOM     12  C   UNL     1       1.375   3.128  19.699  0.00  0.00    +0.000 A 
ATOM     13  C   UNL     1       1.279   3.441  18.344  0.00  0.00    +0.000 A 
ATOM     14  C   UNL     1       2.396   3.927  17.673  0.00  0.00    +0.000 A 
ATOM     15  C   UNL     1       3.610   4.094  18.352  0.00  0.00    +0.000 A 
ATOM     16  C   UNL     1       3.704   3.782  19.717  0.00  0.00    +0.000 A 
BRANCH  11  18
ATOM     17  C   UNL     1       1.304   2.388  22.186  0.00  0.00    +0.000 C 
ATOM     18  O   UNL     1       2.516   2.962  21.716  0.00  0.00    +0.000 OA
ENDBRANCH  11  18
ENDBRANCH   1  15
TORSDOF 2
ENDMDL
MODEL 3
REMARK VINA RESULT:      -6.8      1.140      2.009
REMARK  Name = 
REMARK  4 active torsions:
REMARK  status: ('A' for Active; 'I' for Inactive)
REMARK    1  A    between atoms: C_1  and  O_2
REMARK    2  A    between atoms: O_2  and  C_3
REMARK    3  A    between atoms: C_7  and  C_8
REMARK    4  A    between atoms: C_13  and  C_14
REMARK                            x       y       z     vdW  Elec       q    Type
REMARK                         _______ _______ _______ _____ _____    ______ ____
ROOT
ATOM      1  C   UNL     1       5.189   5.331  17.793  0.00  0.00    +0.000 C 
ATOM      2  O   UNL     1       5.993   6.216  18.063  0.00  0.00    +0.000 OA
ATOM      3  N   UNL     1       5.090   4.637  16.601  0.00  0.00    +0.000 N 
ATOM      4  C   UNL     1       5.991   4.802  15.558  0.00  0.00    +0.000 A 
ATOM      5  C   UNL     1       5.819   4.281  14.252  0.00  0.00    +0.000 A 
ATOM      6  C   UNL     1       6.939   4.685  13.564  0.00  0.00    +0.000 A 
ATOM      7  C   UNL     1       7.433   4.529  12.187  0.00  0.00    +0.000 C 
ATOM      8  O   UNL     1       7.742   5.384  14.404  0.00  0.00    +0.000 OA
ATOM      9  N   UNL     1       7.151   5.458  15.643  0.00  0.00    +0.000 NA
ATOM     10  H   UNL     1       4.284   4.061  16.419  0.00  0.00    +0.000 HD
ENDROOT
BRANCH   1  15
ATOM     11  C   UNL     1       2.287   5.576  20.232  0.00  0.00    +0.000 A 
ATOM     12  C   UNL     1       2.209   4.242  20.647  0.00  0.00    +0.000 A 
ATOM     13  C   UNL     1       3.100   3.288  20.157  0.00  0.00    +0.000 A 
ATOM     14  C   UNL     1       4.079   3.669  19.245  0.00  0.00    +0.000 A 
ATOM     15  C   UNL     1       4.171   5.004  18.827  0.00  0.00    +0.000 A 
ATOM     16  C   UNL     1       3.271   5.962  19.317  0.00  0.00    +0.000 A 
BRANCH  11  18
ATOM     17  C   UNL     1       1.574   7.792  20.738  0.00  0.00    +0.000 C 
ATOM     18  O   UNL     1       1.337   6.391  20.785  0.00  0.00    +0.000 OA
ENDBRANCH  11  18
ENDBRANCH   1  15
TORSDOF 2
ENDMDL
MODEL 4
REMARK VINA RESULT:      -6.8      1.919      6.927
REMARK  Name = 
REMARK  4 active torsions:
REMARK  status: ('A' for Active; 'I' for Inactive)
REMARK    1  A    between atoms: C_1  and  O_2
REMARK    2  A    between atoms: O_2  and  C_3
REMARK    3  A    between atoms: C_7  and  C_8
REMARK    4  A    between atoms: C_13  and  C_14
REMARK                            x       y       z     vdW  Elec       q    Type
REMARK                         _______ _______ _______ _____ _____    ______ ____
ROOT
ATOM      1  C   UNL     1       6.001   4.781  16.083  0.00  0.00    +0.000 C 
ATOM      2  O   UNL     1       6.920   5.048  16.849  0.00  0.00    +0.000 OA
ATOM      3  N   UNL     1       4.662   4.655  16.407  0.00  0.00    +0.000 N 
ATOM      4  C   UNL     1       4.168   4.923  17.676  0.00  0.00    +0.000 A 
ATOM      5  C   UNL     1       2.857   4.611  18.114  0.00  0.00    +0.000 A 
ATOM      6  C   UNL     1       2.811   5.049  19.417  0.00  0.00    +0.000 A 
ATOM      7  C   UNL     1       1.798   5.047  20.485  0.00  0.00    +0.000 C 
ATOM      8  O   UNL     1       4.006   5.605  19.736  0.00  0.00    +0.000 OA
ATOM      9  N   UNL     1       4.849   5.525  18.654  0.00  0.00    +0.000 NA
ATOM     10  H   UNL     1       4.018   4.256  15.742  0.00  0.00    +0.000 HD
ENDROOT
BRANCH   1  15
ATOM     11  C   UNL     1       5.953   3.468  12.519  0.00  0.00    +0.000 A 
ATOM     12  C   UNL     1       7.035   4.176  11.987  0.00  0.00    +0.000 A 
ATOM     13  C   UNL     1       7.779   5.047  12.782  0.00  0.00    +0.000 A 
ATOM     14  C   UNL     1       7.439   5.212  14.121  0.00  0.00    +0.000 A 
ATOM     15  C   UNL     1       6.360   4.503  14.667  0.00  0.00    +0.000 A 
ATOM     16  C   UNL     1       5.610   3.630  13.865  0.00  0.00    +0.000 A 
BRANCH  11  18
ATOM     17  C   UNL     1       4.031   3.087  11.163  0.00  0.00    +0.000 C 
ATOM     18  O   UNL     1       5.311   2.665  11.615  0.00  0.00    +0.000 OA
ENDBRANCH  11  18
ENDBRANCH   1  15
TORSDOF 2
ENDMDL
MODEL 5
REMARK VINA RESULT:      -6.8      3.668      7.504
REMARK  Name = 
REMARK  4 active torsions:
REMARK  status: ('A' for Active; 'I' for Inactive)
REMARK    1  A    between atoms: C_1  and  O_2
REMARK    2  A    between atoms: O_2  and  C_3
REMARK    3  A    between atoms: C_7  and  C_8
REMARK    4  A    between atoms: C_13  and  C_14
REMARK                            x       y       z     vdW  Elec       q    Type
REMARK                         _______ _______ _______ _____ _____    ______ ____
ROOT
ATOM      1  C   UNL     1       2.618   7.738  18.183  0.00  0.00    +0.000 C 
ATOM      2  O   UNL     1       2.437   8.735  17.493  0.00  0.00    +0.000 OA
ATOM      3  N   UNL     1       2.196   7.544  19.486  0.00  0.00    +0.000 N 
ATOM      4  C   UNL     1       1.399   8.458  20.161  0.00  0.00    +0.000 A 
ATOM      5  C   UNL     1       1.115   8.412  21.549  0.00  0.00    +0.000 A 
ATOM      6  C   UNL     1       0.301   9.496  21.775  0.00  0.00    +0.000 A 
ATOM      7  C   UNL     1      -0.361  10.079  22.953  0.00  0.00    +0.000 C 
ATOM      8  O   UNL     1       0.090  10.141  20.600  0.00  0.00    +0.000 OA
ATOM      9  N   UNL     1       0.774   9.496  19.598  0.00  0.00    +0.000 NA
ATOM     10  H   UNL     1       2.552   6.768  20.021  0.00  0.00    +0.000 HD
ENDROOT
BRANCH   1  15
ATOM     11  C   UNL     1       5.366   5.815  16.400  0.00  0.00    +0.000 A 
ATOM     12  C   UNL     1       4.944   4.505  16.652  0.00  0.00    +0.000 A 
ATOM     13  C   UNL     1       3.775   4.256  17.369  0.00  0.00    +0.000 A 
ATOM     14  C   UNL     1       3.019   5.325  17.839  0.00  0.00    +0.000 A 
ATOM     15  C   UNL     1       3.427   6.642  17.588  0.00  0.00    +0.000 A 
ATOM     16  C   UNL     1       4.606   6.890  16.869  0.00  0.00    +0.000 A 
BRANCH  11  18
ATOM     17  C   UNL     1       6.977   4.732  15.019  0.00  0.00    +0.000 C 
ATOM     18  O   UNL     1       6.537   5.901  15.698  0.00  0.00    +0.000 OA
ENDBRANCH  11  18
ENDBRANCH   1  15
TORSDOF 2
ENDMDL
MODEL 6
REMARK VINA RESULT:      -6.6      1.162      1.930
REMARK  Name = 
REMARK  4 active torsions:
REMARK  status: ('A' for Active; 'I' for Inactive)
REMARK    1  A    between atoms: C_1  and  O_2
REMARK    2  A    between atoms: O_2  and  C_3
REMARK    3  A    between atoms: C_7  and  C_8
REMARK    4  A    between atoms: C_13  and  C_14
REMARK                            x       y       z     vdW  Elec       q    Type
REMARK                         _______ _______ _______ _____ _____    ______ ____
ROOT
ATOM      1  C   UNL     1       5.225   4.469  17.394  0.00  0.00    +0.000 C 
ATOM      2  O   UNL     1       5.918   5.376  17.841  0.00  0.00    +0.000 OA
ATOM      3  N   UNL     1       5.228   3.985  16.099  0.00  0.00    +0.000 N 
ATOM      4  C   UNL     1       6.124   4.425  15.134  0.00  0.00    +0.000 A 
ATOM      5  C   UNL     1       6.037   4.121  13.753  0.00  0.00    +0.000 A 
ATOM      6  C   UNL     1       7.117   4.757  13.187  0.00  0.00    +0.000 A 
ATOM      7  C   UNL     1       7.651   4.897  11.823  0.00  0.00    +0.000 C 
ATOM      8  O   UNL     1       7.819   5.384  14.164  0.00  0.00    +0.000 OA
ATOM      9  N   UNL     1       7.201   5.178  15.373  0.00  0.00    +0.000 NA
ATOM     10  H   UNL     1       4.496   3.365  15.791  0.00  0.00    +0.000 HD
ENDROOT
BRANCH   1  15
ATOM     11  C   UNL     1       2.654   3.982  20.147  0.00  0.00    +0.000 A 
ATOM     12  C   UNL     1       2.272   2.662  19.888  0.00  0.00    +0.000 A 
ATOM     13  C   UNL     1       2.858   1.939  18.851  0.00  0.00    +0.000 A 
ATOM     14  C   UNL     1       3.836   2.539  18.065  0.00  0.00    +0.000 A 
ATOM     15  C   UNL     1       4.232   3.860  18.318  0.00  0.00    +0.000 A 
ATOM     16  C   UNL     1       3.638   4.587  19.360  0.00  0.00    +0.000 A 
BRANCH  11  18
ATOM     17  C   UNL     1       1.464   5.874  20.974  0.00  0.00    +0.000 C 
ATOM     18  O   UNL     1       1.980   4.567  21.186  0.00  0.00    +0.000 OA
ENDBRANCH  11  18
ENDBRANCH   1  15
TORSDOF 2
ENDMDL
MODEL 7
REMARK VINA RESULT:      -6.6      2.094      3.000
REMARK  Name = 
REMARK  4 active torsions:
REMARK  status: ('A' for Active; 'I' for Inactive)
REMARK    1  A    between atoms: C_1  and  O_2
REMARK    2  A    between atoms: O_2  and  C_3
REMARK    3  A    between atoms: C_7  and  C_8
REMARK    4  A    between atoms: C_13  and  C_14
REMARK                            x       y       z     vdW  Elec       q    Type
REMARK                         _______ _______ _______ _____ _____    ______ ____
ROOT
ATOM      1  C   UNL     1       5.187   6.282  16.535  0.00  0.00    +0.000 C 
ATOM      2  O   UNL     1       6.038   7.149  16.376  0.00  0.00    +0.000 OA
ATOM      3  N   UNL     1       4.975   5.173  15.736  0.00  0.00    +0.000 N 
ATOM      4  C   UNL     1       5.801   4.846  14.669  0.00  0.00    +0.000 A 
ATOM      5  C   UNL     1       5.514   3.853  13.701  0.00  0.00    +0.000 A 
ATOM      6  C   UNL     1       6.592   3.875  12.848  0.00  0.00    +0.000 A 
ATOM      7  C   UNL     1       6.976   3.145  11.628  0.00  0.00    +0.000 C 
ATOM      8  O   UNL     1       7.479   4.803  13.285  0.00  0.00    +0.000 OA
ATOM      9  N   UNL     1       6.986   5.408  14.416  0.00  0.00    +0.000 NA
ATOM     10  H   UNL     1       4.138   4.623  15.849  0.00  0.00    +0.000 HD
ENDROOT
BRANCH   1  15
ATOM     11  C   UNL     1       2.456   7.646  18.795  0.00  0.00    +0.000 A 
ATOM     12  C   UNL     1       2.399   6.623  19.748  0.00  0.00    +0.000 A 
ATOM     13  C   UNL     1       3.251   5.522  19.666  0.00  0.00    +0.000 A 
ATOM     14  C   UNL     1       4.169   5.443  18.623  0.00  0.00    +0.000 A 
ATOM     15  C   UNL     1       4.239   6.464  17.666  0.00  0.00    +0.000 A 
ATOM     16  C   UNL     1       3.378   7.568  17.748  0.00  0.00    +0.000 A 
BRANCH  11  18
ATOM     17  C   UNL     1       1.402   9.614  17.963  0.00  0.00    +0.000 C 
ATOM     18  O   UNL     1       1.549   8.651  18.998  0.00  0.00    +0.000 OA
ENDBRANCH  11  18
ENDBRANCH   1  15
TORSDOF 2
ENDMDL
MODEL 8
REMARK VINA RESULT:      -6.5      3.818      7.067
REMARK  Name = 
REMARK  4 active torsions:
REMARK  status: ('A' for Active; 'I' for Inactive)
REMARK    1  A    between atoms: C_1  and  O_2
REMARK    2  A    between atoms: O_2  and  C_3
REMARK    3  A    between atoms: C_7  and  C_8
REMARK    4  A    between atoms: C_13  and  C_14
REMARK                            x       y       z     vdW  Elec       q    Type
REMARK                         _______ _______ _______ _____ _____    ______ ____
ROOT
ATOM      1  C   UNL     1       2.544   7.556  18.399  0.00  0.00    +0.000 C 
ATOM      2  O   UNL     1       2.526   8.551  17.683  0.00  0.00    +0.000 OA
ATOM      3  N   UNL     1       2.021   7.444  19.674  0.00  0.00    +0.000 N 
ATOM      4  C   UNL     1       1.297   8.460  20.282  0.00  0.00    +0.000 A 
ATOM      5  C   UNL     1       0.923   8.480  21.648  0.00  0.00    +0.000 A 
ATOM      6  C   UNL     1       0.231   9.658  21.804  0.00  0.00    +0.000 A 
ATOM      7  C   UNL     1      -0.430  10.342  22.927  0.00  0.00    +0.000 C 
ATOM      8  O   UNL     1       0.173  10.295  20.607  0.00  0.00    +0.000 OA
ATOM      9  N   UNL     1       0.837   9.551  19.663  0.00  0.00    +0.000 NA
ATOM     10  H   UNL     1       2.248   6.644  20.243  0.00  0.00    +0.000 HD
ENDROOT
BRANCH   1  15
ATOM     11  C   UNL     1       3.387   3.993  17.388  0.00  0.00    +0.000 A 
ATOM     12  C   UNL     1       4.598   4.212  16.722  0.00  0.00    +0.000 A 
ATOM     13  C   UNL     1       5.138   5.494  16.626  0.00  0.00    +0.000 A 
ATOM     14  C   UNL     1       4.464   6.566  17.200  0.00  0.00    +0.000 A 
ATOM     15  C   UNL     1       3.253   6.359  17.875  0.00  0.00    +0.000 A 
ATOM     16  C   UNL     1       2.709   5.069  17.967  0.00  0.00    +0.000 A 
BRANCH  11  18
ATOM     17  C   UNL     1       3.470   1.849  18.423  0.00  0.00    +0.000 C 
ATOM     18  O   UNL     1       2.976   2.687  17.387  0.00  0.00    +0.000 OA
ENDBRANCH  11  18
ENDBRANCH   1  15
TORSDOF 2
ENDMDL
MODEL 9
REMARK VINA RESULT:      -6.5      1.959      6.977
REMARK  Name = 
REMARK  4 active torsions:
REMARK  status: ('A' for Active; 'I' for Inactive)
REMARK    1  A    between atoms: C_1  and  O_2
REMARK    2  A    between atoms: O_2  and  C_3
REMARK    3  A    between atoms: C_7  and  C_8
REMARK    4  A    between atoms: C_13  and  C_14
REMARK                            x       y       z     vdW  Elec       q    Type
REMARK                         _______ _______ _______ _____ _____    ______ ____
ROOT
ATOM      1  C   UNL     1       5.283   4.727  16.091  0.00  0.00    +0.000 C 
ATOM      2  O   UNL     1       5.286   5.895  16.464  0.00  0.00    +0.000 OA
ATOM      3  N   UNL     1       4.833   3.631  16.803  0.00  0.00    +0.000 N 
ATOM      4  C   UNL     1       4.214   3.741  18.041  0.00  0.00    +0.000 A 
ATOM      5  C   UNL     1       3.927   2.652  18.900  0.00  0.00    +0.000 A 
ATOM      6  C   UNL     1       3.322   3.221  19.996  0.00  0.00    +0.000 A 
ATOM      7  C   UNL     1       2.777   2.720  21.268  0.00  0.00    +0.000 C 
ATOM      8  O   UNL     1       3.232   4.561  19.802  0.00  0.00    +0.000 OA
ATOM      9  N   UNL     1       3.788   4.883  18.587  0.00  0.00    +0.000 NA
ATOM     10  H   UNL     1       5.043   2.699  16.480  0.00  0.00    +0.000 HD
ENDROOT
BRANCH   1  15
ATOM     11  C   UNL     1       5.804   3.483  12.540  0.00  0.00    +0.000 A 
ATOM     12  C   UNL     1       7.023   4.103  12.245  0.00  0.00    +0.000 A 
ATOM     13  C   UNL     1       7.672   4.891  13.193  0.00  0.00    +0.000 A 
ATOM     14  C   UNL     1       7.099   5.063  14.449  0.00  0.00    +0.000 A 
ATOM     15  C   UNL     1       5.881   4.442  14.759  0.00  0.00    +0.000 A 
ATOM     16  C   UNL     1       5.227   3.652  13.802  0.00  0.00    +0.000 A 
BRANCH  11  18
ATOM     17  C   UNL     1       3.957   3.066  11.094  0.00  0.00    +0.000 C 
ATOM     18  O   UNL     1       5.281   2.755  11.506  0.00  0.00    +0.000 OA
ENDBRANCH  11  18
ENDBRANCH   1  15
TORSDOF 2
ENDMDL
