MODEL 1
REMARK VINA RESULT:      -8.3      0.000      0.000
REMARK  Name = 
REMARK  6 active torsions:
REMARK  status: ('A' for Active; 'I' for Inactive)
REMARK    1  A    between atoms: C_2  and  C_3
REMARK    2  A    between atoms: C_6  and  C_7
REMARK    3  A    between atoms: C_7  and  C_8
REMARK    4  A    between atoms: C_8  and  N_9
REMARK    5  A    between atoms: N_17  and  C_18
REMARK    6  A    between atoms: C_18  and  C_19
REMARK                            x       y       z     vdW  Elec       q    Type
REMARK                         _______ _______ _______ _____ _____    ______ ____
ROOT
ATOM      1  C   UNL     1       4.142   7.004  16.282  0.00  0.00    +0.000 C 
ATOM      2  C   UNL     1       3.934   6.991  17.620  0.00  0.00    +0.000 C 
ATOM      3  C   UNL     1       5.022   6.170  18.243  0.00  0.00    +0.000 C 
ATOM      4  C   UNL     1       4.976   5.229  19.440  0.00  0.00    +0.000 C 
ATOM      5  N   UNL     1       5.682   3.976  19.021  0.00  0.00    +0.000 NA
ATOM      6  C   UNL     1       6.274   4.284  17.675  0.00  0.00    +0.000 C 
ATOM      7  C   UNL     1       5.223   5.192  17.099  0.00  0.00    +0.000 C 
ATOM      8  C   UNL     1       5.296   6.093  15.890  0.00  0.00    +0.000 C 
ENDROOT
BRANCH   2   9
ATOM      9  C   UNL     1       2.915   7.715  18.384  0.00  0.00    +0.000 A 
ATOM     10  C   UNL     1       2.481   7.262  19.638  0.00  0.00    +0.000 A 
ATOM     11  C   UNL     1       1.480   7.943  20.344  0.00  0.00    +0.000 A 
ATOM     12  C   UNL     1       0.902   9.104  19.821  0.00  0.00    +0.000 A 
ATOM     13  C   UNL     1       1.356   9.576  18.585  0.00  0.00    +0.000 A 
ATOM     14  C   UNL     1       2.351   8.891  17.880  0.00  0.00    +0.000 A 
BRANCH  12  15
ATOM     15  C   UNL     1      -0.249   9.795  20.516  0.00  0.00    +0.000 C 
BRANCH  15  16
ATOM     16  C   UNL     1      -0.319   9.552  22.032  0.00  0.00    +0.000 C 
BRANCH  16  17
ATOM     17  N   UNL     1      -0.231  10.841  22.733  0.00  0.00    +0.000 NA
ATOM     18  C   UNL     1      -0.278  11.981  21.778  0.00  0.00    +0.000 C 
ATOM     19  C   UNL     1      -1.156  12.707  22.819  0.00  0.00    +0.000 C 
ATOM     20  C   UNL     1      -1.566  11.279  23.234  0.00  0.00    +0.000 C 
ENDBRANCH  16  17
ENDBRANCH  15  16
ENDBRANCH  12  15
ENDBRANCH   2   9
BRANCH   5  21
ATOM     21  C   UNL     1       4.742   2.831  18.913  0.00  0.00    +0.000 C 
BRANCH  21  22
ATOM     22  C   UNL     1       3.333   3.097  19.406  0.00  0.00    +0.000 A 
ATOM     23  C   UNL     1       3.014   2.901  20.761  0.00  0.00    +0.000 A 
ATOM     24  C   UNL     1       1.734   3.174  21.240  0.00  0.00    +0.000 A 
ATOM     25  C   UNL     1       0.757   3.648  20.369  0.00  0.00    +0.000 A 
ATOM     26  C   UNL     1       1.058   3.837  19.021  0.00  0.00    +0.000 A 
ATOM     27  C   UNL     1       2.338   3.562  18.542  0.00  0.00    +0.000 A 
ENDBRANCH  21  22
ENDBRANCH   5  21
TORSDOF 6
ENDMDL
MODEL 2
REMARK VINA RESULT:      -8.0      1.665      2.561
REMARK  Name = 
REMARK  6 active torsions:
REMARK  status: ('A' for Active; 'I' for Inactive)
REMARK    1  A    between atoms: C_2  and  C_3
REMARK    2  A    between atoms: C_6  and  C_7
REMARK    3  A    between atoms: C_7  and  C_8
REMARK    4  A    between atoms: C_8  and  N_9
REMARK    5  A    between atoms: N_17  and  C_18
REMARK    6  A    between atoms: C_18  and  C_19
REMARK                            x       y       z     vdW  Elec       q    Type
REMARK                         _______ _______ _______ _____ _____    ______ ____
ROOT
ATOM      1  C   UNL     1       4.459   6.852  16.138  0.00  0.00    +0.000 C 
ATOM      2  C   UNL     1       4.135   6.927  17.451  0.00  0.00    +0.000 C 
ATOM      3  C   UNL     1       5.156   6.142  18.218  0.00  0.00    +0.000 C 
ATOM      4  C   UNL     1       4.996   5.281  19.465  0.00  0.00    +0.000 C 
ATOM      5  N   UNL     1       5.722   4.000  19.190  0.00  0.00    +0.000 NA
ATOM      6  C   UNL     1       6.431   4.217  17.884  0.00  0.00    +0.000 C 
ATOM      7  C   UNL     1       5.445   5.091  17.161  0.00  0.00    +0.000 C 
ATOM      8  C   UNL     1       5.633   5.911  15.907  0.00  0.00    +0.000 C 
ENDROOT
BRANCH   2   9
ATOM      9  C   UNL     1       3.062   7.704  18.075  0.00  0.00    +0.000 A 
ATOM     10  C   UNL     1       2.549   8.861  17.472  0.00  0.00    +0.000 A 
ATOM     11  C   UNL     1       1.547   9.617  18.096  0.00  0.00    +0.000 A 
ATOM     12  C   UNL     1       1.021   9.223  19.330  0.00  0.00    +0.000 A 
ATOM     13  C   UNL     1       1.508   8.051  19.919  0.00  0.00    +0.000 A 
ATOM     14  C   UNL     1       2.512   7.302  19.297  0.00  0.00    +0.000 A 
BRANCH  12  15
ATOM     15  C   UNL     1       0.015  10.077  20.069  0.00  0.00    +0.000 C 
BRANCH  15  16
ATOM     16  C   UNL     1      -0.752  11.070  19.182  0.00  0.00    +0.000 C 
BRANCH  16  17
ATOM     17  N   UNL     1      -1.985  10.434  18.699  0.00  0.00    +0.000 NA
ATOM     18  C   UNL     1      -3.022  11.447  18.364  0.00  0.00    +0.000 C 
ATOM     19  C   UNL     1      -3.377  10.560  17.151  0.00  0.00    +0.000 C 
ATOM     20  C   UNL     1      -1.901  10.121  17.242  0.00  0.00    +0.000 C 
ENDBRANCH  16  17
ENDBRANCH  15  16
ENDBRANCH  12  15
ENDBRANCH   2   9
BRANCH   5  21
ATOM     21  C   UNL     1       4.783   2.856  19.075  0.00  0.00    +0.000 C 
BRANCH  21  22
ATOM     22  C   UNL     1       3.355   3.140  19.499  0.00  0.00    +0.000 A 
ATOM     23  C   UNL     1       2.412   3.571  18.549  0.00  0.00    +0.000 A 
ATOM     24  C   UNL     1       1.087   3.803  18.912  0.00  0.00    +0.000 A 
ATOM     25  C   UNL     1       0.688   3.605  20.231  0.00  0.00    +0.000 A 
ATOM     26  C   UNL     1       1.615   3.188  21.185  0.00  0.00    +0.000 A 
ATOM     27  C   UNL     1       2.941   2.958  20.821  0.00  0.00    +0.000 A 
ENDBRANCH  21  22
ENDBRANCH   5  21
TORSDOF 6
ENDMDL
MODEL 3
REMARK VINA RESULT:      -8.0      1.983      4.226
REMARK  Name = 
REMARK  6 active torsions:
REMARK  status: ('A' for Active; 'I' for Inactive)
REMARK    1  A    between atoms: C_2  and  C_3
REMARK    2  A    between atoms: C_6  and  C_7
REMARK    3  A    between atoms: C_7  and  C_8
REMARK    4  A    between atoms: C_8  and  N_9
REMARK    5  A    between atoms: N_17  and  C_18
REMARK    6  A    between atoms: C_18  and  C_19
REMARK                            x       y       z     vdW  Elec       q    Type
REMARK                         _______ _______ _______ _____ _____    ______ ____
ROOT
ATOM      1  C   UNL     1       2.285   4.499  21.428  0.00  0.00    +0.000 C 
ATOM      2  C   UNL     1       2.033   5.067  20.225  0.00  0.00    +0.000 C 
ATOM      3  C   UNL     1       1.813   3.962  19.236  0.00  0.00    +0.000 C 
ATOM      4  C   UNL     1       2.197   3.873  17.764  0.00  0.00    +0.000 C 
ATOM      5  N   UNL     1       2.830   2.528  17.573  0.00  0.00    +0.000 NA
ATOM      6  C   UNL     1       2.633   1.807  18.876  0.00  0.00    +0.000 C 
ATOM      7  C   UNL     1       2.752   2.941  19.855  0.00  0.00    +0.000 C 
ATOM      8  C   UNL     1       2.385   2.984  21.319  0.00  0.00    +0.000 C 
ENDROOT
BRANCH   2   9
ATOM      9  C   UNL     1       1.884   6.489  19.909  0.00  0.00    +0.000 A 
ATOM     10  C   UNL     1       1.328   7.389  20.829  0.00  0.00    +0.000 A 
ATOM     11  C   UNL     1       1.157   8.741  20.502  0.00  0.00    +0.000 A 
ATOM     12  C   UNL     1       1.555   9.229  19.253  0.00  0.00    +0.000 A 
ATOM     13  C   UNL     1       2.139   8.340  18.345  0.00  0.00    +0.000 A 
ATOM     14  C   UNL     1       2.303   6.990  18.672  0.00  0.00    +0.000 A 
BRANCH  12  15
ATOM     15  C   UNL     1       1.286  10.659  18.842  0.00  0.00    +0.000 C 
BRANCH  15  16
ATOM     16  C   UNL     1      -0.065  11.217  19.317  0.00  0.00    +0.000 C 
BRANCH  16  17
ATOM     17  N   UNL     1      -0.929  11.451  18.152  0.00  0.00    +0.000 NA
ATOM     18  C   UNL     1      -1.559  10.188  17.682  0.00  0.00    +0.000 C 
ATOM     19  C   UNL     1      -2.838  11.017  17.434  0.00  0.00    +0.000 C 
ATOM     20  C   UNL     1      -2.287  11.909  18.566  0.00  0.00    +0.000 C 
ENDBRANCH  16  17
ENDBRANCH  15  16
ENDBRANCH  12  15
ENDBRANCH   2   9
BRANCH   5  21
ATOM     21  C   UNL     1       4.279   2.646  17.270  0.00  0.00    +0.000 C 
BRANCH  21  22
ATOM     22  C   UNL     1       4.822   4.061  17.228  0.00  0.00    +0.000 A 
ATOM     23  C   UNL     1       4.697   4.827  16.056  0.00  0.00    +0.000 A 
ATOM     24  C   UNL     1       5.158   6.142  16.009  0.00  0.00    +0.000 A 
ATOM     25  C   UNL     1       5.749   6.707  17.136  0.00  0.00    +0.000 A 
ATOM     26  C   UNL     1       5.888   5.954  18.301  0.00  0.00    +0.000 A 
ATOM     27  C   UNL     1       5.429   4.639  18.347  0.00  0.00    +0.000 A 
ENDBRANCH  21  22
ENDBRANCH   5  21
TORSDOF 6
ENDMDL
MODEL 4
REMARK VINA RESULT:      -8.0      0.470      1.037
REMARK  Name = 
REMARK  6 active torsions:
REMARK  status: ('A' for Active; 'I' for Inactive)
REMARK    1  A    between atoms: C_2  and  C_3
REMARK    2  A    between atoms: C_6  and  C_7
REMARK    3  A    between atoms: C_7  and  C_8
REMARK    4  A    between atoms: C_8  and  N_9
REMARK    5  A    between atoms: N_17  and  C_18
REMARK    6  A    between atoms: C_18  and  C_19
REMARK                            x       y       z     vdW  Elec       q    Type
REMARK                         _______ _______ _______ _____ _____    ______ ____
ROOT
ATOM      1  C   UNL     1       4.137   6.991  16.271  0.00  0.00    +0.000 C 
ATOM      2  C   UNL     1       3.910   6.981  17.606  0.00  0.00    +0.000 C 
ATOM      3  C   UNL     1       5.004   6.184  18.249  0.00  0.00    +0.000 C 
ATOM      4  C   UNL     1       4.958   5.248  19.451  0.00  0.00    +0.000 C 
ATOM      5  N   UNL     1       5.694   4.007  19.048  0.00  0.00    +0.000 NA
ATOM      6  C   UNL     1       6.300   4.320  17.710  0.00  0.00    +0.000 C 
ATOM      7  C   UNL     1       5.241   5.205  17.113  0.00  0.00    +0.000 C 
ATOM      8  C   UNL     1       5.315   6.101  15.901  0.00  0.00    +0.000 C 
ENDROOT
BRANCH   2   9
ATOM      9  C   UNL     1       2.867   7.689  18.351  0.00  0.00    +0.000 A 
ATOM     10  C   UNL     1       2.284   8.865  17.859  0.00  0.00    +0.000 A 
ATOM     11  C   UNL     1       1.312   9.553  18.597  0.00  0.00    +0.000 A 
ATOM     12  C   UNL     1       0.886   9.072  19.839  0.00  0.00    +0.000 A 
ATOM     13  C   UNL     1       1.442   7.881  20.319  0.00  0.00    +0.000 A 
ATOM     14  C   UNL     1       2.416   7.199  19.582  0.00  0.00    +0.000 A 
BRANCH  12  15
ATOM     15  C   UNL     1      -0.084   9.851  20.698  0.00  0.00    +0.000 C 
BRANCH  15  16
ATOM     16  C   UNL     1       0.559  10.574  21.892  0.00  0.00    +0.000 C 
BRANCH  16  17
ATOM     17  N   UNL     1      -0.304  11.688  22.306  0.00  0.00    +0.000 NA
ATOM     18  C   UNL     1      -1.274  12.047  21.237  0.00  0.00    +0.000 C 
ATOM     19  C   UNL     1      -2.311  12.251  22.362  0.00  0.00    +0.000 C 
ATOM     20  C   UNL     1      -1.462  11.207  23.116  0.00  0.00    +0.000 C 
ENDBRANCH  16  17
ENDBRANCH  15  16
ENDBRANCH  12  15
ENDBRANCH   2   9
BRANCH   5  21
ATOM     21  C   UNL     1       4.778   2.844  18.933  0.00  0.00    +0.000 C 
BRANCH  21  22
ATOM     22  C   UNL     1       3.352   3.091  19.384  0.00  0.00    +0.000 A 
ATOM     23  C   UNL     1       3.006   2.936  20.738  0.00  0.00    +0.000 A 
ATOM     24  C   UNL     1       1.709   3.193  21.179  0.00  0.00    +0.000 A 
ATOM     25  C   UNL     1       0.742   3.611  20.270  0.00  0.00    +0.000 A 
ATOM     26  C   UNL     1       1.069   3.759  18.923  0.00  0.00    +0.000 A 
ATOM     27  C   UNL     1       2.365   3.500  18.482  0.00  0.00    +0.000 A 
ENDBRANCH  21  22
ENDBRANCH   5  21
TORSDOF 6
ENDMDL
MODEL 5
REMARK VINA RESULT:      -8.0      0.566      1.486
REMARK  Name = 
REMARK  6 active torsions:
REMARK  status: ('A' for Active; 'I' for Inactive)
REMARK    1  A    between atoms: C_2  and  C_3
REMARK    2  A    between atoms: C_6  and  C_7
REMARK    3  A    between atoms: C_7  and  C_8
REMARK    4  A    between atoms: C_8  and  N_9
REMARK    5  A    between atoms: N_17  and  C_18
REMARK    6  A    between atoms: C_18  and  C_19
REMARK                            x       y       z     vdW  Elec       q    Type
REMARK                         _______ _______ _______ _____ _____    ______ ____
ROOT
ATOM      1  C   UNL     1       4.129   6.950  16.305  0.00  0.00    +0.000 C 
ATOM      2  C   UNL     1       3.912   6.948  17.641  0.00  0.00    +0.000 C 
ATOM      3  C   UNL     1       5.012   6.157  18.281  0.00  0.00    +0.000 C 
ATOM      4  C   UNL     1       4.978   5.229  19.489  0.00  0.00    +0.000 C 
ATOM      5  N   UNL     1       5.713   3.987  19.089  0.00  0.00    +0.000 NA
ATOM      6  C   UNL     1       6.307   4.292  17.744  0.00  0.00    +0.000 C 
ATOM      7  C   UNL     1       5.243   5.171  17.150  0.00  0.00    +0.000 C 
ATOM      8  C   UNL     1       5.305   6.059  15.931  0.00  0.00    +0.000 C 
ENDROOT
BRANCH   2   9
ATOM      9  C   UNL     1       2.873   7.659  18.390  0.00  0.00    +0.000 A 
ATOM     10  C   UNL     1       2.312   8.851  17.913  0.00  0.00    +0.000 A 
ATOM     11  C   UNL     1       1.344   9.542  18.655  0.00  0.00    +0.000 A 
ATOM     12  C   UNL     1       0.901   9.045  19.885  0.00  0.00    +0.000 A 
ATOM     13  C   UNL     1       1.434   7.838  20.349  0.00  0.00    +0.000 A 
ATOM     14  C   UNL     1       2.404   7.155  19.609  0.00  0.00    +0.000 A 
BRANCH  12  15
ATOM     15  C   UNL     1      -0.065   9.825  20.749  0.00  0.00    +0.000 C 
BRANCH  15  16
ATOM     16  C   UNL     1      -0.045  11.344  20.519  0.00  0.00    +0.000 C 
BRANCH  16  17
ATOM     17  N   UNL     1      -0.497  12.024  21.740  0.00  0.00    +0.000 NA
ATOM     18  C   UNL     1      -1.922  12.438  21.634  0.00  0.00    +0.000 C 
ATOM     19  C   UNL     1      -2.066  12.021  23.113  0.00  0.00    +0.000 C 
ATOM     20  C   UNL     1      -0.917  11.046  22.784  0.00  0.00    +0.000 C 
ENDBRANCH  16  17
ENDBRANCH  15  16
ENDBRANCH  12  15
ENDBRANCH   2   9
BRANCH   5  21
ATOM     21  C   UNL     1       4.798   2.821  18.989  0.00  0.00    +0.000 C 
BRANCH  21  22
ATOM     22  C   UNL     1       3.376   3.067  19.454  0.00  0.00    +0.000 A 
ATOM     23  C   UNL     1       2.399   3.488  18.535  0.00  0.00    +0.000 A 
ATOM     24  C   UNL     1       1.079   3.684  18.936  0.00  0.00    +0.000 A 
ATOM     25  C   UNL     1       0.720   3.461  20.263  0.00  0.00    +0.000 A 
ATOM     26  C   UNL     1       1.682   3.055  21.186  0.00  0.00    +0.000 A 
ATOM     27  C   UNL     1       3.002   2.859  20.785  0.00  0.00    +0.000 A 
ENDBRANCH  21  22
ENDBRANCH   5  21
TORSDOF 6
ENDMDL
MODEL 6
REMARK VINA RESULT:      -7.9      1.733      3.869
REMARK  Name = 
REMARK  6 active torsions:
REMARK  status: ('A' for Active; 'I' for Inactive)
REMARK    1  A    between atoms: C_2  and  C_3
REMARK    2  A    between atoms: C_6  and  C_7
REMARK    3  A    between atoms: C_7  and  C_8
REMARK    4  A    between atoms: C_8  and  N_9
REMARK    5  A    between atoms: N_17  and  C_18
REMARK    6  A    between atoms: C_18  and  C_19
REMARK                            x       y       z     vdW  Elec       q    Type
REMARK                         _______ _______ _______ _____ _____    ______ ____
ROOT
ATOM      1  C   UNL     1       2.235   4.637  21.430  0.00  0.00    +0.000 C 
ATOM      2  C   UNL     1       1.968   5.166  20.213  0.00  0.00    +0.000 C 
ATOM      3  C   UNL     1       1.673   4.033  19.277  0.00  0.00    +0.000 C 
ATOM      4  C   UNL     1       2.007   3.869  17.799  0.00  0.00    +0.000 C 
ATOM      5  N   UNL     1       2.579   2.493  17.645  0.00  0.00    +0.000 NA
ATOM      6  C   UNL     1       2.395   1.834  18.981  0.00  0.00    +0.000 C 
ATOM      7  C   UNL     1       2.590   3.000  19.909  0.00  0.00    +0.000 C 
ATOM      8  C   UNL     1       2.271   3.116  21.380  0.00  0.00    +0.000 C 
ENDROOT
BRANCH   2   9
ATOM      9  C   UNL     1       1.865   6.580  19.843  0.00  0.00    +0.000 A 
ATOM     10  C   UNL     1       1.298   7.524  20.710  0.00  0.00    +0.000 A 
ATOM     11  C   UNL     1       1.173   8.868  20.332  0.00  0.00    +0.000 A 
ATOM     12  C   UNL     1       1.628   9.302  19.083  0.00  0.00    +0.000 A 
ATOM     13  C   UNL     1       2.224   8.369  18.228  0.00  0.00    +0.000 A 
ATOM     14  C   UNL     1       2.343   7.028  18.606  0.00  0.00    +0.000 A 
BRANCH  12  15
ATOM     15  C   UNL     1       1.410  10.723  18.613  0.00  0.00    +0.000 C 
BRANCH  15  16
ATOM     16  C   UNL     1       1.082  11.722  19.733  0.00  0.00    +0.000 C 
BRANCH  16  17
ATOM     17  N   UNL     1      -0.185  12.399  19.423  0.00  0.00    +0.000 NA
ATOM     18  C   UNL     1      -0.987  11.623  18.438  0.00  0.00    +0.000 C 
ATOM     19  C   UNL     1      -2.230  12.021  19.263  0.00  0.00    +0.000 C 
ATOM     20  C   UNL     1      -1.232  12.085  20.438  0.00  0.00    +0.000 C 
ENDBRANCH  16  17
ENDBRANCH  15  16
ENDBRANCH  12  15
ENDBRANCH   2   9
BRANCH   5  21
ATOM     21  C   UNL     1       4.021   2.540  17.294  0.00  0.00    +0.000 C 
BRANCH  21  22
ATOM     22  C   UNL     1       4.662   3.913  17.352  0.00  0.00    +0.000 A 
ATOM     23  C   UNL     1       5.330   4.328  18.517  0.00  0.00    +0.000 A 
ATOM     24  C   UNL     1       5.956   5.572  18.577  0.00  0.00    +0.000 A 
ATOM     25  C   UNL     1       5.922   6.416  17.470  0.00  0.00    +0.000 A 
ATOM     26  C   UNL     1       5.254   6.020  16.313  0.00  0.00    +0.000 A 
ATOM     27  C   UNL     1       4.627   4.777  16.254  0.00  0.00    +0.000 A 
ENDBRANCH  21  22
ENDBRANCH   5  21
TORSDOF 6
ENDMDL
MODEL 7
REMARK VINA RESULT:      -7.9      2.081      4.277
REMARK  Name = 
REMARK  6 active torsions:
REMARK  status: ('A' for Active; 'I' for Inactive)
REMARK    1  A    between atoms: C_2  and  C_3
REMARK    2  A    between atoms: C_6  and  C_7
REMARK    3  A    between atoms: C_7  and  C_8
REMARK    4  A    between atoms: C_8  and  N_9
REMARK    5  A    between atoms: N_17  and  C_18
REMARK    6  A    between atoms: C_18  and  C_19
REMARK                            x       y       z     vdW  Elec       q    Type
REMARK                         _______ _______ _______ _____ _____    ______ ____
ROOT
ATOM      1  C   UNL     1       2.202   4.620  21.427  0.00  0.00    +0.000 C 
ATOM      2  C   UNL     1       1.963   5.147  20.203  0.00  0.00    +0.000 C 
ATOM      3  C   UNL     1       1.676   4.012  19.267  0.00  0.00    +0.000 C 
ATOM      4  C   UNL     1       2.036   3.840  17.796  0.00  0.00    +0.000 C 
ATOM      5  N   UNL     1       2.599   2.458  17.658  0.00  0.00    +0.000 NA
ATOM      6  C   UNL     1       2.383   1.806  18.993  0.00  0.00    +0.000 C 
ATOM      7  C   UNL     1       2.571   2.974  19.920  0.00  0.00    +0.000 C 
ATOM      8  C   UNL     1       2.226   3.099  21.384  0.00  0.00    +0.000 C 
ENDROOT
BRANCH   2   9
ATOM      9  C   UNL     1       1.879   6.560  19.826  0.00  0.00    +0.000 A 
ATOM     10  C   UNL     1       1.303   7.512  20.677  0.00  0.00    +0.000 A 
ATOM     11  C   UNL     1       1.196   8.855  20.291  0.00  0.00    +0.000 A 
ATOM     12  C   UNL     1       1.681   9.281  19.050  0.00  0.00    +0.000 A 
ATOM     13  C   UNL     1       2.287   8.339  18.212  0.00  0.00    +0.000 A 
ATOM     14  C   UNL     1       2.386   6.999  18.598  0.00  0.00    +0.000 A 
BRANCH  12  15
ATOM     15  C   UNL     1       1.484  10.702  18.571  0.00  0.00    +0.000 C 
BRANCH  15  16
ATOM     16  C   UNL     1       1.088  11.698  19.672  0.00  0.00    +0.000 C 
BRANCH  16  17
ATOM     17  N   UNL     1       1.526  13.046  19.286  0.00  0.00    +0.000 NA
ATOM     18  C   UNL     1       2.543  13.576  20.233  0.00  0.00    +0.000 C 
ATOM     19  C   UNL     1       3.261  14.168  19.001  0.00  0.00    +0.000 C 
ATOM     20  C   UNL     1       2.600  12.993  18.252  0.00  0.00    +0.000 C 
ENDBRANCH  16  17
ENDBRANCH  15  16
ENDBRANCH  12  15
ENDBRANCH   2   9
BRANCH   5  21
ATOM     21  C   UNL     1       4.047   2.491  17.334  0.00  0.00    +0.000 C 
BRANCH  21  22
ATOM     22  C   UNL     1       4.691   3.863  17.364  0.00  0.00    +0.000 A 
ATOM     23  C   UNL     1       4.649   4.684  16.223  0.00  0.00    +0.000 A 
ATOM     24  C   UNL     1       5.203   5.962  16.241  0.00  0.00    +0.000 A 
ATOM     25  C   UNL     1       5.805   6.437  17.403  0.00  0.00    +0.000 A 
ATOM     26  C   UNL     1       5.863   5.629  18.538  0.00  0.00    +0.000 A 
ATOM     27  C   UNL     1       5.310   4.350  18.518  0.00  0.00    +0.000 A 
ENDBRANCH  21  22
ENDBRANCH   5  21
TORSDOF 6
ENDMDL
MODEL 8
REMARK VINA RESULT:      -7.9      1.401      2.012
REMARK  Name = 
REMARK  6 active torsions:
REMARK  status: ('A' for Active; 'I' for Inactive)
REMARK    1  A    between atoms: C_2  and  C_3
REMARK    2  A    between atoms: C_6  and  C_7
REMARK    3  A    between atoms: C_7  and  C_8
REMARK    4  A    between atoms: C_8  and  N_9
REMARK    5  A    between atoms: N_17  and  C_18
REMARK    6  A    between atoms: C_18  and  C_19
REMARK                            x       y       z     vdW  Elec       q    Type
REMARK                         _______ _______ _______ _____ _____    ______ ____
ROOT
ATOM      1  C   UNL     1       4.223   6.918  16.253  0.00  0.00    +0.000 C 
ATOM      2  C   UNL     1       3.985   6.939  17.585  0.00  0.00    +0.000 C 
ATOM      3  C   UNL     1       5.058   6.134  18.253  0.00  0.00    +0.000 C 
ATOM      4  C   UNL     1       4.986   5.224  19.473  0.00  0.00    +0.000 C 
ATOM      5  N   UNL     1       5.700   3.961  19.101  0.00  0.00    +0.000 NA
ATOM      6  C   UNL     1       6.322   4.235  17.762  0.00  0.00    +0.000 C 
ATOM      7  C   UNL     1       5.285   5.128  17.139  0.00  0.00    +0.000 C 
ATOM      8  C   UNL     1       5.386   5.998  15.910  0.00  0.00    +0.000 C 
ENDROOT
BRANCH   2   9
ATOM      9  C   UNL     1       2.950   7.681  18.308  0.00  0.00    +0.000 A 
ATOM     10  C   UNL     1       2.490   7.264  19.565  0.00  0.00    +0.000 A 
ATOM     11  C   UNL     1       1.474   7.962  20.231  0.00  0.00    +0.000 A 
ATOM     12  C   UNL     1       0.905   9.106  19.663  0.00  0.00    +0.000 A 
ATOM     13  C   UNL     1       1.384   9.545  18.424  0.00  0.00    +0.000 A 
ATOM     14  C   UNL     1       2.394   8.842  17.759  0.00  0.00    +0.000 A 
BRANCH  12  15
ATOM     15  C   UNL     1      -0.261   9.814  20.315  0.00  0.00    +0.000 C 
BRANCH  15  16
ATOM     16  C   UNL     1      -0.240  11.344  20.172  0.00  0.00    +0.000 C 
BRANCH  16  17
ATOM     17  N   UNL     1      -1.432  11.778  19.431  0.00  0.00    +0.000 NA
ATOM     18  C   UNL     1      -1.065  12.380  18.121  0.00  0.00    +0.000 C 
ATOM     19  C   UNL     1      -2.298  11.657  17.538  0.00  0.00    +0.000 C 
ATOM     20  C   UNL     1      -2.044  10.647  18.675  0.00  0.00    +0.000 C 
ENDBRANCH  16  17
ENDBRANCH  15  16
ENDBRANCH  12  15
ENDBRANCH   2   9
BRANCH   5  21
ATOM     21  C   UNL     1       4.763   2.814  19.002  0.00  0.00    +0.000 C 
BRANCH  21  22
ATOM     22  C   UNL     1       3.348   3.085  19.476  0.00  0.00    +0.000 A 
ATOM     23  C   UNL     1       2.372   3.517  18.561  0.00  0.00    +0.000 A 
ATOM     24  C   UNL     1       1.058   3.737  18.970  0.00  0.00    +0.000 A 
ATOM     25  C   UNL     1       0.704   3.527  20.300  0.00  0.00    +0.000 A 
ATOM     26  C   UNL     1       1.666   3.109  21.219  0.00  0.00    +0.000 A 
ATOM     27  C   UNL     1       2.980   2.891  20.810  0.00  0.00    +0.000 A 
ENDBRANCH  21  22
ENDBRANCH   5  21
TORSDOF 6
ENDMDL
MODEL 9
REMARK VINA RESULT:      -7.9      1.106      1.646
REMARK  Name = 
REMARK  6 active torsions:
REMARK  status: ('A' for Active; 'I' for Inactive)
REMARK    1  A    between atoms: C_2  and  C_3
REMARK    2  A    between atoms: C_6  and  C_7
REMARK    3  A    between atoms: C_7  and  C_8
REMARK    4  A    between atoms: C_8  and  N_9
REMARK    5  A    between atoms: N_17  and  C_18
REMARK    6  A    between atoms: C_18  and  C_19
REMARK                            x       y       z     vdW  Elec       q    Type
REMARK                         _______ _______ _______ _____ _____    ______ ____
ROOT
ATOM      1  C   UNL     1       4.250   6.901  16.220  0.00  0.00    +0.000 C 
ATOM      2  C   UNL     1       3.986   6.933  17.548  0.00  0.00    +0.000 C 
ATOM      3  C   UNL     1       5.055   6.148  18.245  0.00  0.00    +0.000 C 
ATOM      4  C   UNL     1       4.969   5.250  19.473  0.00  0.00    +0.000 C 
ATOM      5  N   UNL     1       5.705   3.991  19.129  0.00  0.00    +0.000 NA
ATOM      6  C   UNL     1       6.350   4.259  17.799  0.00  0.00    +0.000 C 
ATOM      7  C   UNL     1       5.315   5.133  17.146  0.00  0.00    +0.000 C 
ATOM      8  C   UNL     1       5.430   5.991  15.910  0.00  0.00    +0.000 C 
ENDROOT
BRANCH   2   9
ATOM      9  C   UNL     1       2.928   7.671  18.242  0.00  0.00    +0.000 A 
ATOM     10  C   UNL     1       2.316   8.792  17.664  0.00  0.00    +0.000 A 
ATOM     11  C   UNL     1       1.330   9.512  18.352  0.00  0.00    +0.000 A 
ATOM     12  C   UNL     1       0.920   9.117  19.629  0.00  0.00    +0.000 A 
ATOM     13  C   UNL     1       1.505   7.979  20.196  0.00  0.00    +0.000 A 
ATOM     14  C   UNL     1       2.492   7.266  19.509  0.00  0.00    +0.000 A 
BRANCH  12  15
ATOM     15  C   UNL     1      -0.066   9.936  20.431  0.00  0.00    +0.000 C 
BRANCH  15  16
ATOM     16  C   UNL     1       0.535  11.183  21.098  0.00  0.00    +0.000 C 
BRANCH  16  17
ATOM     17  N   UNL     1      -0.137  12.382  20.578  0.00  0.00    +0.000 NA
ATOM     18  C   UNL     1       0.656  13.019  19.492  0.00  0.00    +0.000 C 
ATOM     19  C   UNL     1      -0.688  13.281  18.779  0.00  0.00    +0.000 C 
ATOM     20  C   UNL     1      -1.158  12.029  19.548  0.00  0.00    +0.000 C 
ENDBRANCH  16  17
ENDBRANCH  15  16
ENDBRANCH  12  15
ENDBRANCH   2   9
BRANCH   5  21
ATOM     21  C   UNL     1       4.783   2.833  19.024  0.00  0.00    +0.000 C 
BRANCH  21  22
ATOM     22  C   UNL     1       3.347   3.104  19.428  0.00  0.00    +0.000 A 
ATOM     23  C   UNL     1       2.953   2.950  20.769  0.00  0.00    +0.000 A 
ATOM     24  C   UNL     1       1.647   3.229  21.167  0.00  0.00    +0.000 A 
ATOM     25  C   UNL     1       0.718   3.668  20.227  0.00  0.00    +0.000 A 
ATOM     26  C   UNL     1       1.093   3.814  18.893  0.00  0.00    +0.000 A 
ATOM     27  C   UNL     1       2.399   3.533  18.495  0.00  0.00    +0.000 A 
ENDBRANCH  21  22
ENDBRANCH   5  21
TORSDOF 6
ENDMDL
