MODEL 1
REMARK VINA RESULT:      -5.6      0.000      0.000
REMARK  Name = 
REMARK  14 active torsions:
REMARK  status: ('A' for Active; 'I' for Inactive)
REMARK    1  A    between atoms: C_1  and  C_2
REMARK    2  A    between atoms: C_2  and  C_3
REMARK    3  A    between atoms: C_3  and  C_4
REMARK    4  A    between atoms: C_4  and  C_5
REMARK    5  A    between atoms: C_5  and  C_6
REMARK    6  A    between atoms: C_8  and  O_9
REMARK    7  A    between atoms: O_9  and  C_10
REMARK    8  A    between atoms: C_10  and  C_11
REMARK    9  A    between atoms: C_17  and  C_18
REMARK   10  A    between atoms: C_17  and  C_19
REMARK   11  A    between atoms: C_23  and  C_24
REMARK   12  A    between atoms: C_24  and  O_25
REMARK   13  A    between atoms: O_25  and  C_26
REMARK   14  A    between atoms: C_26  and  C_27
REMARK                            x       y       z     vdW  Elec       q    Type
REMARK                         _______ _______ _______ _____ _____    ______ ____
ROOT
ATOM      1  C   UNL     1      -1.229  11.876  20.053  0.00  0.00    +0.000 A 
ATOM      2  C   UNL     1      -2.385  11.801  19.272  0.00  0.00    +0.000 A 
ATOM      3  C   UNL     1      -3.560  12.421  19.688  0.00  0.00    +0.000 A 
ATOM      4  C   UNL     1      -3.670  13.035  20.958  0.00  0.00    +0.000 A 
ATOM      5  C   UNL     1      -2.509  13.080  21.735  0.00  0.00    +0.000 A 
ATOM      6  C   UNL     1      -1.303  12.523  21.287  0.00  0.00    +0.000 A 
ATOM      7  O   UNL     1      -2.420  13.740  22.924  0.00  0.00    +0.000 OA
ATOM      8  C   UNL     1      -3.620  13.817  23.703  0.00  0.00    +0.000 C 
ATOM      9  C   UNL     1      -3.277  14.855  24.794  0.00  0.00    +0.000 C 
ATOM     10  C   UNL     1      -3.838  12.464  24.403  0.00  0.00    +0.000 C 
ATOM     11  C   UNL     1      -4.833  14.323  22.871  0.00  0.00    +0.000 C 
ATOM     12  C   UNL     1      -6.157  14.201  23.665  0.00  0.00    +0.000 C 
ATOM     13  C   UNL     1      -7.376  14.554  22.831  0.00  0.00    +0.000 C 
ATOM     14  C   UNL     1      -7.490  13.688  21.569  0.00  0.00    +0.000 C 
ATOM     15  C   UNL     1      -6.212  12.886  21.279  0.00  0.00    +0.000 C 
ATOM     16  C   UNL     1      -4.929  13.731  21.430  0.00  0.00    +0.000 C 
ENDROOT
BRANCH   1  17
ATOM     17  C   UNL     1       0.078  11.335  19.525  0.00  0.00    +0.000 C 
BRANCH  17  18
ATOM     18  C   UNL     1       0.130   9.808  19.661  0.00  0.00    +0.000 C 
BRANCH  18  19
ATOM     19  C   UNL     1       0.793   9.362  20.960  0.00  0.00    +0.000 C 
BRANCH  19  21
ATOM     20  C   UNL     1      -0.241   9.575  23.248  0.00  0.00    +0.000 C 
ATOM     21  C   UNL     1      -0.253   8.818  21.932  0.00  0.00    +0.000 C 
ENDBRANCH  19  21
ENDBRANCH  18  19
ENDBRANCH  17  18
ENDBRANCH   1  17
BRANCH   3  22
ATOM     22  O   UNL     1      -4.672  12.553  18.801  0.00  0.00    +0.000 OA
BRANCH  22  23
ATOM     23  C   UNL     1      -5.100  11.679  17.789  0.00  0.00    +0.000 C 
ATOM     24  C   UNL     1      -6.172  10.785  18.342  0.00  0.00    +0.000 C 
ATOM     25  O   UNL     1      -4.720  11.647  16.630  0.00  0.00    +0.000 OA
ENDBRANCH  22  23
ENDBRANCH   3  22
BRANCH  14  26
ATOM     26  C   UNL     1      -7.917  14.560  20.369  0.00  0.00    +0.000 C 
BRANCH  26  27
ATOM     27  O   UNL     1      -7.901  13.788  19.157  0.00  0.00    +0.000 OA
BRANCH  27  28
ATOM     28  C   UNL     1      -7.462  14.440  18.053  0.00  0.00    +0.000 C 
ATOM     29  C   UNL     1      -6.686  15.669  18.426  0.00  0.00    +0.000 C 
ATOM     30  O   UNL     1      -7.656  14.087  16.900  0.00  0.00    +0.000 OA
ENDBRANCH  27  28
ENDBRANCH  26  27
ENDBRANCH  14  26
TORSDOF 9
ENDMDL
MODEL 2
REMARK VINA RESULT:      -5.6      2.770      5.271
REMARK  Name = 
REMARK  14 active torsions:
REMARK  status: ('A' for Active; 'I' for Inactive)
REMARK    1  A    between atoms: C_1  and  C_2
REMARK    2  A    between atoms: C_2  and  C_3
REMARK    3  A    between atoms: C_3  and  C_4
REMARK    4  A    between atoms: C_4  and  C_5
REMARK    5  A    between atoms: C_5  and  C_6
REMARK    6  A    between atoms: C_8  and  O_9
REMARK    7  A    between atoms: O_9  and  C_10
REMARK    8  A    between atoms: C_10  and  C_11
REMARK    9  A    between atoms: C_17  and  C_18
REMARK   10  A    between atoms: C_17  and  C_19
REMARK   11  A    between atoms: C_23  and  C_24
REMARK   12  A    between atoms: C_24  and  O_25
REMARK   13  A    between atoms: O_25  and  C_26
REMARK   14  A    between atoms: C_26  and  C_27
REMARK                            x       y       z     vdW  Elec       q    Type
REMARK                         _______ _______ _______ _____ _____    ______ ____
ROOT
ATOM      1  C   UNL     1      -2.907  10.204  17.027  0.00  0.00    +0.000 A 
ATOM      2  C   UNL     1      -4.081  10.753  17.548  0.00  0.00    +0.000 A 
ATOM      3  C   UNL     1      -4.030  11.652  18.610  0.00  0.00    +0.000 A 
ATOM      4  C   UNL     1      -2.819  11.947  19.281  0.00  0.00    +0.000 A 
ATOM      5  C   UNL     1      -1.658  11.370  18.758  0.00  0.00    +0.000 A 
ATOM      6  C   UNL     1      -1.696  10.523  17.641  0.00  0.00    +0.000 A 
ATOM      7  O   UNL     1      -0.404  11.651  19.213  0.00  0.00    +0.000 OA
ATOM      8  C   UNL     1      -0.289  11.987  20.601  0.00  0.00    +0.000 C 
ATOM      9  C   UNL     1       1.150  12.535  20.723  0.00  0.00    +0.000 C 
ATOM     10  C   UNL     1      -0.363  10.691  21.428  0.00  0.00    +0.000 C 
ATOM     11  C   UNL     1      -1.299  13.090  21.028  0.00  0.00    +0.000 C 
ATOM     12  C   UNL     1      -1.306  13.291  22.563  0.00  0.00    +0.000 C 
ATOM     13  C   UNL     1      -2.383  14.260  23.023  0.00  0.00    +0.000 C 
ATOM     14  C   UNL     1      -3.788  13.821  22.588  0.00  0.00    +0.000 C 
ATOM     15  C   UNL     1      -3.763  12.690  21.548  0.00  0.00    +0.000 C 
ATOM     16  C   UNL     1      -2.732  12.933  20.426  0.00  0.00    +0.000 C 
ENDROOT
BRANCH   1  17
ATOM     17  C   UNL     1      -2.957   9.352  15.781  0.00  0.00    +0.000 C 
BRANCH  17  18
ATOM     18  C   UNL     1      -2.950  10.228  14.522  0.00  0.00    +0.000 C 
BRANCH  18  19
ATOM     19  C   UNL     1      -4.262  10.143  13.747  0.00  0.00    +0.000 C 
BRANCH  19  21
ATOM     20  C   UNL     1      -5.282   9.532  11.525  0.00  0.00    +0.000 C 
ATOM     21  C   UNL     1      -3.994   9.797  12.283  0.00  0.00    +0.000 C 
ENDBRANCH  19  21
ENDBRANCH  18  19
ENDBRANCH  17  18
ENDBRANCH   1  17
BRANCH   3  22
ATOM     22  O   UNL     1      -5.187  12.394  18.997  0.00  0.00    +0.000 OA
BRANCH  22  23
ATOM     23  C   UNL     1      -6.536  12.008  18.956  0.00  0.00    +0.000 C 
ATOM     24  C   UNL     1      -6.823  11.124  20.136  0.00  0.00    +0.000 C 
ATOM     25  O   UNL     1      -7.378  12.345  18.139  0.00  0.00    +0.000 OA
ENDBRANCH  22  23
ENDBRANCH   3  22
BRANCH  14  26
ATOM     26  C   UNL     1      -4.594  15.044  22.102  0.00  0.00    +0.000 C 
BRANCH  26  27
ATOM     27  O   UNL     1      -5.991  14.720  22.011  0.00  0.00    +0.000 OA
BRANCH  27  28
ATOM     28  C   UNL     1      -6.653  14.645  23.192  0.00  0.00    +0.000 C 
ATOM     29  C   UNL     1      -7.430  13.364  23.293  0.00  0.00    +0.000 C 
ATOM     30  O   UNL     1      -6.629  15.492  24.071  0.00  0.00    +0.000 OA
ENDBRANCH  27  28
ENDBRANCH  26  27
ENDBRANCH  14  26
TORSDOF 9
ENDMDL
MODEL 3
REMARK VINA RESULT:      -5.5      3.048      6.692
REMARK  Name = 
REMARK  14 active torsions:
REMARK  status: ('A' for Active; 'I' for Inactive)
REMARK    1  A    between atoms: C_1  and  C_2
REMARK    2  A    between atoms: C_2  and  C_3
REMARK    3  A    between atoms: C_3  and  C_4
REMARK    4  A    between atoms: C_4  and  C_5
REMARK    5  A    between atoms: C_5  and  C_6
REMARK    6  A    between atoms: C_8  and  O_9
REMARK    7  A    between atoms: O_9  and  C_10
REMARK    8  A    between atoms: C_10  and  C_11
REMARK    9  A    between atoms: C_17  and  C_18
REMARK   10  A    between atoms: C_17  and  C_19
REMARK   11  A    between atoms: C_23  and  C_24
REMARK   12  A    between atoms: C_24  and  O_25
REMARK   13  A    between atoms: O_25  and  C_26
REMARK   14  A    between atoms: C_26  and  C_27
REMARK                            x       y       z     vdW  Elec       q    Type
REMARK                         _______ _______ _______ _____ _____    ______ ____
ROOT
ATOM      1  C   UNL     1      -3.238  10.960  15.853  0.00  0.00    +0.000 A 
ATOM      2  C   UNL     1      -2.133  11.177  16.680  0.00  0.00    +0.000 A 
ATOM      3  C   UNL     1      -2.309  11.502  18.023  0.00  0.00    +0.000 A 
ATOM      4  C   UNL     1      -3.590  11.748  18.569  0.00  0.00    +0.000 A 
ATOM      5  C   UNL     1      -4.682  11.548  17.720  0.00  0.00    +0.000 A 
ATOM      6  C   UNL     1      -4.513  11.147  16.387  0.00  0.00    +0.000 A 
ATOM      7  O   UNL     1      -5.980  11.625  18.127  0.00  0.00    +0.000 OA
ATOM      8  C   UNL     1      -6.261  12.535  19.197  0.00  0.00    +0.000 C 
ATOM      9  C   UNL     1      -7.701  12.168  19.616  0.00  0.00    +0.000 C 
ATOM     10  C   UNL     1      -6.292  13.965  18.630  0.00  0.00    +0.000 C 
ATOM     11  C   UNL     1      -5.305  12.335  20.409  0.00  0.00    +0.000 C 
ATOM     12  C   UNL     1      -5.482  13.455  21.463  0.00  0.00    +0.000 C 
ATOM     13  C   UNL     1      -4.465  13.368  22.588  0.00  0.00    +0.000 C 
ATOM     14  C   UNL     1      -3.020  13.414  22.075  0.00  0.00    +0.000 C 
ATOM     15  C   UNL     1      -2.923  13.235  20.552  0.00  0.00    +0.000 C 
ATOM     16  C   UNL     1      -3.811  12.086  20.028  0.00  0.00    +0.000 C 
ENDROOT
BRANCH   1  17
ATOM     17  C   UNL     1      -3.041  10.459  14.442  0.00  0.00    +0.000 C 
BRANCH  17  18
ATOM     18  C   UNL     1      -4.260   9.654  13.974  0.00  0.00    +0.000 C 
BRANCH  18  19
ATOM     19  C   UNL     1      -4.490   9.769  12.471  0.00  0.00    +0.000 C 
BRANCH  19  21
ATOM     20  C   UNL     1      -6.622  10.151  11.183  0.00  0.00    +0.000 C 
ATOM     21  C   UNL     1      -5.863   9.208  12.098  0.00  0.00    +0.000 C 
ENDBRANCH  19  21
ENDBRANCH  18  19
ENDBRANCH  17  18
ENDBRANCH   1  17
BRANCH   3  22
ATOM     22  O   UNL     1      -1.203  11.495  18.927  0.00  0.00    +0.000 OA
BRANCH  22  23
ATOM     23  C   UNL     1       0.164  11.343  18.647  0.00  0.00    +0.000 C 
ATOM     24  C   UNL     1       0.833  12.683  18.749  0.00  0.00    +0.000 C 
ATOM     25  O   UNL     1       0.757  10.305  18.399  0.00  0.00    +0.000 OA
ENDBRANCH  22  23
ENDBRANCH   3  22
BRANCH  14  26
ATOM     26  C   UNL     1      -2.156  12.389  22.839  0.00  0.00    +0.000 C 
BRANCH  26  27
ATOM     27  O   UNL     1      -0.818  12.372  22.317  0.00  0.00    +0.000 OA
BRANCH  27  28
ATOM     28  C   UNL     1      -0.183  11.176  22.370  0.00  0.00    +0.000 C 
ATOM     29  C   UNL     1      -0.973  10.182  23.173  0.00  0.00    +0.000 C 
ATOM     30  O   UNL     1       0.886  10.918  21.838  0.00  0.00    +0.000 OA
ENDBRANCH  27  28
ENDBRANCH  26  27
ENDBRANCH  14  26
TORSDOF 9
ENDMDL
MODEL 4
REMARK VINA RESULT:      -5.5      2.732      5.051
REMARK  Name = 
REMARK  14 active torsions:
REMARK  status: ('A' for Active; 'I' for Inactive)
REMARK    1  A    between atoms: C_1  and  C_2
REMARK    2  A    between atoms: C_2  and  C_3
REMARK    3  A    between atoms: C_3  and  C_4
REMARK    4  A    between atoms: C_4  and  C_5
REMARK    5  A    between atoms: C_5  and  C_6
REMARK    6  A    between atoms: C_8  and  O_9
REMARK    7  A    between atoms: O_9  and  C_10
REMARK    8  A    between atoms: C_10  and  C_11
REMARK    9  A    between atoms: C_17  and  C_18
REMARK   10  A    between atoms: C_17  and  C_19
REMARK   11  A    between atoms: C_23  and  C_24
REMARK   12  A    between atoms: C_24  and  O_25
REMARK   13  A    between atoms: O_25  and  C_26
REMARK   14  A    between atoms: C_26  and  C_27
REMARK                            x       y       z     vdW  Elec       q    Type
REMARK                         _______ _______ _______ _____ _____    ______ ____
ROOT
ATOM      1  C   UNL     1      -2.728  10.346  17.271  0.00  0.00    +0.000 A 
ATOM      2  C   UNL     1      -3.887  10.839  17.876  0.00  0.00    +0.000 A 
ATOM      3  C   UNL     1      -3.802  11.736  18.938  0.00  0.00    +0.000 A 
ATOM      4  C   UNL     1      -2.562  12.082  19.524  0.00  0.00    +0.000 A 
ATOM      5  C   UNL     1      -1.415  11.561  18.918  0.00  0.00    +0.000 A 
ATOM      6  C   UNL     1      -1.493  10.717  17.801  0.00  0.00    +0.000 A 
ATOM      7  O   UNL     1      -0.146  11.896  19.287  0.00  0.00    +0.000 OA
ATOM      8  C   UNL     1       0.050  12.232  20.666  0.00  0.00    +0.000 C 
ATOM      9  C   UNL     1       1.468  12.844  20.690  0.00  0.00    +0.000 C 
ATOM     10  C   UNL     1       0.092  10.931  21.487  0.00  0.00    +0.000 C 
ATOM     11  C   UNL     1      -0.976  13.287  21.169  0.00  0.00    +0.000 C 
ATOM     12  C   UNL     1      -0.885  13.482  22.702  0.00  0.00    +0.000 C 
ATOM     13  C   UNL     1      -1.969  14.399  23.243  0.00  0.00    +0.000 C 
ATOM     14  C   UNL     1      -3.380  13.899  22.904  0.00  0.00    +0.000 C 
ATOM     15  C   UNL     1      -3.377  12.774  21.857  0.00  0.00    +0.000 C 
ATOM     16  C   UNL     1      -2.438  13.067  20.667  0.00  0.00    +0.000 C 
ENDROOT
BRANCH   1  17
ATOM     17  C   UNL     1      -2.828   9.497  16.025  0.00  0.00    +0.000 C 
BRANCH  17  18
ATOM     18  C   UNL     1      -2.943  10.377  14.774  0.00  0.00    +0.000 C 
BRANCH  18  19
ATOM     19  C   UNL     1      -4.191  10.063  13.955  0.00  0.00    +0.000 C 
BRANCH  19  21
ATOM     20  C   UNL     1      -5.045   9.516  11.649  0.00  0.00    +0.000 C 
ATOM     21  C   UNL     1      -3.819   9.806  12.495  0.00  0.00    +0.000 C 
ENDBRANCH  19  21
ENDBRANCH  18  19
ENDBRANCH  17  18
ENDBRANCH   1  17
BRANCH   3  22
ATOM     22  O   UNL     1      -4.961  12.423  19.409  0.00  0.00    +0.000 OA
BRANCH  22  23
ATOM     23  C   UNL     1      -6.213  11.898  19.766  0.00  0.00    +0.000 C 
ATOM     24  C   UNL     1      -7.214  12.270  18.711  0.00  0.00    +0.000 C 
ATOM     25  O   UNL     1      -6.478  11.215  20.742  0.00  0.00    +0.000 OA
ENDBRANCH  22  23
ENDBRANCH   3  22
BRANCH  14  26
ATOM     26  C   UNL     1      -4.272  15.086  22.483  0.00  0.00    +0.000 C 
BRANCH  26  27
ATOM     27  O   UNL     1      -5.458  14.613  21.825  0.00  0.00    +0.000 OA
BRANCH  27  28
ATOM     28  C   UNL     1      -5.976  15.441  20.884  0.00  0.00    +0.000 C 
ATOM     29  C   UNL     1      -4.915  16.335  20.310  0.00  0.00    +0.000 C 
ATOM     30  O   UNL     1      -7.145  15.468  20.533  0.00  0.00    +0.000 OA
ENDBRANCH  27  28
ENDBRANCH  26  27
ENDBRANCH  14  26
TORSDOF 9
ENDMDL
MODEL 5
REMARK VINA RESULT:      -5.4      2.450      3.801
REMARK  Name = 
REMARK  14 active torsions:
REMARK  status: ('A' for Active; 'I' for Inactive)
REMARK    1  A    between atoms: C_1  and  C_2
REMARK    2  A    between atoms: C_2  and  C_3
REMARK    3  A    between atoms: C_3  and  C_4
REMARK    4  A    between atoms: C_4  and  C_5
REMARK    5  A    between atoms: C_5  and  C_6
REMARK    6  A    between atoms: C_8  and  O_9
REMARK    7  A    between atoms: O_9  and  C_10
REMARK    8  A    between atoms: C_10  and  C_11
REMARK    9  A    between atoms: C_17  and  C_18
REMARK   10  A    between atoms: C_17  and  C_19
REMARK   11  A    between atoms: C_23  and  C_24
REMARK   12  A    between atoms: C_24  and  O_25
REMARK   13  A    between atoms: O_25  and  C_26
REMARK   14  A    between atoms: C_26  and  C_27
REMARK                            x       y       z     vdW  Elec       q    Type
REMARK                         _______ _______ _______ _____ _____    ______ ____
ROOT
ATOM      1  C   UNL     1       0.706   9.949  18.189  0.00  0.00    +0.000 A 
ATOM      2  C   UNL     1      -0.629   9.658  17.901  0.00  0.00    +0.000 A 
ATOM      3  C   UNL     1      -1.644  10.520  18.308  0.00  0.00    +0.000 A 
ATOM      4  C   UNL     1      -1.384  11.644  19.128  0.00  0.00    +0.000 A 
ATOM      5  C   UNL     1      -0.043  11.906  19.424  0.00  0.00    +0.000 A 
ATOM      6  C   UNL     1       0.989  11.082  18.953  0.00  0.00    +0.000 A 
ATOM      7  O   UNL     1       0.380  13.013  20.097  0.00  0.00    +0.000 OA
ATOM      8  C   UNL     1      -0.526  13.557  21.065  0.00  0.00    +0.000 C 
ATOM      9  C   UNL     1       0.093  14.930  21.408  0.00  0.00    +0.000 C 
ATOM     10  C   UNL     1      -0.466  12.690  22.335  0.00  0.00    +0.000 C 
ATOM     11  C   UNL     1      -1.955  13.766  20.485  0.00  0.00    +0.000 C 
ATOM     12  C   UNL     1      -2.966  14.153  21.592  0.00  0.00    +0.000 C 
ATOM     13  C   UNL     1      -4.395  14.225  21.082  0.00  0.00    +0.000 C 
ATOM     14  C   UNL     1      -4.856  12.905  20.449  0.00  0.00    +0.000 C 
ATOM     15  C   UNL     1      -3.697  11.926  20.202  0.00  0.00    +0.000 C 
ATOM     16  C   UNL     1      -2.464  12.607  19.571  0.00  0.00    +0.000 C 
ENDROOT
BRANCH   1  17
ATOM     17  C   UNL     1       1.809   9.092  17.614  0.00  0.00    +0.000 C 
BRANCH  17  18
ATOM     18  C   UNL     1       2.235   8.009  18.613  0.00  0.00    +0.000 C 
BRANCH  18  19
ATOM     19  C   UNL     1       3.285   7.065  18.035  0.00  0.00    +0.000 C 
BRANCH  19  21
ATOM     20  C   UNL     1       1.859   4.991  17.921  0.00  0.00    +0.000 C 
ATOM     21  C   UNL     1       3.070   5.646  18.558  0.00  0.00    +0.000 C 
ENDBRANCH  19  21
ENDBRANCH  18  19
ENDBRANCH  17  18
ENDBRANCH   1  17
BRANCH   3  22
ATOM     22  O   UNL     1      -2.978  10.360  17.824  0.00  0.00    +0.000 OA
BRANCH  22  23
ATOM     23  C   UNL     1      -3.534  10.797  16.611  0.00  0.00    +0.000 C 
ATOM     24  C   UNL     1      -3.049   9.904  15.506  0.00  0.00    +0.000 C 
ATOM     25  O   UNL     1      -4.318  11.718  16.446  0.00  0.00    +0.000 OA
ENDBRANCH  22  23
ENDBRANCH   3  22
BRANCH  14  26
ATOM     26  C   UNL     1      -5.663  13.190  19.165  0.00  0.00    +0.000 C 
BRANCH  26  27
ATOM     27  O   UNL     1      -7.052  12.884  19.366  0.00  0.00    +0.000 OA
BRANCH  27  28
ATOM     28  C   UNL     1      -7.329  11.594  19.680  0.00  0.00    +0.000 C 
ATOM     29  C   UNL     1      -6.864  10.665  18.597  0.00  0.00    +0.000 C 
ATOM     30  O   UNL     1      -7.876  11.218  20.705  0.00  0.00    +0.000 OA
ENDBRANCH  27  28
ENDBRANCH  26  27
ENDBRANCH  14  26
TORSDOF 9
ENDMDL
MODEL 6
REMARK VINA RESULT:      -5.4      4.323      8.305
REMARK  Name = 
REMARK  14 active torsions:
REMARK  status: ('A' for Active; 'I' for Inactive)
REMARK    1  A    between atoms: C_1  and  C_2
REMARK    2  A    between atoms: C_2  and  C_3
REMARK    3  A    between atoms: C_3  and  C_4
REMARK    4  A    between atoms: C_4  and  C_5
REMARK    5  A    between atoms: C_5  and  C_6
REMARK    6  A    between atoms: C_8  and  O_9
REMARK    7  A    between atoms: O_9  and  C_10
REMARK    8  A    between atoms: C_10  and  C_11
REMARK    9  A    between atoms: C_17  and  C_18
REMARK   10  A    between atoms: C_17  and  C_19
REMARK   11  A    between atoms: C_23  and  C_24
REMARK   12  A    between atoms: C_24  and  O_25
REMARK   13  A    between atoms: O_25  and  C_26
REMARK   14  A    between atoms: C_26  and  C_27
REMARK                            x       y       z     vdW  Elec       q    Type
REMARK                         _______ _______ _______ _____ _____    ______ ____
ROOT
ATOM      1  C   UNL     1      -1.307  14.180  23.570  0.00  0.00    +0.000 A 
ATOM      2  C   UNL     1      -1.603  12.858  23.233  0.00  0.00    +0.000 A 
ATOM      3  C   UNL     1      -0.859  12.193  22.261  0.00  0.00    +0.000 A 
ATOM      4  C   UNL     1       0.128  12.856  21.494  0.00  0.00    +0.000 A 
ATOM      5  C   UNL     1       0.394  14.186  21.832  0.00  0.00    +0.000 A 
ATOM      6  C   UNL     1      -0.301  14.837  22.862  0.00  0.00    +0.000 A 
ATOM      7  O   UNL     1       1.395  14.922  21.272  0.00  0.00    +0.000 OA
ATOM      8  C   UNL     1       1.739  14.606  19.918  0.00  0.00    +0.000 C 
ATOM      9  C   UNL     1       3.063  15.369  19.693  0.00  0.00    +0.000 C 
ATOM     10  C   UNL     1       0.683  15.227  18.986  0.00  0.00    +0.000 C 
ATOM     11  C   UNL     1       1.979  13.083  19.708  0.00  0.00    +0.000 C 
ATOM     12  C   UNL     1       2.142  12.735  18.208  0.00  0.00    +0.000 C 
ATOM     13  C   UNL     1       2.235  11.239  17.961  0.00  0.00    +0.000 C 
ATOM     14  C   UNL     1       1.017  10.480  18.502  0.00  0.00    +0.000 C 
ATOM     15  C   UNL     1       0.139  11.342  19.422  0.00  0.00    +0.000 C 
ATOM     16  C   UNL     1       0.962  12.155  20.444  0.00  0.00    +0.000 C 
ENDROOT
BRANCH   1  17
ATOM     17  C   UNL     1      -2.014  14.843  24.729  0.00  0.00    +0.000 C 
BRANCH  17  18
ATOM     18  C   UNL     1      -3.522  14.564  24.679  0.00  0.00    +0.000 C 
BRANCH  18  19
ATOM     19  C   UNL     1      -4.341  15.833  24.471  0.00  0.00    +0.000 C 
BRANCH  19  21
ATOM     20  C   UNL     1      -4.517  18.147  25.454  0.00  0.00    +0.000 C 
ATOM     21  C   UNL     1      -3.576  17.051  24.988  0.00  0.00    +0.000 C 
ENDBRANCH  19  21
ENDBRANCH  18  19
ENDBRANCH  17  18
ENDBRANCH   1  17
BRANCH   3  22
ATOM     22  O   UNL     1      -0.995  10.784  22.074  0.00  0.00    +0.000 OA
BRANCH  22  23
ATOM     23  C   UNL     1      -0.352   9.738  22.754  0.00  0.00    +0.000 C 
ATOM     24  C   UNL     1      -0.489   8.478  21.948  0.00  0.00    +0.000 C 
ATOM     25  O   UNL     1       0.262   9.807  23.807  0.00  0.00    +0.000 OA
ENDBRANCH  22  23
ENDBRANCH   3  22
BRANCH  14  26
ATOM     26  C   UNL     1       1.471   9.173  19.185  0.00  0.00    +0.000 C 
BRANCH  26  27
ATOM     27  O   UNL     1       2.267   8.386  18.284  0.00  0.00    +0.000 OA
BRANCH  27  28
ATOM     28  C   UNL     1       2.646   7.170  18.746  0.00  0.00    +0.000 C 
ATOM     29  C   UNL     1       3.580   6.495  17.785  0.00  0.00    +0.000 C 
ATOM     30  O   UNL     1       2.290   6.673  19.804  0.00  0.00    +0.000 OA
ENDBRANCH  27  28
ENDBRANCH  26  27
ENDBRANCH  14  26
TORSDOF 9
ENDMDL
MODEL 7
REMARK VINA RESULT:      -5.4      2.734      4.866
REMARK  Name = 
REMARK  14 active torsions:
REMARK  status: ('A' for Active; 'I' for Inactive)
REMARK    1  A    between atoms: C_1  and  C_2
REMARK    2  A    between atoms: C_2  and  C_3
REMARK    3  A    between atoms: C_3  and  C_4
REMARK    4  A    between atoms: C_4  and  C_5
REMARK    5  A    between atoms: C_5  and  C_6
REMARK    6  A    between atoms: C_8  and  O_9
REMARK    7  A    between atoms: O_9  and  C_10
REMARK    8  A    between atoms: C_10  and  C_11
REMARK    9  A    between atoms: C_17  and  C_18
REMARK   10  A    between atoms: C_17  and  C_19
REMARK   11  A    between atoms: C_23  and  C_24
REMARK   12  A    between atoms: C_24  and  O_25
REMARK   13  A    between atoms: O_25  and  C_26
REMARK   14  A    between atoms: C_26  and  C_27
REMARK                            x       y       z     vdW  Elec       q    Type
REMARK                         _______ _______ _______ _____ _____    ______ ____
ROOT
ATOM      1  C   UNL     1      -2.795  10.415  17.230  0.00  0.00    +0.000 A 
ATOM      2  C   UNL     1      -4.047  10.853  17.668  0.00  0.00    +0.000 A 
ATOM      3  C   UNL     1      -4.151  11.748  18.729  0.00  0.00    +0.000 A 
ATOM      4  C   UNL     1      -3.021  12.148  19.481  0.00  0.00    +0.000 A 
ATOM      5  C   UNL     1      -1.779  11.681  19.041  0.00  0.00    +0.000 A 
ATOM      6  C   UNL     1      -1.663  10.839  17.926  0.00  0.00    +0.000 A 
ATOM      7  O   UNL     1      -0.590  12.071  19.581  0.00  0.00    +0.000 OA
ATOM      8  C   UNL     1      -0.602  12.410  20.973  0.00  0.00    +0.000 C 
ATOM      9  C   UNL     1       0.769  13.085  21.193  0.00  0.00    +0.000 C 
ATOM     10  C   UNL     1      -0.615  11.108  21.795  0.00  0.00    +0.000 C 
ATOM     11  C   UNL     1      -1.735  13.415  21.328  0.00  0.00    +0.000 C 
ATOM     12  C   UNL     1      -1.866  13.608  22.858  0.00  0.00    +0.000 C 
ATOM     13  C   UNL     1      -3.055  14.472  23.241  0.00  0.00    +0.000 C 
ATOM     14  C   UNL     1      -4.381  13.911  22.711  0.00  0.00    +0.000 C 
ATOM     15  C   UNL     1      -4.183  12.792  21.677  0.00  0.00    +0.000 C 
ATOM     16  C   UNL     1      -3.102  13.132  20.628  0.00  0.00    +0.000 C 
ENDROOT
BRANCH   1  17
ATOM     17  C   UNL     1      -2.682   9.568  15.984  0.00  0.00    +0.000 C 
BRANCH  17  18
ATOM     18  C   UNL     1      -2.969  10.403  14.730  0.00  0.00    +0.000 C 
BRANCH  18  19
ATOM     19  C   UNL     1      -4.189   9.901  13.963  0.00  0.00    +0.000 C 
BRANCH  19  21
ATOM     20  C   UNL     1      -5.137   9.624  11.646  0.00  0.00    +0.000 C 
ATOM     21  C   UNL     1      -3.877   9.805  12.470  0.00  0.00    +0.000 C 
ENDBRANCH  19  21
ENDBRANCH  18  19
ENDBRANCH  17  18
ENDBRANCH   1  17
BRANCH   3  22
ATOM     22  O   UNL     1      -5.395  12.381  19.034  0.00  0.00    +0.000 OA
BRANCH  22  23
ATOM     23  C   UNL     1      -6.697  11.963  18.717  0.00  0.00    +0.000 C 
ATOM     24  C   UNL     1      -7.285  11.262  19.907  0.00  0.00    +0.000 C 
ATOM     25  O   UNL     1      -7.302  12.155  17.674  0.00  0.00    +0.000 OA
ENDBRANCH  22  23
ENDBRANCH   3  22
BRANCH  14  26
ATOM     26  C   UNL     1      -5.259  15.058  22.169  0.00  0.00    +0.000 C 
BRANCH  26  27
ATOM     27  O   UNL     1      -4.450  16.200  21.844  0.00  0.00    +0.000 OA
BRANCH  27  28
ATOM     28  C   UNL     1      -4.409  16.535  20.531  0.00  0.00    +0.000 C 
ATOM     29  C   UNL     1      -5.666  16.111  19.827  0.00  0.00    +0.000 C 
ATOM     30  O   UNL     1      -3.485  17.111  19.976  0.00  0.00    +0.000 OA
ENDBRANCH  27  28
ENDBRANCH  26  27
ENDBRANCH  14  26
TORSDOF 9
ENDMDL
MODEL 8
REMARK VINA RESULT:      -5.4      2.854      6.208
REMARK  Name = 
REMARK  14 active torsions:
REMARK  status: ('A' for Active; 'I' for Inactive)
REMARK    1  A    between atoms: C_1  and  C_2
REMARK    2  A    between atoms: C_2  and  C_3
REMARK    3  A    between atoms: C_3  and  C_4
REMARK    4  A    between atoms: C_4  and  C_5
REMARK    5  A    between atoms: C_5  and  C_6
REMARK    6  A    between atoms: C_8  and  O_9
REMARK    7  A    between atoms: O_9  and  C_10
REMARK    8  A    between atoms: C_10  and  C_11
REMARK    9  A    between atoms: C_17  and  C_18
REMARK   10  A    between atoms: C_17  and  C_19
REMARK   11  A    between atoms: C_23  and  C_24
REMARK   12  A    between atoms: C_24  and  O_25
REMARK   13  A    between atoms: O_25  and  C_26
REMARK   14  A    between atoms: C_26  and  C_27
REMARK                            x       y       z     vdW  Elec       q    Type
REMARK                         _______ _______ _______ _____ _____    ______ ____
ROOT
ATOM      1  C   UNL     1      -3.151  10.653  16.454  0.00  0.00    +0.000 A 
ATOM      2  C   UNL     1      -2.193  11.444  17.092  0.00  0.00    +0.000 A 
ATOM      3  C   UNL     1      -2.452  11.995  18.345  0.00  0.00    +0.000 A 
ATOM      4  C   UNL     1      -3.722  11.886  18.959  0.00  0.00    +0.000 A 
ATOM      5  C   UNL     1      -4.675  11.109  18.294  0.00  0.00    +0.000 A 
ATOM      6  C   UNL     1      -4.392  10.490  17.068  0.00  0.00    +0.000 A 
ATOM      7  O   UNL     1      -5.899  10.809  18.811  0.00  0.00    +0.000 OA
ATOM      8  C   UNL     1      -6.480  11.784  19.684  0.00  0.00    +0.000 C 
ATOM      9  C   UNL     1      -7.670  11.035  20.323  0.00  0.00    +0.000 C 
ATOM     10  C   UNL     1      -7.057  12.927  18.830  0.00  0.00    +0.000 C 
ATOM     11  C   UNL     1      -5.497  12.238  20.801  0.00  0.00    +0.000 C 
ATOM     12  C   UNL     1      -6.062  13.436  21.603  0.00  0.00    +0.000 C 
ATOM     13  C   UNL     1      -5.066  13.992  22.606  0.00  0.00    +0.000 C 
ATOM     14  C   UNL     1      -3.753  14.432  21.944  0.00  0.00    +0.000 C 
ATOM     15  C   UNL     1      -3.625  13.941  20.493  0.00  0.00    +0.000 C 
ATOM     16  C   UNL     1      -4.026  12.460  20.326  0.00  0.00    +0.000 C 
ENDROOT
BRANCH   1  17
ATOM     17  C   UNL     1      -2.806   9.934  15.171  0.00  0.00    +0.000 C 
BRANCH  17  18
ATOM     18  C   UNL     1      -3.928  10.099  14.137  0.00  0.00    +0.000 C 
BRANCH  18  19
ATOM     19  C   UNL     1      -3.509   9.631  12.747  0.00  0.00    +0.000 C 
BRANCH  19  21
ATOM     20  C   UNL     1      -5.900   9.221  12.065  0.00  0.00    +0.000 C 
ATOM     21  C   UNL     1      -4.607   9.940  11.729  0.00  0.00    +0.000 C 
ENDBRANCH  19  21
ENDBRANCH  18  19
ENDBRANCH  17  18
ENDBRANCH   1  17
BRANCH   3  22
ATOM     22  O   UNL     1      -1.408  12.604  19.106  0.00  0.00    +0.000 OA
BRANCH  22  23
ATOM     23  C   UNL     1      -0.033  12.659  18.831  0.00  0.00    +0.000 C 
ATOM     24  C   UNL     1       0.594  11.354  19.228  0.00  0.00    +0.000 C 
ATOM     25  O   UNL     1       0.583  13.580  18.318  0.00  0.00    +0.000 OA
ENDBRANCH  22  23
ENDBRANCH   3  22
BRANCH  14  26
ATOM     26  C   UNL     1      -2.554  14.002  22.814  0.00  0.00    +0.000 C 
BRANCH  26  27
ATOM     27  O   UNL     1      -2.696  12.632  23.222  0.00  0.00    +0.000 OA
BRANCH  27  28
ATOM     28  C   UNL     1      -1.601  11.851  23.044  0.00  0.00    +0.000 C 
ATOM     29  C   UNL     1      -0.475  12.633  22.434  0.00  0.00    +0.000 C 
ATOM     30  O   UNL     1      -1.521  10.669  23.340  0.00  0.00    +0.000 OA
ENDBRANCH  27  28
ENDBRANCH  26  27
ENDBRANCH  14  26
TORSDOF 9
ENDMDL
MODEL 9
REMARK VINA RESULT:      -5.2      3.718      8.072
REMARK  Name = 
REMARK  14 active torsions:
REMARK  status: ('A' for Active; 'I' for Inactive)
REMARK    1  A    between atoms: C_1  and  C_2
REMARK    2  A    between atoms: C_2  and  C_3
REMARK    3  A    between atoms: C_3  and  C_4
REMARK    4  A    between atoms: C_4  and  C_5
REMARK    5  A    between atoms: C_5  and  C_6
REMARK    6  A    between atoms: C_8  and  O_9
REMARK    7  A    between atoms: O_9  and  C_10
REMARK    8  A    between atoms: C_10  and  C_11
REMARK    9  A    between atoms: C_17  and  C_18
REMARK   10  A    between atoms: C_17  and  C_19
REMARK   11  A    between atoms: C_23  and  C_24
REMARK   12  A    between atoms: C_24  and  O_25
REMARK   13  A    between atoms: O_25  and  C_26
REMARK   14  A    between atoms: C_26  and  C_27
REMARK                            x       y       z     vdW  Elec       q    Type
REMARK                         _______ _______ _______ _____ _____    ______ ____
ROOT
ATOM      1  C   UNL     1      -1.411  14.115  23.592  0.00  0.00    +0.000 A 
ATOM      2  C   UNL     1      -1.665  12.795  23.215  0.00  0.00    +0.000 A 
ATOM      3  C   UNL     1      -0.887  12.177  22.238  0.00  0.00    +0.000 A 
ATOM      4  C   UNL     1       0.094  12.887  21.506  0.00  0.00    +0.000 A 
ATOM      5  C   UNL     1       0.318  14.214  21.883  0.00  0.00    +0.000 A 
ATOM      6  C   UNL     1      -0.411  14.817  22.918  0.00  0.00    +0.000 A 
ATOM      7  O   UNL     1       1.308  14.991  21.361  0.00  0.00    +0.000 OA
ATOM      8  C   UNL     1       1.682  14.722  20.004  0.00  0.00    +0.000 C 
ATOM      9  C   UNL     1       2.989  15.525  19.823  0.00  0.00    +0.000 C 
ATOM     10  C   UNL     1       0.625  15.338  19.071  0.00  0.00    +0.000 C 
ATOM     11  C   UNL     1       1.967  13.212  19.759  0.00  0.00    +0.000 C 
ATOM     12  C   UNL     1       2.165  12.908  18.254  0.00  0.00    +0.000 C 
ATOM     13  C   UNL     1       2.303  11.423  17.968  0.00  0.00    +0.000 C 
ATOM     14  C   UNL     1       1.097  10.617  18.468  0.00  0.00    +0.000 C 
ATOM     15  C   UNL     1       0.180  11.430  19.395  0.00  0.00    +0.000 C 
ATOM     16  C   UNL     1       0.964  12.237  20.452  0.00  0.00    +0.000 C 
ENDROOT
BRANCH   1  17
ATOM     17  C   UNL     1      -2.155  14.727  24.755  0.00  0.00    +0.000 C 
BRANCH  17  18
ATOM     18  C   UNL     1      -3.268  15.659  24.261  0.00  0.00    +0.000 C 
BRANCH  18  19
ATOM     19  C   UNL     1      -4.102  15.029  23.149  0.00  0.00    +0.000 C 
BRANCH  19  21
ATOM     20  C   UNL     1      -5.707  13.123  22.775  0.00  0.00    +0.000 C 
ATOM     21  C   UNL     1      -5.235  14.193  23.743  0.00  0.00    +0.000 C 
ENDBRANCH  19  21
ENDBRANCH  18  19
ENDBRANCH  17  18
ENDBRANCH   1  17
BRANCH   3  22
ATOM     22  O   UNL     1      -0.981  10.770  22.011  0.00  0.00    +0.000 OA
BRANCH  22  23
ATOM     23  C   UNL     1      -0.355   9.722  22.704  0.00  0.00    +0.000 C 
ATOM     24  C   UNL     1      -0.498   8.459  21.904  0.00  0.00    +0.000 C 
ATOM     25  O   UNL     1       0.249   9.791  23.762  0.00  0.00    +0.000 OA
ENDBRANCH  22  23
ENDBRANCH   3  22
BRANCH  14  26
ATOM     26  C   UNL     1       1.575   9.305  19.124  0.00  0.00    +0.000 C 
BRANCH  26  27
ATOM     27  O   UNL     1       2.003   8.369  18.121  0.00  0.00    +0.000 OA
BRANCH  27  28
ATOM     28  C   UNL     1       2.658   7.275  18.581  0.00  0.00    +0.000 C 
ATOM     29  C   UNL     1       3.790   6.900  17.669  0.00  0.00    +0.000 C 
ATOM     30  O   UNL     1       2.383   6.664  19.602  0.00  0.00    +0.000 OA
ENDBRANCH  27  28
ENDBRANCH  26  27
ENDBRANCH  14  26
TORSDOF 9
ENDMDL
