MODEL 1
REMARK VINA RESULT:      -8.8      0.000      0.000
REMARK  Name = 
REMARK  6 active torsions:
REMARK  status: ('A' for Active; 'I' for Inactive)
REMARK    1  A    between atoms: C_1  and  C_2
REMARK    2  A    between atoms: C_5  and  C_6
REMARK    3  A    between atoms: C_6  and  N_7
REMARK    4  A    between atoms: C_8  and  C_10
REMARK    5  A    between atoms: C_11  and  C_12
REMARK    6  A    between atoms: C_18  and  C_19
REMARK                            x       y       z     vdW  Elec       q    Type
REMARK                         _______ _______ _______ _____ _____    ______ ____
ROOT
ATOM      1  C   UNL     1       6.891   6.369  17.211  0.00  0.00    +0.000 A 
ATOM      2  C   UNL     1       5.608   6.629  17.469  0.00  0.00    +0.000 A 
ATOM      3  C   UNL     1       5.323   6.413  18.985  0.00  0.00    +0.000 C 
ATOM      4  N   UNL     1       4.811   5.979  16.557  0.00  0.00    +0.000 N 
ATOM      5  O   UNL     1       4.992   5.871  15.282  0.00  0.00    +0.000 OA
ATOM      6  C   UNL     1       4.346   4.921  17.132  0.00  0.00    +0.000 A 
ATOM      7  C   UNL     1       3.037   5.300  17.732  0.00  0.00    +0.000 A 
ATOM      8  C   UNL     1       2.101   4.513  18.308  0.00  0.00    +0.000 A 
ATOM      9  C   UNL     1       2.345   3.227  17.998  0.00  0.00    +0.000 A 
ATOM     10  C   UNL     1       1.029   2.403  18.400  0.00  0.00    +0.000 C 
ATOM     11  C   UNL     1       3.835   2.980  17.277  0.00  0.00    +0.000 A 
ATOM     12  C   UNL     1       5.282   3.931  17.028  0.00  0.00    +0.000 A 
ATOM     13  N   UNL     1       6.810   4.964  16.782  0.00  0.00    +0.000 N 
ATOM     14  O   UNL     1       7.459   5.018  15.515  0.00  0.00    +0.000 OA
ENDROOT
BRANCH   1  16
ATOM     15  N   UNL     1       8.042   8.784  17.802  0.00  0.00    +0.000 N 
ATOM     16  C   UNL     1       7.911   7.387  17.934  0.00  0.00    +0.000 C 
ATOM     17  O   UNL     1       8.526   6.996  18.940  0.00  0.00    +0.000 OA
ATOM     18  H   UNL     1       7.510   9.268  17.103  0.00  0.00    +0.000 HD
BRANCH  15  19
ATOM     19  C   UNL     1       8.848   9.631  18.810  0.00  0.00    +0.000 C 
BRANCH  19  24
ATOM     20  C   UNL     1      11.263  14.612  16.887  0.00  0.00    +0.000 C 
ATOM     21  C   UNL     1      10.600  13.351  17.343  0.00  0.00    +0.000 A 
ATOM     22  C   UNL     1       9.210  13.219  17.406  0.00  0.00    +0.000 A 
ATOM     23  C   UNL     1       8.629  12.021  17.863  0.00  0.00    +0.000 A 
ATOM     24  C   UNL     1       9.435  10.934  18.271  0.00  0.00    +0.000 A 
ATOM     25  C   UNL     1      10.819  11.097  18.175  0.00  0.00    +0.000 A 
ATOM     26  C   UNL     1      11.395  12.278  17.727  0.00  0.00    +0.000 A 
ENDBRANCH  19  24
ENDBRANCH  15  19
ENDBRANCH   1  16
TORSDOF 3
ENDMDL
MODEL 2
REMARK VINA RESULT:      -8.5      2.157      2.776
REMARK  Name = 
REMARK  6 active torsions:
REMARK  status: ('A' for Active; 'I' for Inactive)
REMARK    1  A    between atoms: C_1  and  C_2
REMARK    2  A    between atoms: C_5  and  C_6
REMARK    3  A    between atoms: C_6  and  N_7
REMARK    4  A    between atoms: C_8  and  C_10
REMARK    5  A    between atoms: C_11  and  C_12
REMARK    6  A    between atoms: C_18  and  C_19
REMARK                            x       y       z     vdW  Elec       q    Type
REMARK                         _______ _______ _______ _____ _____    ______ ____
ROOT
ATOM      1  C   UNL     1       7.699   6.703  18.380  0.00  0.00    +0.000 A 
ATOM      2  C   UNL     1       6.990   6.186  17.376  0.00  0.00    +0.000 A 
ATOM      3  C   UNL     1       5.629   6.936  17.253  0.00  0.00    +0.000 C 
ATOM      4  N   UNL     1       6.972   4.816  17.477  0.00  0.00    +0.000 N 
ATOM      5  O   UNL     1       7.956   4.032  17.774  0.00  0.00    +0.000 OA
ATOM      6  C   UNL     1       5.835   4.478  17.986  0.00  0.00    +0.000 A 
ATOM      7  C   UNL     1       4.914   4.223  16.844  0.00  0.00    +0.000 A 
ATOM      8  C   UNL     1       3.666   3.705  16.852  0.00  0.00    +0.000 A 
ATOM      9  C   UNL     1       3.430   3.123  18.042  0.00  0.00    +0.000 A 
ATOM     10  C   UNL     1       2.105   2.237  17.862  0.00  0.00    +0.000 C 
ATOM     11  C   UNL     1       4.591   3.464  19.198  0.00  0.00    +0.000 A 
ATOM     12  C   UNL     1       5.925   4.585  19.345  0.00  0.00    +0.000 A 
ATOM     13  N   UNL     1       7.336   5.791  19.476  0.00  0.00    +0.000 N 
ATOM     14  O   UNL     1       8.619   5.368  19.928  0.00  0.00    +0.000 OA
ENDROOT
BRANCH   1  16
ATOM     15  N   UNL     1       8.866   9.112  18.965  0.00  0.00    +0.000 N 
ATOM     16  C   UNL     1       8.134   8.237  18.138  0.00  0.00    +0.000 C 
ATOM     17  O   UNL     1       8.065   8.698  16.986  0.00  0.00    +0.000 OA
ATOM     18  H   UNL     1       9.107   8.829  19.896  0.00  0.00    +0.000 HD
BRANCH  15  19
ATOM     19  C   UNL     1       9.465  10.431  18.435  0.00  0.00    +0.000 C 
BRANCH  19  24
ATOM     20  C   UNL     1       9.906  14.946  22.146  0.00  0.00    +0.000 C 
ATOM     21  C   UNL     1       9.762  13.765  21.239  0.00  0.00    +0.000 A 
ATOM     22  C   UNL     1       9.641  12.460  21.726  0.00  0.00    +0.000 A 
ATOM     23  C   UNL     1       9.530  11.376  20.836  0.00  0.00    +0.000 A 
ATOM     24  C   UNL     1       9.544  11.582  19.437  0.00  0.00    +0.000 A 
ATOM     25  C   UNL     1       9.646  12.901  18.989  0.00  0.00    +0.000 A 
ATOM     26  C   UNL     1       9.759  13.973  19.865  0.00  0.00    +0.000 A 
ENDBRANCH  19  24
ENDBRANCH  15  19
ENDBRANCH   1  16
TORSDOF 3
ENDMDL
MODEL 3
REMARK VINA RESULT:      -8.4      5.156      7.071
REMARK  Name = 
REMARK  6 active torsions:
REMARK  status: ('A' for Active; 'I' for Inactive)
REMARK    1  A    between atoms: C_1  and  C_2
REMARK    2  A    between atoms: C_5  and  C_6
REMARK    3  A    between atoms: C_6  and  N_7
REMARK    4  A    between atoms: C_8  and  C_10
REMARK    5  A    between atoms: C_11  and  C_12
REMARK    6  A    between atoms: C_18  and  C_19
REMARK                            x       y       z     vdW  Elec       q    Type
REMARK                         _______ _______ _______ _____ _____    ______ ____
ROOT
ATOM      1  C   UNL     1       3.306   5.006  19.700  0.00  0.00    +0.000 A 
ATOM      2  C   UNL     1       4.121   5.737  18.939  0.00  0.00    +0.000 A 
ATOM      3  C   UNL     1       3.311   6.395  17.782  0.00  0.00    +0.000 C 
ATOM      4  N   UNL     1       5.238   5.005  18.618  0.00  0.00    +0.000 N 
ATOM      5  O   UNL     1       5.929   4.234  19.392  0.00  0.00    +0.000 OA
ATOM      6  C   UNL     1       5.084   4.567  17.414  0.00  0.00    +0.000 A 
ATOM      7  C   UNL     1       5.707   5.572  16.509  0.00  0.00    +0.000 A 
ATOM      8  C   UNL     1       5.934   5.500  15.179  0.00  0.00    +0.000 A 
ATOM      9  C   UNL     1       5.805   4.224  14.771  0.00  0.00    +0.000 A 
ATOM     10  C   UNL     1       6.424   4.154  13.293  0.00  0.00    +0.000 C 
ATOM     11  C   UNL     1       5.142   3.213  15.927  0.00  0.00    +0.000 A 
ATOM     12  C   UNL     1       4.339   3.422  17.467  0.00  0.00    +0.000 A 
ATOM     13  N   UNL     1       3.484   3.675  19.100  0.00  0.00    +0.000 N 
ATOM     14  O   UNL     1       3.840   2.897  20.239  0.00  0.00    +0.000 OA
ENDROOT
BRANCH   1  16
ATOM     15  N   UNL     1       2.160   7.258  20.759  0.00  0.00    +0.000 N 
ATOM     16  C   UNL     1       2.190   5.879  20.470  0.00  0.00    +0.000 C 
ATOM     17  O   UNL     1       1.063   5.384  20.640  0.00  0.00    +0.000 OA
ATOM     18  H   UNL     1       2.964   7.824  20.562  0.00  0.00    +0.000 HD
BRANCH  15  19
ATOM     19  C   UNL     1       0.869   7.973  21.212  0.00  0.00    +0.000 C 
BRANCH  19  24
ATOM     20  C   UNL     1      -0.675  12.899  18.438  0.00  0.00    +0.000 C 
ATOM     21  C   UNL     1      -0.229  11.643  19.117  0.00  0.00    +0.000 A 
ATOM     22  C   UNL     1       0.632  10.728  18.504  0.00  0.00    +0.000 A 
ATOM     23  C   UNL     1       1.008   9.547  19.172  0.00  0.00    +0.000 A 
ATOM     24  C   UNL     1       0.519   9.260  20.467  0.00  0.00    +0.000 A 
ATOM     25  C   UNL     1      -0.324  10.207  21.054  0.00  0.00    +0.000 A 
ATOM     26  C   UNL     1      -0.698  11.371  20.397  0.00  0.00    +0.000 A 
ENDBRANCH  19  24
ENDBRANCH  15  19
ENDBRANCH   1  16
TORSDOF 3
ENDMDL
MODEL 4
REMARK VINA RESULT:      -8.2      5.101      7.306
REMARK  Name = 
REMARK  6 active torsions:
REMARK  status: ('A' for Active; 'I' for Inactive)
REMARK    1  A    between atoms: C_1  and  C_2
REMARK    2  A    between atoms: C_5  and  C_6
REMARK    3  A    between atoms: C_6  and  N_7
REMARK    4  A    between atoms: C_8  and  C_10
REMARK    5  A    between atoms: C_11  and  C_12
REMARK    6  A    between atoms: C_18  and  C_19
REMARK                            x       y       z     vdW  Elec       q    Type
REMARK                         _______ _______ _______ _____ _____    ______ ____
ROOT
ATOM      1  C   UNL     1       3.320   4.818  19.757  0.00  0.00    +0.000 A 
ATOM      2  C   UNL     1       3.985   5.677  18.983  0.00  0.00    +0.000 A 
ATOM      3  C   UNL     1       3.064   6.159  17.822  0.00  0.00    +0.000 C 
ATOM      4  N   UNL     1       5.217   5.157  18.664  0.00  0.00    +0.000 N 
ATOM      5  O   UNL     1       6.040   4.537  19.444  0.00  0.00    +0.000 OA
ATOM      6  C   UNL     1       5.141   4.683  17.466  0.00  0.00    +0.000 A 
ATOM      7  C   UNL     1       5.566   5.774  16.546  0.00  0.00    +0.000 A 
ATOM      8  C   UNL     1       5.798   5.728  15.216  0.00  0.00    +0.000 A 
ATOM      9  C   UNL     1       5.904   4.446  14.823  0.00  0.00    +0.000 A 
ATOM     10  C   UNL     1       6.521   4.471  13.343  0.00  0.00    +0.000 C 
ATOM     11  C   UNL     1       5.442   3.344  15.995  0.00  0.00    +0.000 A 
ATOM     12  C   UNL     1       4.619   3.422  17.537  0.00  0.00    +0.000 A 
ATOM     13  N   UNL     1       3.738   3.534  19.172  0.00  0.00    +0.000 N 
ATOM     14  O   UNL     1       4.234   2.850  20.318  0.00  0.00    +0.000 OA
ENDROOT
BRANCH   1  16
ATOM     15  N   UNL     1       1.818   6.826  20.860  0.00  0.00    +0.000 N 
ATOM     16  C   UNL     1       2.065   5.481  20.522  0.00  0.00    +0.000 C 
ATOM     17  O   UNL     1       1.023   4.815  20.640  0.00  0.00    +0.000 OA
ATOM     18  H   UNL     1       2.531   7.515  20.708  0.00  0.00    +0.000 HD
BRANCH  15  19
ATOM     19  C   UNL     1       0.423   7.319  21.297  0.00  0.00    +0.000 C 
BRANCH  19  24
ATOM     20  C   UNL     1      -0.031  13.150  21.677  0.00  0.00    +0.000 C 
ATOM     21  C   UNL     1       0.035  11.657  21.611  0.00  0.00    +0.000 A 
ATOM     22  C   UNL     1      -0.482  10.841  22.622  0.00  0.00    +0.000 A 
ATOM     23  C   UNL     1      -0.378   9.440  22.529  0.00  0.00    +0.000 A 
ATOM     24  C   UNL     1       0.254   8.832  21.420  0.00  0.00    +0.000 A 
ATOM     25  C   UNL     1       0.740   9.679  20.421  0.00  0.00    +0.000 A 
ATOM     26  C   UNL     1       0.641  11.062  20.511  0.00  0.00    +0.000 A 
ENDBRANCH  19  24
ENDBRANCH  15  19
ENDBRANCH   1  16
TORSDOF 3
ENDMDL
MODEL 5
REMARK VINA RESULT:      -8.1      6.879     10.112
REMARK  Name = 
REMARK  6 active torsions:
REMARK  status: ('A' for Active; 'I' for Inactive)
REMARK    1  A    between atoms: C_1  and  C_2
REMARK    2  A    between atoms: C_5  and  C_6
REMARK    3  A    between atoms: C_6  and  N_7
REMARK    4  A    between atoms: C_8  and  C_10
REMARK    5  A    between atoms: C_11  and  C_12
REMARK    6  A    between atoms: C_18  and  C_19
REMARK                            x       y       z     vdW  Elec       q    Type
REMARK                         _______ _______ _______ _____ _____    ______ ____
ROOT
ATOM      1  C   UNL     1       0.992  10.908  19.111  0.00  0.00    +0.000 A 
ATOM      2  C   UNL     1       0.788  10.637  20.400  0.00  0.00    +0.000 A 
ATOM      3  C   UNL     1      -0.364   9.597  20.543  0.00  0.00    +0.000 C 
ATOM      4  N   UNL     1       0.700  11.809  21.113  0.00  0.00    +0.000 N 
ATOM      5  O   UNL     1       1.435  12.865  20.994  0.00  0.00    +0.000 OA
ATOM      6  C   UNL     1      -0.552  12.040  21.327  0.00  0.00    +0.000 A 
ATOM      7  C   UNL     1      -0.881  11.428  22.645  0.00  0.00    +0.000 A 
ATOM      8  C   UNL     1      -2.015  11.525  23.373  0.00  0.00    +0.000 A 
ATOM      9  C   UNL     1      -2.763  12.541  22.904  0.00  0.00    +0.000 A 
ATOM     10  C   UNL     1      -3.890  12.824  24.008  0.00  0.00    +0.000 C 
ATOM     11  C   UNL     1      -2.224  13.154  21.443  0.00  0.00    +0.000 A 
ATOM     12  C   UNL     1      -1.068  12.662  20.226  0.00  0.00    +0.000 A 
ATOM     13  N   UNL     1       0.165  12.114  18.945  0.00  0.00    +0.000 N 
ATOM     14  O   UNL     1       1.109  13.030  18.399  0.00  0.00    +0.000 OA
ENDROOT
BRANCH   1  16
ATOM     15  N   UNL     1       2.635   8.807  18.482  0.00  0.00    +0.000 N 
ATOM     16  C   UNL     1       1.521   9.642  18.264  0.00  0.00    +0.000 C 
ATOM     17  O   UNL     1       0.754   9.120  17.436  0.00  0.00    +0.000 OA
ATOM     18  H   UNL     1       3.290   9.034  19.207  0.00  0.00    +0.000 HD
BRANCH  15  19
ATOM     19  C   UNL     1       2.800   7.453  17.761  0.00  0.00    +0.000 C 
BRANCH  19  24
ATOM     20  C   UNL     1       1.247   2.768  20.921  0.00  0.00    +0.000 C 
ATOM     21  C   UNL     1       1.611   3.943  20.070  0.00  0.00    +0.000 A 
ATOM     22  C   UNL     1       1.683   3.863  18.676  0.00  0.00    +0.000 A 
ATOM     23  C   UNL     1       2.051   4.989  17.916  0.00  0.00    +0.000 A 
ATOM     24  C   UNL     1       2.359   6.218  18.544  0.00  0.00    +0.000 A 
ATOM     25  C   UNL     1       2.256   6.265  19.936  0.00  0.00    +0.000 A 
ATOM     26  C   UNL     1       1.896   5.155  20.688  0.00  0.00    +0.000 A 
ENDBRANCH  19  24
ENDBRANCH  15  19
ENDBRANCH   1  16
TORSDOF 3
ENDMDL
MODEL 6
REMARK VINA RESULT:      -8.1      5.185      8.078
REMARK  Name = 
REMARK  6 active torsions:
REMARK  status: ('A' for Active; 'I' for Inactive)
REMARK    1  A    between atoms: C_1  and  C_2
REMARK    2  A    between atoms: C_5  and  C_6
REMARK    3  A    between atoms: C_6  and  N_7
REMARK    4  A    between atoms: C_8  and  C_10
REMARK    5  A    between atoms: C_11  and  C_12
REMARK    6  A    between atoms: C_18  and  C_19
REMARK                            x       y       z     vdW  Elec       q    Type
REMARK                         _______ _______ _______ _____ _____    ______ ____
ROOT
ATOM      1  C   UNL     1       2.523   6.678  19.649  0.00  0.00    +0.000 A 
ATOM      2  C   UNL     1       3.615   6.998  18.953  0.00  0.00    +0.000 A 
ATOM      3  C   UNL     1       3.204   7.678  17.613  0.00  0.00    +0.000 C 
ATOM      4  N   UNL     1       4.467   5.921  18.903  0.00  0.00    +0.000 N 
ATOM      5  O   UNL     1       4.775   5.110  19.861  0.00  0.00    +0.000 OA
ATOM      6  C   UNL     1       4.324   5.366  17.746  0.00  0.00    +0.000 A 
ATOM      7  C   UNL     1       5.341   5.979  16.849  0.00  0.00    +0.000 A 
ATOM      8  C   UNL     1       5.690   5.633  15.590  0.00  0.00    +0.000 A 
ATOM      9  C   UNL     1       5.207   4.409  15.312  0.00  0.00    +0.000 A 
ATOM     10  C   UNL     1       5.942   3.922  13.972  0.00  0.00    +0.000 C 
ATOM     11  C   UNL     1       4.120   3.841  16.451  0.00  0.00    +0.000 A 
ATOM     12  C   UNL     1       3.250   4.523  17.805  0.00  0.00    +0.000 A 
ATOM     13  N   UNL     1       2.333   5.277  19.239  0.00  0.00    +0.000 N 
ATOM     14  O   UNL     1       2.281   4.619  20.501  0.00  0.00    +0.000 OA
ENDROOT
BRANCH   1  16
ATOM     15  N   UNL     1       1.319   9.127  19.418  0.00  0.00    +0.000 N 
ATOM     16  C   UNL     1       1.664   7.957  20.123  0.00  0.00    +0.000 C 
ATOM     17  O   UNL     1       0.972   7.859  21.150  0.00  0.00    +0.000 OA
ATOM     18  H   UNL     1       1.709   9.293  18.509  0.00  0.00    +0.000 HD
BRANCH  15  19
ATOM     19  C   UNL     1       0.223  10.092  19.918  0.00  0.00    +0.000 C 
BRANCH  19  24
ATOM     20  C   UNL     1      -4.240  11.273  16.308  0.00  0.00    +0.000 C 
ATOM     21  C   UNL     1      -3.068  10.958  17.182  0.00  0.00    +0.000 A 
ATOM     22  C   UNL     1      -2.115   9.996  16.835  0.00  0.00    +0.000 A 
ATOM     23  C   UNL     1      -1.040   9.715  17.700  0.00  0.00    +0.000 A 
ATOM     24  C   UNL     1      -0.906  10.393  18.933  0.00  0.00    +0.000 A 
ATOM     25  C   UNL     1      -1.866  11.361  19.235  0.00  0.00    +0.000 A 
ATOM     26  C   UNL     1      -2.929  11.638  18.386  0.00  0.00    +0.000 A 
ENDBRANCH  19  24
ENDBRANCH  15  19
ENDBRANCH   1  16
TORSDOF 3
ENDMDL
MODEL 7
REMARK VINA RESULT:      -8.0      1.000      1.223
REMARK  Name = 
REMARK  6 active torsions:
REMARK  status: ('A' for Active; 'I' for Inactive)
REMARK    1  A    between atoms: C_1  and  C_2
REMARK    2  A    between atoms: C_5  and  C_6
REMARK    3  A    between atoms: C_6  and  N_7
REMARK    4  A    between atoms: C_8  and  C_10
REMARK    5  A    between atoms: C_11  and  C_12
REMARK    6  A    between atoms: C_18  and  C_19
REMARK                            x       y       z     vdW  Elec       q    Type
REMARK                         _______ _______ _______ _____ _____    ______ ____
ROOT
ATOM      1  C   UNL     1       6.798   6.041  17.357  0.00  0.00    +0.000 A 
ATOM      2  C   UNL     1       5.533   6.361  17.631  0.00  0.00    +0.000 A 
ATOM      3  C   UNL     1       5.247   6.126  19.145  0.00  0.00    +0.000 C 
ATOM      4  N   UNL     1       4.696   5.775  16.712  0.00  0.00    +0.000 N 
ATOM      5  O   UNL     1       4.863   5.686  15.434  0.00  0.00    +0.000 OA
ATOM      6  C   UNL     1       4.180   4.729  17.266  0.00  0.00    +0.000 A 
ATOM      7  C   UNL     1       2.897   5.163  17.885  0.00  0.00    +0.000 A 
ATOM      8  C   UNL     1       1.925   4.413  18.450  0.00  0.00    +0.000 A 
ATOM      9  C   UNL     1       2.099   3.123  18.111  0.00  0.00    +0.000 A 
ATOM     10  C   UNL     1       0.745   2.360  18.504  0.00  0.00    +0.000 C 
ATOM     11  C   UNL     1       3.570   2.815  17.372  0.00  0.00    +0.000 A 
ATOM     12  C   UNL     1       5.063   3.694  17.134  0.00  0.00    +0.000 A 
ATOM     13  N   UNL     1       6.641   4.652  16.898  0.00  0.00    +0.000 N 
ATOM     14  O   UNL     1       7.284   4.700  15.628  0.00  0.00    +0.000 OA
ENDROOT
BRANCH   1  16
ATOM     15  N   UNL     1       8.099   8.372  17.970  0.00  0.00    +0.000 N 
ATOM     16  C   UNL     1       7.875   6.987  18.096  0.00  0.00    +0.000 C 
ATOM     17  O   UNL     1       8.452   6.553  19.107  0.00  0.00    +0.000 OA
ATOM     18  H   UNL     1       7.607   8.893  17.268  0.00  0.00    +0.000 HD
BRANCH  15  19
ATOM     19  C   UNL     1       8.948   9.162  18.989  0.00  0.00    +0.000 C 
BRANCH  19  24
ATOM     20  C   UNL     1       9.071  14.951  18.084  0.00  0.00    +0.000 C 
ATOM     21  C   UNL     1       9.040  13.483  18.373  0.00  0.00    +0.000 A 
ATOM     22  C   UNL     1       9.631  12.935  19.515  0.00  0.00    +0.000 A 
ATOM     23  C   UNL     1       9.598  11.545  19.736  0.00  0.00    +0.000 A 
ATOM     24  C   UNL     1       8.974  10.678  18.809  0.00  0.00    +0.000 A 
ATOM     25  C   UNL     1       8.377  11.266  17.691  0.00  0.00    +0.000 A 
ATOM     26  C   UNL     1       8.411  12.636  17.469  0.00  0.00    +0.000 A 
ENDBRANCH  19  24
ENDBRANCH  15  19
ENDBRANCH   1  16
TORSDOF 3
ENDMDL
MODEL 8
REMARK VINA RESULT:      -7.9      6.584      9.105
REMARK  Name = 
REMARK  6 active torsions:
REMARK  status: ('A' for Active; 'I' for Inactive)
REMARK    1  A    between atoms: C_1  and  C_2
REMARK    2  A    between atoms: C_5  and  C_6
REMARK    3  A    between atoms: C_6  and  N_7
REMARK    4  A    between atoms: C_8  and  C_10
REMARK    5  A    between atoms: C_11  and  C_12
REMARK    6  A    between atoms: C_18  and  C_19
REMARK                            x       y       z     vdW  Elec       q    Type
REMARK                         _______ _______ _______ _____ _____    ______ ____
ROOT
ATOM      1  C   UNL     1       1.098   9.501  20.121  0.00  0.00    +0.000 A 
ATOM      2  C   UNL     1       0.721   9.768  21.372  0.00  0.00    +0.000 A 
ATOM      3  C   UNL     1      -0.489   8.865  21.760  0.00  0.00    +0.000 C 
ATOM      4  N   UNL     1       0.601  11.126  21.541  0.00  0.00    +0.000 N 
ATOM      5  O   UNL     1       1.396  12.050  21.113  0.00  0.00    +0.000 OA
ATOM      6  C   UNL     1      -0.655  11.417  21.477  0.00  0.00    +0.000 A 
ATOM      7  C   UNL     1      -1.175  11.381  22.872  0.00  0.00    +0.000 A 
ATOM      8  C   UNL     1      -2.386  11.755  23.342  0.00  0.00    +0.000 A 
ATOM      9  C   UNL     1      -3.019  12.494  22.413  0.00  0.00    +0.000 A 
ATOM     10  C   UNL     1      -4.261  13.189  23.152  0.00  0.00    +0.000 C 
ATOM     11  C   UNL     1      -2.272  12.474  20.915  0.00  0.00    +0.000 A 
ATOM     12  C   UNL     1      -0.998  11.544  20.160  0.00  0.00    +0.000 A 
ATOM     13  N   UNL     1       0.357  10.535  19.380  0.00  0.00    +0.000 N 
ATOM     14  O   UNL     1       1.405  11.162  18.647  0.00  0.00    +0.000 OA
ENDROOT
BRANCH   1  16
ATOM     15  N   UNL     1       2.314   7.420  18.819  0.00  0.00    +0.000 N 
ATOM     16  C   UNL     1       1.666   8.005  19.925  0.00  0.00    +0.000 C 
ATOM     17  O   UNL     1       1.811   7.289  20.930  0.00  0.00    +0.000 OA
ATOM     18  H   UNL     1       2.386   7.931  17.959  0.00  0.00    +0.000 HD
BRANCH  15  19
ATOM     19  C   UNL     1       3.076   6.083  18.928  0.00  0.00    +0.000 C 
BRANCH  19  24
ATOM     20  C   UNL     1       6.303   4.358  14.350  0.00  0.00    +0.000 C 
ATOM     21  C   UNL     1       5.467   4.848  15.490  0.00  0.00    +0.000 A 
ATOM     22  C   UNL     1       5.322   6.208  15.779  0.00  0.00    +0.000 A 
ATOM     23  C   UNL     1       4.543   6.623  16.875  0.00  0.00    +0.000 A 
ATOM     24  C   UNL     1       3.899   5.678  17.706  0.00  0.00    +0.000 A 
ATOM     25  C   UNL     1       4.051   4.330  17.374  0.00  0.00    +0.000 A 
ATOM     26  C   UNL     1       4.821   3.917  16.294  0.00  0.00    +0.000 A 
ENDBRANCH  19  24
ENDBRANCH  15  19
ENDBRANCH   1  16
TORSDOF 3
ENDMDL
MODEL 9
REMARK VINA RESULT:      -7.9      1.868      2.414
REMARK  Name = 
REMARK  6 active torsions:
REMARK  status: ('A' for Active; 'I' for Inactive)
REMARK    1  A    between atoms: C_1  and  C_2
REMARK    2  A    between atoms: C_5  and  C_6
REMARK    3  A    between atoms: C_6  and  N_7
REMARK    4  A    between atoms: C_8  and  C_10
REMARK    5  A    between atoms: C_11  and  C_12
REMARK    6  A    between atoms: C_18  and  C_19
REMARK                            x       y       z     vdW  Elec       q    Type
REMARK                         _______ _______ _______ _____ _____    ______ ____
ROOT
ATOM      1  C   UNL     1       6.991   6.380  18.238  0.00  0.00    +0.000 A 
ATOM      2  C   UNL     1       6.185   5.782  17.361  0.00  0.00    +0.000 A 
ATOM      3  C   UNL     1       4.950   6.690  17.078  0.00  0.00    +0.000 C 
ATOM      4  N   UNL     1       5.963   4.482  17.745  0.00  0.00    +0.000 N 
ATOM      5  O   UNL     1       6.824   3.634  18.204  0.00  0.00    +0.000 OA
ATOM      6  C   UNL     1       4.802   4.435  18.308  0.00  0.00    +0.000 A 
ATOM      7  C   UNL     1       3.822   4.094  17.240  0.00  0.00    +0.000 A 
ATOM      8  C   UNL     1       2.510   3.787  17.350  0.00  0.00    +0.000 A 
ATOM      9  C   UNL     1       2.222   3.507  18.634  0.00  0.00    +0.000 A 
ATOM     10  C   UNL     1       0.774   2.818  18.636  0.00  0.00    +0.000 C 
ATOM     11  C   UNL     1       3.452   3.897  19.699  0.00  0.00    +0.000 A 
ATOM     12  C   UNL     1       4.944   4.806  19.616  0.00  0.00    +0.000 A 
ATOM     13  N   UNL     1       6.525   5.781  19.499  0.00  0.00    +0.000 N 
ATOM     14  O   UNL     1       7.741   5.270  20.035  0.00  0.00    +0.000 OA
ENDROOT
BRANCH   1  16
ATOM     15  N   UNL     1       7.923   8.954  18.352  0.00  0.00    +0.000 N 
ATOM     16  C   UNL     1       7.646   7.745  17.683  0.00  0.00    +0.000 C 
ATOM     17  O   UNL     1       8.239   7.718  16.592  0.00  0.00    +0.000 OA
ATOM     18  H   UNL     1       7.610   9.082  19.297  0.00  0.00    +0.000 HD
BRANCH  15  19
ATOM     19  C   UNL     1       8.846  10.033  17.748  0.00  0.00    +0.000 C 
BRANCH  19  24
ATOM     20  C   UNL     1      10.525  14.475  21.183  0.00  0.00    +0.000 C 
ATOM     21  C   UNL     1      10.077  13.313  20.354  0.00  0.00    +0.000 A 
ATOM     22  C   UNL     1      10.049  12.007  20.852  0.00  0.00    +0.000 A 
ATOM     23  C   UNL     1       9.642  10.940  20.029  0.00  0.00    +0.000 A 
ATOM     24  C   UNL     1       9.258  11.166  18.687  0.00  0.00    +0.000 A 
ATOM     25  C   UNL     1       9.279  12.486  18.232  0.00  0.00    +0.000 A 
ATOM     26  C   UNL     1       9.684  13.540  19.041  0.00  0.00    +0.000 A 
ENDBRANCH  19  24
ENDBRANCH  15  19
ENDBRANCH   1  16
TORSDOF 3
ENDMDL
