MODEL 1
REMARK VINA RESULT:      -8.7      0.000      0.000
REMARK  Name = 
REMARK  5 active torsions:
REMARK  status: ('A' for Active; 'I' for Inactive)
REMARK    1  A    between atoms: C_1  and  N_2
REMARK    2  A    between atoms: C_8  and  O_9
REMARK    3  A    between atoms: O_9  and  C_10
REMARK    4  A    between atoms: C_10  and  C_11
REMARK    5  A    between atoms: C_10  and  C_17
REMARK                            x       y       z     vdW  Elec       q    Type
REMARK                         _______ _______ _______ _____ _____    ______ ____
ROOT
ATOM      1  C   UNL     1       2.634   6.415  18.304  0.00  0.00    +0.000 C 
ENDROOT
BRANCH   1   2
ATOM      2  C   UNL     1       1.999   7.714  18.797  0.00  0.00    +0.000 A 
ATOM      3  C   UNL     1       1.733   8.761  17.898  0.00  0.00    +0.000 A 
ATOM      4  C   UNL     1       1.148   9.952  18.338  0.00  0.00    +0.000 A 
ATOM      5  C   UNL     1       0.811  10.113  19.681  0.00  0.00    +0.000 A 
ATOM      6  C   UNL     1       1.070   9.085  20.582  0.00  0.00    +0.000 A 
ATOM      7 BR   UNL     1       0.601   9.290  22.403  0.00  0.00    +0.000 Br
ATOM      8  C   UNL     1       1.665   7.900  20.152  0.00  0.00    +0.000 A 
ENDBRANCH   1   2
BRANCH   1   9
ATOM      9  C   UNL     1       2.255   5.186  19.114  0.00  0.00    +0.000 A 
ATOM     10  C   UNL     1       1.416   4.190  18.589  0.00  0.00    +0.000 A 
ATOM     11  C   UNL     1       0.939   3.162  19.398  0.00  0.00    +0.000 A 
ATOM     12  C   UNL     1       1.285   3.114  20.745  0.00  0.00    +0.000 A 
ATOM     13  C   UNL     1       2.139   4.077  21.277  0.00  0.00    +0.000 A 
ATOM     14  C   UNL     1       2.628   5.101  20.466  0.00  0.00    +0.000 A 
ENDBRANCH   1   9
BRANCH   1  15
ATOM     15  O   UNL     1       4.055   6.600  18.298  0.00  0.00    +0.000 OA
BRANCH  15  23
ATOM     16  C   UNL     1       7.402   4.818  15.356  0.00  0.00    +0.000 C 
ATOM     17  N   UNL     1       7.012   4.681  16.744  0.00  0.00    +0.000 NA
ATOM     18  C   UNL     1       5.641   4.225  16.996  0.00  0.00    +0.000 C 
ATOM     19  C   UNL     1       5.676   4.180  18.531  0.00  0.00    +0.000 C 
ATOM     20  C   UNL     1       6.682   5.275  18.925  0.00  0.00    +0.000 C 
ATOM     21  C   UNL     1       7.140   5.871  17.589  0.00  0.00    +0.000 C 
ATOM     22  C   UNL     1       6.225   7.026  17.133  0.00  0.00    +0.000 C 
ATOM     23  C   UNL     1       4.739   6.629  17.038  0.00  0.00    +0.000 C 
ATOM     24  C   UNL     1       4.593   5.216  16.446  0.00  0.00    +0.000 C 
ENDBRANCH  15  23
ENDBRANCH   1  15
TORSDOF 4
ENDMDL
MODEL 2
REMARK VINA RESULT:      -8.7      0.188      1.001
REMARK  Name = 
REMARK  5 active torsions:
REMARK  status: ('A' for Active; 'I' for Inactive)
REMARK    1  A    between atoms: C_1  and  N_2
REMARK    2  A    between atoms: C_8  and  O_9
REMARK    3  A    between atoms: O_9  and  C_10
REMARK    4  A    between atoms: C_10  and  C_11
REMARK    5  A    between atoms: C_10  and  C_17
REMARK                            x       y       z     vdW  Elec       q    Type
REMARK                         _______ _______ _______ _____ _____    ______ ____
ROOT
ATOM      1  C   UNL     1       2.536   6.474  18.333  0.00  0.00    +0.000 C 
ENDROOT
BRANCH   1   2
ATOM      2  C   UNL     1       1.945   7.795  18.819  0.00  0.00    +0.000 A 
ATOM      3  C   UNL     1       1.760   8.863  17.924  0.00  0.00    +0.000 A 
ATOM      4  C   UNL     1       1.216  10.075  18.358  0.00  0.00    +0.000 A 
ATOM      5  C   UNL     1       0.839  10.238  19.690  0.00  0.00    +0.000 A 
ATOM      6  C   UNL     1       1.018   9.189  20.587  0.00  0.00    +0.000 A 
ATOM      7 BR   UNL     1       0.495   9.397  22.393  0.00  0.00    +0.000 Br
ATOM      8  C   UNL     1       1.573   7.982  20.164  0.00  0.00    +0.000 A 
ENDBRANCH   1   2
BRANCH   1   9
ATOM      9  C   UNL     1       2.098   5.259  19.133  0.00  0.00    +0.000 A 
ATOM     10  C   UNL     1       2.479   5.084  20.474  0.00  0.00    +0.000 A 
ATOM     11  C   UNL     1       2.218   3.890  21.140  0.00  0.00    +0.000 A 
ATOM     12  C   UNL     1       1.579   2.846  20.477  0.00  0.00    +0.000 A 
ATOM     13  C   UNL     1       1.168   3.010  19.156  0.00  0.00    +0.000 A 
ATOM     14  C   UNL     1       1.418   4.210  18.491  0.00  0.00    +0.000 A 
ENDBRANCH   1   9
BRANCH   1  15
ATOM     15  O   UNL     1       3.964   6.603  18.348  0.00  0.00    +0.000 OA
BRANCH  15  23
ATOM     16  C   UNL     1       7.342   4.716  15.509  0.00  0.00    +0.000 C 
ATOM     17  N   UNL     1       6.928   4.618  16.894  0.00  0.00    +0.000 NA
ATOM     18  C   UNL     1       5.549   4.181  17.134  0.00  0.00    +0.000 C 
ATOM     19  C   UNL     1       5.557   4.175  18.670  0.00  0.00    +0.000 C 
ATOM     20  C   UNL     1       6.567   5.270  19.053  0.00  0.00    +0.000 C 
ATOM     21  C   UNL     1       7.053   5.828  17.710  0.00  0.00    +0.000 C 
ATOM     22  C   UNL     1       6.157   6.979  17.210  0.00  0.00    +0.000 C 
ATOM     23  C   UNL     1       4.669   6.594  17.100  0.00  0.00    +0.000 C 
ATOM     24  C   UNL     1       4.519   5.167  16.541  0.00  0.00    +0.000 C 
ENDBRANCH  15  23
ENDBRANCH   1  15
TORSDOF 4
ENDMDL
MODEL 3
REMARK VINA RESULT:      -8.6      0.685      1.935
REMARK  Name = 
REMARK  5 active torsions:
REMARK  status: ('A' for Active; 'I' for Inactive)
REMARK    1  A    between atoms: C_1  and  N_2
REMARK    2  A    between atoms: C_8  and  O_9
REMARK    3  A    between atoms: O_9  and  C_10
REMARK    4  A    between atoms: C_10  and  C_11
REMARK    5  A    between atoms: C_10  and  C_17
REMARK                            x       y       z     vdW  Elec       q    Type
REMARK                         _______ _______ _______ _____ _____    ______ ____
ROOT
ATOM      1  C   UNL     1       2.691   5.924  18.684  0.00  0.00    +0.000 C 
ENDROOT
BRANCH   1   2
ATOM      2  C   UNL     1       2.147   7.322  18.971  0.00  0.00    +0.000 A 
ATOM      3  C   UNL     1       2.078   8.281  17.947  0.00  0.00    +0.000 A 
ATOM      4  C   UNL     1       1.577   9.562  18.198  0.00  0.00    +0.000 A 
ATOM      5  C   UNL     1       1.129   9.903  19.474  0.00  0.00    +0.000 A 
ATOM      6  C   UNL     1       1.193   8.962  20.497  0.00  0.00    +0.000 A 
ATOM      7 BR   UNL     1       0.574   9.411  22.227  0.00  0.00    +0.000 Br
ATOM      8  C   UNL     1       1.704   7.687  20.257  0.00  0.00    +0.000 A 
ENDBRANCH   1   2
BRANCH   1   9
ATOM      9  C   UNL     1       2.102   4.830  19.559  0.00  0.00    +0.000 A 
ATOM     10  C   UNL     1       2.493   4.669  20.898  0.00  0.00    +0.000 A 
ATOM     11  C   UNL     1       2.078   3.562  21.634  0.00  0.00    +0.000 A 
ATOM     12  C   UNL     1       1.272   2.593  21.043  0.00  0.00    +0.000 A 
ATOM     13  C   UNL     1       0.851   2.749  19.725  0.00  0.00    +0.000 A 
ATOM     14  C   UNL     1       1.256   3.863  18.990  0.00  0.00    +0.000 A 
ENDBRANCH   1   9
BRANCH   1  15
ATOM     15  O   UNL     1       4.116   5.974  18.826  0.00  0.00    +0.000 OA
BRANCH  15  23
ATOM     16  C   UNL     1       7.464   4.423  15.757  0.00  0.00    +0.000 C 
ATOM     17  N   UNL     1       6.698   5.630  15.987  0.00  0.00    +0.000 NA
ATOM     18  C   UNL     1       6.847   6.258  17.303  0.00  0.00    +0.000 C 
ATOM     19  C   UNL     1       5.934   7.476  17.099  0.00  0.00    +0.000 C 
ATOM     20  C   UNL     1       4.869   6.995  16.098  0.00  0.00    +0.000 C 
ATOM     21  C   UNL     1       5.246   5.537  15.812  0.00  0.00    +0.000 C 
ATOM     22  C   UNL     1       4.587   4.568  16.814  0.00  0.00    +0.000 C 
ATOM     23  C   UNL     1       4.900   4.901  18.285  0.00  0.00    +0.000 C 
ATOM     24  C   UNL     1       6.369   5.331  18.443  0.00  0.00    +0.000 C 
ENDBRANCH  15  23
ENDBRANCH   1  15
TORSDOF 4
ENDMDL
MODEL 4
REMARK VINA RESULT:      -8.4      3.990      6.929
REMARK  Name = 
REMARK  5 active torsions:
REMARK  status: ('A' for Active; 'I' for Inactive)
REMARK    1  A    between atoms: C_1  and  N_2
REMARK    2  A    between atoms: C_8  and  O_9
REMARK    3  A    between atoms: O_9  and  C_10
REMARK    4  A    between atoms: C_10  and  C_11
REMARK    5  A    between atoms: C_10  and  C_17
REMARK                            x       y       z     vdW  Elec       q    Type
REMARK                         _______ _______ _______ _____ _____    ______ ____
ROOT
ATOM      1  C   UNL     1       5.153   5.034  16.309  0.00  0.00    +0.000 C 
ENDROOT
BRANCH   1   2
ATOM      2  C   UNL     1       5.707   4.677  14.931  0.00  0.00    +0.000 A 
ATOM      3  C   UNL     1       7.062   4.897  14.631  0.00  0.00    +0.000 A 
ATOM      4  C   UNL     1       7.579   4.570  13.375  0.00  0.00    +0.000 A 
ATOM      5  C   UNL     1       6.754   4.009  12.400  0.00  0.00    +0.000 A 
ATOM      6  C   UNL     1       5.410   3.788  12.684  0.00  0.00    +0.000 A 
ATOM      7 BR   UNL     1       4.288   3.014  11.373  0.00  0.00    +0.000 Br
ATOM      8  C   UNL     1       4.885   4.124  13.931  0.00  0.00    +0.000 A 
ENDBRANCH   1   2
BRANCH   1   9
ATOM      9  C   UNL     1       6.117   5.812  17.189  0.00  0.00    +0.000 A 
ATOM     10  C   UNL     1       6.374   7.175  16.972  0.00  0.00    +0.000 A 
ATOM     11  C   UNL     1       7.384   7.831  17.672  0.00  0.00    +0.000 A 
ATOM     12  C   UNL     1       8.160   7.134  18.594  0.00  0.00    +0.000 A 
ATOM     13  C   UNL     1       7.902   5.788  18.843  0.00  0.00    +0.000 A 
ATOM     14  C   UNL     1       6.883   5.134  18.153  0.00  0.00    +0.000 A 
ENDBRANCH   1   9
BRANCH   1  15
ATOM     15  O   UNL     1       4.755   3.814  16.948  0.00  0.00    +0.000 OA
BRANCH  15  23
ATOM     16  C   UNL     1       0.726   2.938  19.405  0.00  0.00    +0.000 C 
ATOM     17  N   UNL     1       2.135   3.121  19.686  0.00  0.00    +0.000 NA
ATOM     18  C   UNL     1       2.724   4.397  19.270  0.00  0.00    +0.000 C 
ATOM     19  C   UNL     1       4.156   4.186  19.784  0.00  0.00    +0.000 C 
ATOM     20  C   UNL     1       4.373   2.665  19.702  0.00  0.00    +0.000 C 
ATOM     21  C   UNL     1       3.055   2.122  19.139  0.00  0.00    +0.000 C 
ATOM     22  C   UNL     1       3.058   2.097  17.596  0.00  0.00    +0.000 C 
ATOM     23  C   UNL     1       3.363   3.468  16.962  0.00  0.00    +0.000 C 
ATOM     24  C   UNL     1       2.657   4.593  17.739  0.00  0.00    +0.000 C 
ENDBRANCH  15  23
ENDBRANCH   1  15
TORSDOF 4
ENDMDL
MODEL 5
REMARK VINA RESULT:      -8.4      0.762      1.714
REMARK  Name = 
REMARK  5 active torsions:
REMARK  status: ('A' for Active; 'I' for Inactive)
REMARK    1  A    between atoms: C_1  and  N_2
REMARK    2  A    between atoms: C_8  and  O_9
REMARK    3  A    between atoms: O_9  and  C_10
REMARK    4  A    between atoms: C_10  and  C_11
REMARK    5  A    between atoms: C_10  and  C_17
REMARK                            x       y       z     vdW  Elec       q    Type
REMARK                         _______ _______ _______ _____ _____    ______ ____
ROOT
ATOM      1  C   UNL     1       2.859   5.738  18.596  0.00  0.00    +0.000 C 
ENDROOT
BRANCH   1   2
ATOM      2  C   UNL     1       2.277   7.115  18.910  0.00  0.00    +0.000 A 
ATOM      3  C   UNL     1       2.120   8.069  17.890  0.00  0.00    +0.000 A 
ATOM      4  C   UNL     1       1.585   9.330  18.167  0.00  0.00    +0.000 A 
ATOM      5  C   UNL     1       1.188   9.656  19.463  0.00  0.00    +0.000 A 
ATOM      6  C   UNL     1       1.339   8.720  20.482  0.00  0.00    +0.000 A 
ATOM      7 BR   UNL     1       0.790   9.149  22.240  0.00  0.00    +0.000 Br
ATOM      8  C   UNL     1       1.885   7.465  20.216  0.00  0.00    +0.000 A 
ENDBRANCH   1   2
BRANCH   1   9
ATOM      9  C   UNL     1       2.318   4.615  19.465  0.00  0.00    +0.000 A 
ATOM     10  C   UNL     1       1.262   3.795  19.035  0.00  0.00    +0.000 A 
ATOM     11  C   UNL     1       0.663   2.889  19.906  0.00  0.00    +0.000 A 
ATOM     12  C   UNL     1       1.102   2.791  21.223  0.00  0.00    +0.000 A 
ATOM     13  C   UNL     1       2.166   3.576  21.661  0.00  0.00    +0.000 A 
ATOM     14  C   UNL     1       2.775   4.476  20.787  0.00  0.00    +0.000 A 
ENDBRANCH   1   9
BRANCH   1  15
ATOM     15  O   UNL     1       4.284   5.830  18.716  0.00  0.00    +0.000 OA
BRANCH  15  23
ATOM     16  C   UNL     1       7.562   4.594  15.435  0.00  0.00    +0.000 C 
ATOM     17  N   UNL     1       6.749   5.749  15.756  0.00  0.00    +0.000 NA
ATOM     18  C   UNL     1       6.926   6.322  17.094  0.00  0.00    +0.000 C 
ATOM     19  C   UNL     1       5.947   7.500  16.988  0.00  0.00    +0.000 C 
ATOM     20  C   UNL     1       4.863   7.013  16.011  0.00  0.00    +0.000 C 
ATOM     21  C   UNL     1       5.297   5.590  15.639  0.00  0.00    +0.000 C 
ATOM     22  C   UNL     1       4.732   4.543  16.620  0.00  0.00    +0.000 C 
ATOM     23  C   UNL     1       5.094   4.824  18.091  0.00  0.00    +0.000 C 
ATOM     24  C   UNL     1       6.546   5.321  18.206  0.00  0.00    +0.000 C 
ENDBRANCH  15  23
ENDBRANCH   1  15
TORSDOF 4
ENDMDL
MODEL 6
REMARK VINA RESULT:      -8.3      0.940      1.358
REMARK  Name = 
REMARK  5 active torsions:
REMARK  status: ('A' for Active; 'I' for Inactive)
REMARK    1  A    between atoms: C_1  and  N_2
REMARK    2  A    between atoms: C_8  and  O_9
REMARK    3  A    between atoms: O_9  and  C_10
REMARK    4  A    between atoms: C_10  and  C_11
REMARK    5  A    between atoms: C_10  and  C_17
REMARK                            x       y       z     vdW  Elec       q    Type
REMARK                         _______ _______ _______ _____ _____    ______ ____
ROOT
ATOM      1  C   UNL     1       2.650   5.546  18.361  0.00  0.00    +0.000 C 
ENDROOT
BRANCH   1   2
ATOM      2  C   UNL     1       2.201   6.964  18.710  0.00  0.00    +0.000 A 
ATOM      3  C   UNL     1       2.054   7.931  17.702  0.00  0.00    +0.000 A 
ATOM      4  C   UNL     1       1.640   9.230  18.011  0.00  0.00    +0.000 A 
ATOM      5  C   UNL     1       1.355   9.582  19.330  0.00  0.00    +0.000 A 
ATOM      6  C   UNL     1       1.498   8.633  20.338  0.00  0.00    +0.000 A 
ATOM      7 BR   UNL     1       1.100   9.097  22.128  0.00  0.00    +0.000 Br
ATOM      8  C   UNL     1       1.924   7.340  20.039  0.00  0.00    +0.000 A 
ENDBRANCH   1   2
BRANCH   1   9
ATOM      9  C   UNL     1       2.442   4.531  19.472  0.00  0.00    +0.000 A 
ATOM     10  C   UNL     1       3.514   3.804  20.015  0.00  0.00    +0.000 A 
ATOM     11  C   UNL     1       3.287   2.758  20.905  0.00  0.00    +0.000 A 
ATOM     12  C   UNL     1       1.987   2.415  21.263  0.00  0.00    +0.000 A 
ATOM     13  C   UNL     1       0.912   3.142  20.758  0.00  0.00    +0.000 A 
ATOM     14  C   UNL     1       1.137   4.198  19.875  0.00  0.00    +0.000 A 
ENDBRANCH   1   9
BRANCH   1  15
ATOM     15  O   UNL     1       4.031   5.608  17.983  0.00  0.00    +0.000 OA
BRANCH  15  23
ATOM     16  C   UNL     1       7.373   4.823  14.629  0.00  0.00    +0.000 C 
ATOM     17  N   UNL     1       7.325   5.206  16.025  0.00  0.00    +0.000 NA
ATOM     18  C   UNL     1       6.670   4.265  16.938  0.00  0.00    +0.000 C 
ATOM     19  C   UNL     1       6.880   5.019  18.260  0.00  0.00    +0.000 C 
ATOM     20  C   UNL     1       6.901   6.504  17.857  0.00  0.00    +0.000 C 
ATOM     21  C   UNL     1       6.691   6.489  16.338  0.00  0.00    +0.000 C 
ATOM     22  C   UNL     1       5.194   6.520  15.967  0.00  0.00    +0.000 C 
ATOM     23  C   UNL     1       4.380   5.381  16.610  0.00  0.00    +0.000 C 
ATOM     24  C   UNL     1       5.178   4.066  16.590  0.00  0.00    +0.000 C 
ENDBRANCH  15  23
ENDBRANCH   1  15
TORSDOF 4
ENDMDL
MODEL 7
REMARK VINA RESULT:      -8.3      3.946      6.969
REMARK  Name = 
REMARK  5 active torsions:
REMARK  status: ('A' for Active; 'I' for Inactive)
REMARK    1  A    between atoms: C_1  and  N_2
REMARK    2  A    between atoms: C_8  and  O_9
REMARK    3  A    between atoms: O_9  and  C_10
REMARK    4  A    between atoms: C_10  and  C_11
REMARK    5  A    between atoms: C_10  and  C_17
REMARK                            x       y       z     vdW  Elec       q    Type
REMARK                         _______ _______ _______ _____ _____    ______ ____
ROOT
ATOM      1  C   UNL     1       5.374   5.026  16.173  0.00  0.00    +0.000 C 
ENDROOT
BRANCH   1   2
ATOM      2  C   UNL     1       5.820   4.635  14.765  0.00  0.00    +0.000 A 
ATOM      3  C   UNL     1       7.160   4.796  14.374  0.00  0.00    +0.000 A 
ATOM      4  C   UNL     1       7.579   4.438  13.090  0.00  0.00    +0.000 A 
ATOM      5  C   UNL     1       6.669   3.905  12.177  0.00  0.00    +0.000 A 
ATOM      6  C   UNL     1       5.339   3.742  12.552  0.00  0.00    +0.000 A 
ATOM      7 BR   UNL     1       4.101   3.006  11.325  0.00  0.00    +0.000 Br
ATOM      8  C   UNL     1       4.911   4.110  13.827  0.00  0.00    +0.000 A 
ENDBRANCH   1   2
BRANCH   1   9
ATOM      9  C   UNL     1       6.455   5.683  17.013  0.00  0.00    +0.000 A 
ATOM     10  C   UNL     1       7.151   4.971  18.004  0.00  0.00    +0.000 A 
ATOM     11  C   UNL     1       8.012   5.626  18.881  0.00  0.00    +0.000 A 
ATOM     12  C   UNL     1       8.188   7.004  18.788  0.00  0.00    +0.000 A 
ATOM     13  C   UNL     1       7.529   7.723  17.793  0.00  0.00    +0.000 A 
ATOM     14  C   UNL     1       6.675   7.067  16.907  0.00  0.00    +0.000 A 
ENDBRANCH   1   9
BRANCH   1  15
ATOM     15  O   UNL     1       4.879   3.844  16.816  0.00  0.00    +0.000 OA
BRANCH  15  23
ATOM     16  C   UNL     1       0.916   3.413  19.489  0.00  0.00    +0.000 C 
ATOM     17  N   UNL     1       2.349   3.440  19.694  0.00  0.00    +0.000 NA
ATOM     18  C   UNL     1       3.052   4.644  19.241  0.00  0.00    +0.000 C 
ATOM     19  C   UNL     1       4.478   4.275  19.678  0.00  0.00    +0.000 C 
ATOM     20  C   UNL     1       4.522   2.740  19.592  0.00  0.00    +0.000 C 
ATOM     21  C   UNL     1       3.124   2.346  19.102  0.00  0.00    +0.000 C 
ATOM     22  C   UNL     1       3.041   2.324  17.562  0.00  0.00    +0.000 C 
ATOM     23  C   UNL     1       3.460   3.653  16.907  0.00  0.00    +0.000 C 
ATOM     24  C   UNL     1       2.924   4.848  17.716  0.00  0.00    +0.000 C 
ENDBRANCH  15  23
ENDBRANCH   1  15
TORSDOF 4
ENDMDL
MODEL 8
REMARK VINA RESULT:      -8.2      1.047      1.451
REMARK  Name = 
REMARK  5 active torsions:
REMARK  status: ('A' for Active; 'I' for Inactive)
REMARK    1  A    between atoms: C_1  and  N_2
REMARK    2  A    between atoms: C_8  and  O_9
REMARK    3  A    between atoms: O_9  and  C_10
REMARK    4  A    between atoms: C_10  and  C_11
REMARK    5  A    between atoms: C_10  and  C_17
REMARK                            x       y       z     vdW  Elec       q    Type
REMARK                         _______ _______ _______ _____ _____    ______ ____
ROOT
ATOM      1  C   UNL     1       2.435   6.322  18.732  0.00  0.00    +0.000 C 
ENDROOT
BRANCH   1   2
ATOM      2  C   UNL     1       1.873   7.542  19.460  0.00  0.00    +0.000 A 
ATOM      3  C   UNL     1       1.467   7.444  20.802  0.00  0.00    +0.000 A 
ATOM      4  C   UNL     1       0.955   8.556  21.477  0.00  0.00    +0.000 A 
ATOM      5  C   UNL     1       0.848   9.785  20.827  0.00  0.00    +0.000 A 
ATOM      6  C   UNL     1       1.245   9.894  19.498  0.00  0.00    +0.000 A 
ATOM      7 BR   UNL     1       1.116  11.560  18.613  0.00  0.00    +0.000 Br
ATOM      8  C   UNL     1       1.743   8.786  18.814  0.00  0.00    +0.000 A 
ENDBRANCH   1   2
BRANCH   1   9
ATOM      9  C   UNL     1       2.139   4.996  19.412  0.00  0.00    +0.000 A 
ATOM     10  C   UNL     1       1.314   4.030  18.812  0.00  0.00    +0.000 A 
ATOM     11  C   UNL     1       0.911   2.899  19.516  0.00  0.00    +0.000 A 
ATOM     12  C   UNL     1       1.318   2.716  20.835  0.00  0.00    +0.000 A 
ATOM     13  C   UNL     1       2.159   3.648  21.438  0.00  0.00    +0.000 A 
ATOM     14  C   UNL     1       2.573   4.775  20.730  0.00  0.00    +0.000 A 
ENDBRANCH   1   9
BRANCH   1  15
ATOM     15  O   UNL     1       3.848   6.514  18.589  0.00  0.00    +0.000 OA
BRANCH  15  23
ATOM     16  C   UNL     1       7.061   4.755  15.488  0.00  0.00    +0.000 C 
ATOM     17  N   UNL     1       6.806   4.702  16.913  0.00  0.00    +0.000 NA
ATOM     18  C   UNL     1       5.505   4.166  17.324  0.00  0.00    +0.000 C 
ATOM     19  C   UNL     1       5.676   4.248  18.848  0.00  0.00    +0.000 C 
ATOM     20  C   UNL     1       6.620   5.444  19.065  0.00  0.00    +0.000 C 
ATOM     21  C   UNL     1       6.909   5.962  17.652  0.00  0.00    +0.000 C 
ATOM     22  C   UNL     1       5.866   7.005  17.199  0.00  0.00    +0.000 C 
ATOM     23  C   UNL     1       4.416   6.492  17.272  0.00  0.00    +0.000 C 
ATOM     24  C   UNL     1       4.334   5.028  16.803  0.00  0.00    +0.000 C 
ENDBRANCH  15  23
ENDBRANCH   1  15
TORSDOF 4
ENDMDL
MODEL 9
REMARK VINA RESULT:      -8.2      1.025      1.308
REMARK  Name = 
REMARK  5 active torsions:
REMARK  status: ('A' for Active; 'I' for Inactive)
REMARK    1  A    between atoms: C_1  and  N_2
REMARK    2  A    between atoms: C_8  and  O_9
REMARK    3  A    between atoms: O_9  and  C_10
REMARK    4  A    between atoms: C_10  and  C_11
REMARK    5  A    between atoms: C_10  and  C_17
REMARK                            x       y       z     vdW  Elec       q    Type
REMARK                         _______ _______ _______ _____ _____    ______ ____
ROOT
ATOM      1  C   UNL     1       2.709   5.353  18.198  0.00  0.00    +0.000 C 
ENDROOT
BRANCH   1   2
ATOM      2  C   UNL     1       2.281   6.770  18.577  0.00  0.00    +0.000 A 
ATOM      3  C   UNL     1       2.153   7.761  17.589  0.00  0.00    +0.000 A 
ATOM      4  C   UNL     1       1.758   9.059  17.925  0.00  0.00    +0.000 A 
ATOM      5  C   UNL     1       1.474   9.386  19.251  0.00  0.00    +0.000 A 
ATOM      6  C   UNL     1       1.598   8.413  20.238  0.00  0.00    +0.000 A 
ATOM      7 BR   UNL     1       1.201   8.843  22.037  0.00  0.00    +0.000 Br
ATOM      8  C   UNL     1       2.005   7.120  19.912  0.00  0.00    +0.000 A 
ENDBRANCH   1   2
BRANCH   1   9
ATOM      9  C   UNL     1       2.452   4.312  19.274  0.00  0.00    +0.000 A 
ATOM     10  C   UNL     1       1.165   4.087  19.787  0.00  0.00    +0.000 A 
ATOM     11  C   UNL     1       0.972   3.258  20.889  0.00  0.00    +0.000 A 
ATOM     12  C   UNL     1       2.061   2.646  21.502  0.00  0.00    +0.000 A 
ATOM     13  C   UNL     1       3.343   2.834  20.990  0.00  0.00    +0.000 A 
ATOM     14  C   UNL     1       3.537   3.654  19.880  0.00  0.00    +0.000 A 
ENDBRANCH   1   9
BRANCH   1  15
ATOM     15  O   UNL     1       4.100   5.396  17.855  0.00  0.00    +0.000 OA
BRANCH  15  23
ATOM     16  C   UNL     1       7.516   5.018  14.505  0.00  0.00    +0.000 C 
ATOM     17  N   UNL     1       7.428   5.345  15.913  0.00  0.00    +0.000 NA
ATOM     18  C   UNL     1       6.849   4.320  16.787  0.00  0.00    +0.000 C 
ATOM     19  C   UNL     1       6.987   5.040  18.136  0.00  0.00    +0.000 C 
ATOM     20  C   UNL     1       6.885   6.535  17.786  0.00  0.00    +0.000 C 
ATOM     21  C   UNL     1       6.685   6.557  16.267  0.00  0.00    +0.000 C 
ATOM     22  C   UNL     1       5.193   6.475  15.883  0.00  0.00    +0.000 C 
ATOM     23  C   UNL     1       4.475   5.249  16.478  0.00  0.00    +0.000 C 
ATOM     24  C   UNL     1       5.382   4.007  16.418  0.00  0.00    +0.000 C 
ENDBRANCH  15  23
ENDBRANCH   1  15
TORSDOF 4
ENDMDL
