MODEL 1
REMARK VINA RESULT:      -7.7      0.000      0.000
REMARK  Name = 
REMARK  5 active torsions:
REMARK  status: ('A' for Active; 'I' for Inactive)
REMARK    1  A    between atoms: C_1  and  C_2
REMARK    2  A    between atoms: C_2  and  O_4
REMARK    3  A    between atoms: O_4  and  C_5
REMARK    4  A    between atoms: C_10  and  C_11
REMARK    5  A    between atoms: N_13  and  C_14
REMARK                            x       y       z     vdW  Elec       q    Type
REMARK                         _______ _______ _______ _____ _____    ______ ____
ROOT
ATOM      1  C   UNL     1       6.814   4.651  16.816  0.00  0.00    +0.000 A 
ATOM      2  C   UNL     1       7.566   4.623  15.626  0.00  0.00    +0.000 A 
ATOM      3  C   UNL     1       6.941   4.711  14.385  0.00  0.00    +0.000 A 
ATOM      4  C   UNL     1       5.559   4.800  14.314  0.00  0.00    +0.000 A 
ATOM      5  C   UNL     1       4.808   4.790  15.488  0.00  0.00    +0.000 A 
ATOM      6  C   UNL     1       5.413   4.708  16.762  0.00  0.00    +0.000 A 
ENDROOT
BRANCH   6   7
ATOM      7  C   UNL     1       4.461   4.653  17.918  0.00  0.00    +0.000 C 
ATOM      8  O   UNL     1       4.205   5.715  18.484  0.00  0.00    +0.000 OA
ATOM      9  N   UNL     1       3.953   3.425  18.304  0.00  0.00    +0.000 N 
ATOM     10  H   UNL     1       4.344   2.600  17.872  0.00  0.00    +0.000 HD
BRANCH   9  11
ATOM     11  C   UNL     1       3.028   3.221  19.358  0.00  0.00    +0.000 A 
ATOM     12  C   UNL     1       1.681   3.590  19.276  0.00  0.00    +0.000 A 
ATOM     13  C   UNL     1       0.812   3.395  20.352  0.00  0.00    +0.000 A 
ATOM     14  C   UNL     1       1.281   2.824  21.530  0.00  0.00    +0.000 A 
ATOM     15  C   UNL     1       2.616   2.435  21.623  0.00  0.00    +0.000 A 
ATOM     16  C   UNL     1       3.483   2.623  20.537  0.00  0.00    +0.000 A 
ENDBRANCH   9  11
ENDBRANCH   6   7
BRANCH   1  17
ATOM     17  O   UNL     1       7.494   4.487  18.040  0.00  0.00    +0.000 OA
BRANCH  17  19
ATOM     18  C   UNL     1       7.840   6.827  18.125  0.00  0.00    +0.000 C 
ATOM     19  C   UNL     1       7.502   5.589  18.900  0.00  0.00    +0.000 C 
ATOM     20  O   UNL     1       7.280   5.572  20.101  0.00  0.00    +0.000 OA
ENDBRANCH  17  19
ENDBRANCH   1  17
TORSDOF 4
ENDMDL
MODEL 2
REMARK VINA RESULT:      -7.6      1.013      1.488
REMARK  Name = 
REMARK  5 active torsions:
REMARK  status: ('A' for Active; 'I' for Inactive)
REMARK    1  A    between atoms: C_1  and  C_2
REMARK    2  A    between atoms: C_2  and  O_4
REMARK    3  A    between atoms: O_4  and  C_5
REMARK    4  A    between atoms: C_10  and  C_11
REMARK    5  A    between atoms: N_13  and  C_14
REMARK                            x       y       z     vdW  Elec       q    Type
REMARK                         _______ _______ _______ _____ _____    ______ ____
ROOT
ATOM      1  C   UNL     1       6.765   4.489  16.705  0.00  0.00    +0.000 A 
ATOM      2  C   UNL     1       7.593   4.915  15.649  0.00  0.00    +0.000 A 
ATOM      3  C   UNL     1       7.106   4.990  14.347  0.00  0.00    +0.000 A 
ATOM      4  C   UNL     1       5.799   4.614  14.078  0.00  0.00    +0.000 A 
ATOM      5  C   UNL     1       4.987   4.156  15.114  0.00  0.00    +0.000 A 
ATOM      6  C   UNL     1       5.450   4.074  16.446  0.00  0.00    +0.000 A 
ENDROOT
BRANCH   6   7
ATOM      7  C   UNL     1       4.471   3.509  17.429  0.00  0.00    +0.000 C 
ATOM      8  O   UNL     1       4.056   2.371  17.215  0.00  0.00    +0.000 OA
ATOM      9  N   UNL     1       4.065   4.297  18.492  0.00  0.00    +0.000 N 
ATOM     10  H   UNL     1       4.347   5.267  18.491  0.00  0.00    +0.000 HD
BRANCH   9  11
ATOM     11  C   UNL     1       3.168   3.891  19.511  0.00  0.00    +0.000 A 
ATOM     12  C   UNL     1       3.520   2.999  20.530  0.00  0.00    +0.000 A 
ATOM     13  C   UNL     1       2.592   2.605  21.497  0.00  0.00    +0.000 A 
ATOM     14  C   UNL     1       1.294   3.102  21.459  0.00  0.00    +0.000 A 
ATOM     15  C   UNL     1       0.932   4.006  20.462  0.00  0.00    +0.000 A 
ATOM     16  C   UNL     1       1.869   4.406  19.498  0.00  0.00    +0.000 A 
ENDBRANCH   9  11
ENDBRANCH   6   7
BRANCH   1  17
ATOM     17  O   UNL     1       7.332   4.367  17.990  0.00  0.00    +0.000 OA
BRANCH  17  19
ATOM     18  C   UNL     1       7.762   6.670  18.323  0.00  0.00    +0.000 C 
ATOM     19  C   UNL     1       7.118   5.432  18.869  0.00  0.00    +0.000 C 
ATOM     20  O   UNL     1       6.512   5.385  19.928  0.00  0.00    +0.000 OA
ENDBRANCH  17  19
ENDBRANCH   1  17
TORSDOF 4
ENDMDL
MODEL 3
REMARK VINA RESULT:      -7.6      1.170      1.292
REMARK  Name = 
REMARK  5 active torsions:
REMARK  status: ('A' for Active; 'I' for Inactive)
REMARK    1  A    between atoms: C_1  and  C_2
REMARK    2  A    between atoms: C_2  and  O_4
REMARK    3  A    between atoms: O_4  and  C_5
REMARK    4  A    between atoms: C_10  and  C_11
REMARK    5  A    between atoms: N_13  and  C_14
REMARK                            x       y       z     vdW  Elec       q    Type
REMARK                         _______ _______ _______ _____ _____    ______ ____
ROOT
ATOM      1  C   UNL     1       6.638   5.283  15.807  0.00  0.00    +0.000 A 
ATOM      2  C   UNL     1       7.477   5.172  14.682  0.00  0.00    +0.000 A 
ATOM      3  C   UNL     1       7.058   4.487  13.544  0.00  0.00    +0.000 A 
ATOM      4  C   UNL     1       5.810   3.883  13.524  0.00  0.00    +0.000 A 
ATOM      5  C   UNL     1       4.991   3.959  14.649  0.00  0.00    +0.000 A 
ATOM      6  C   UNL     1       5.386   4.650  15.816  0.00  0.00    +0.000 A 
ENDROOT
BRANCH   6   7
ATOM      7  C   UNL     1       4.413   4.590  16.954  0.00  0.00    +0.000 C 
ATOM      8  O   UNL     1       4.005   5.660  17.401  0.00  0.00    +0.000 OA
ATOM      9  N   UNL     1       4.054   3.352  17.457  0.00  0.00    +0.000 N 
ATOM     10  H   UNL     1       4.561   2.545  17.121  0.00  0.00    +0.000 HD
BRANCH   9  11
ATOM     11  C   UNL     1       3.129   3.135  18.510  0.00  0.00    +0.000 A 
ATOM     12  C   UNL     1       1.746   3.065  18.311  0.00  0.00    +0.000 A 
ATOM     13  C   UNL     1       0.871   2.880  19.383  0.00  0.00    +0.000 A 
ATOM     14  C   UNL     1       1.371   2.761  20.676  0.00  0.00    +0.000 A 
ATOM     15  C   UNL     1       2.746   2.811  20.889  0.00  0.00    +0.000 A 
ATOM     16  C   UNL     1       3.623   2.988  19.809  0.00  0.00    +0.000 A 
ENDBRANCH   9  11
ENDBRANCH   6   7
BRANCH   1  17
ATOM     17  O   UNL     1       7.142   5.927  16.954  0.00  0.00    +0.000 OA
BRANCH  17  19
ATOM     18  C   UNL     1       7.163   5.605  19.299  0.00  0.00    +0.000 C 
ATOM     19  C   UNL     1       7.631   5.098  17.969  0.00  0.00    +0.000 C 
ATOM     20  O   UNL     1       8.338   4.113  17.821  0.00  0.00    +0.000 OA
ENDBRANCH  17  19
ENDBRANCH   1  17
TORSDOF 4
ENDMDL
MODEL 4
REMARK VINA RESULT:      -7.5      1.155      1.192
REMARK  Name = 
REMARK  5 active torsions:
REMARK  status: ('A' for Active; 'I' for Inactive)
REMARK    1  A    between atoms: C_1  and  C_2
REMARK    2  A    between atoms: C_2  and  O_4
REMARK    3  A    between atoms: O_4  and  C_5
REMARK    4  A    between atoms: C_10  and  C_11
REMARK    5  A    between atoms: N_13  and  C_14
REMARK                            x       y       z     vdW  Elec       q    Type
REMARK                         _______ _______ _______ _____ _____    ______ ____
ROOT
ATOM      1  C   UNL     1       6.117   5.313  16.497  0.00  0.00    +0.000 A 
ATOM      2  C   UNL     1       7.136   5.543  15.553  0.00  0.00    +0.000 A 
ATOM      3  C   UNL     1       7.134   4.886  14.326  0.00  0.00    +0.000 A 
ATOM      4  C   UNL     1       6.132   3.971  14.036  0.00  0.00    +0.000 A 
ATOM      5  C   UNL     1       5.142   3.712  14.982  0.00  0.00    +0.000 A 
ATOM      6  C   UNL     1       5.115   4.367  16.233  0.00  0.00    +0.000 A 
ENDROOT
BRANCH   6   7
ATOM      7  C   UNL     1       4.017   3.934  17.156  0.00  0.00    +0.000 C 
ATOM      8  O   UNL     1       3.061   3.345  16.653  0.00  0.00    +0.000 OA
ATOM      9  N   UNL     1       4.117   4.244  18.501  0.00  0.00    +0.000 N 
ATOM     10  H   UNL     1       4.865   4.861  18.785  0.00  0.00    +0.000 HD
BRANCH   9  11
ATOM     11  C   UNL     1       3.174   3.880  19.495  0.00  0.00    +0.000 A 
ATOM     12  C   UNL     1       1.934   4.512  19.640  0.00  0.00    +0.000 A 
ATOM     13  C   UNL     1       1.048   4.139  20.653  0.00  0.00    +0.000 A 
ATOM     14  C   UNL     1       1.392   3.123  21.539  0.00  0.00    +0.000 A 
ATOM     15  C   UNL     1       2.616   2.471  21.397  0.00  0.00    +0.000 A 
ATOM     16  C   UNL     1       3.499   2.842  20.372  0.00  0.00    +0.000 A 
ENDBRANCH   9  11
ENDBRANCH   6   7
BRANCH   1  17
ATOM     17  O   UNL     1       6.210   5.953  17.749  0.00  0.00    +0.000 OA
BRANCH  17  19
ATOM     18  C   UNL     1       8.094   7.167  18.507  0.00  0.00    +0.000 C 
ATOM     19  C   UNL     1       7.428   5.828  18.423  0.00  0.00    +0.000 C 
ATOM     20  O   UNL     1       7.902   4.797  18.876  0.00  0.00    +0.000 OA
ENDBRANCH  17  19
ENDBRANCH   1  17
TORSDOF 4
ENDMDL
MODEL 5
REMARK VINA RESULT:      -7.4      2.035      5.862
REMARK  Name = 
REMARK  5 active torsions:
REMARK  status: ('A' for Active; 'I' for Inactive)
REMARK    1  A    between atoms: C_1  and  C_2
REMARK    2  A    between atoms: C_2  and  O_4
REMARK    3  A    between atoms: O_4  and  C_5
REMARK    4  A    between atoms: C_10  and  C_11
REMARK    5  A    between atoms: N_13  and  C_14
REMARK                            x       y       z     vdW  Elec       q    Type
REMARK                         _______ _______ _______ _____ _____    ______ ____
ROOT
ATOM      1  C   UNL     1       5.140   4.871  18.655  0.00  0.00    +0.000 A 
ATOM      2  C   UNL     1       4.475   4.885  19.896  0.00  0.00    +0.000 A 
ATOM      3  C   UNL     1       3.138   5.264  19.986  0.00  0.00    +0.000 A 
ATOM      4  C   UNL     1       2.457   5.659  18.845  0.00  0.00    +0.000 A 
ATOM      5  C   UNL     1       3.121   5.683  17.620  0.00  0.00    +0.000 A 
ATOM      6  C   UNL     1       4.475   5.299  17.497  0.00  0.00    +0.000 A 
ENDROOT
BRANCH   6   7
ATOM      7  C   UNL     1       5.054   5.435  16.121  0.00  0.00    +0.000 C 
ATOM      8  O   UNL     1       5.072   6.562  15.629  0.00  0.00    +0.000 OA
ATOM      9  N   UNL     1       5.503   4.298  15.473  0.00  0.00    +0.000 N 
ATOM     10  H   UNL     1       5.303   3.405  15.901  0.00  0.00    +0.000 HD
BRANCH   9  11
ATOM     11  C   UNL     1       6.095   4.273  14.185  0.00  0.00    +0.000 A 
ATOM     12  C   UNL     1       5.604   3.494  13.132  0.00  0.00    +0.000 A 
ATOM     13  C   UNL     1       6.238   3.479  11.888  0.00  0.00    +0.000 A 
ATOM     14  C   UNL     1       7.379   4.247  11.680  0.00  0.00    +0.000 A 
ATOM     15  C   UNL     1       7.871   5.042  12.713  0.00  0.00    +0.000 A 
ATOM     16  C   UNL     1       7.226   5.062  13.958  0.00  0.00    +0.000 A 
ENDBRANCH   9  11
ENDBRANCH   6   7
BRANCH   1  17
ATOM     17  O   UNL     1       6.511   4.547  18.637  0.00  0.00    +0.000 OA
BRANCH  17  19
ATOM     18  C   UNL     1       7.726   6.557  18.352  0.00  0.00    +0.000 C 
ATOM     19  C   UNL     1       7.371   5.439  19.283  0.00  0.00    +0.000 C 
ATOM     20  O   UNL     1       7.789   5.341  20.427  0.00  0.00    +0.000 OA
ENDBRANCH  17  19
ENDBRANCH   1  17
TORSDOF 4
ENDMDL
MODEL 6
REMARK VINA RESULT:      -7.3      1.581      1.813
REMARK  Name = 
REMARK  5 active torsions:
REMARK  status: ('A' for Active; 'I' for Inactive)
REMARK    1  A    between atoms: C_1  and  C_2
REMARK    2  A    between atoms: C_2  and  O_4
REMARK    3  A    between atoms: O_4  and  C_5
REMARK    4  A    between atoms: C_10  and  C_11
REMARK    5  A    between atoms: N_13  and  C_14
REMARK                            x       y       z     vdW  Elec       q    Type
REMARK                         _______ _______ _______ _____ _____    ______ ____
ROOT
ATOM      1  C   UNL     1       6.893   4.858  15.839  0.00  0.00    +0.000 A 
ATOM      2  C   UNL     1       7.513   4.884  14.576  0.00  0.00    +0.000 A 
ATOM      3  C   UNL     1       6.827   4.476  13.435  0.00  0.00    +0.000 A 
ATOM      4  C   UNL     1       5.525   4.010  13.545  0.00  0.00    +0.000 A 
ATOM      5  C   UNL     1       4.920   3.947  14.799  0.00  0.00    +0.000 A 
ATOM      6  C   UNL     1       5.589   4.359  15.972  0.00  0.00    +0.000 A 
ENDROOT
BRANCH   6   7
ATOM      7  C   UNL     1       4.817   4.175  17.244  0.00  0.00    +0.000 C 
ATOM      8  O   UNL     1       5.430   3.723  18.210  0.00  0.00    +0.000 OA
ATOM      9  N   UNL     1       3.470   4.488  17.256  0.00  0.00    +0.000 N 
ATOM     10  H   UNL     1       3.031   4.706  16.372  0.00  0.00    +0.000 HD
BRANCH   9  11
ATOM     11  C   UNL     1       2.620   4.390  18.386  0.00  0.00    +0.000 A 
ATOM     12  C   UNL     1       2.583   5.352  19.401  0.00  0.00    +0.000 A 
ATOM     13  C   UNL     1       1.750   5.199  20.512  0.00  0.00    +0.000 A 
ATOM     14  C   UNL     1       0.938   4.075  20.622  0.00  0.00    +0.000 A 
ATOM     15  C   UNL     1       0.949   3.116  19.612  0.00  0.00    +0.000 A 
ATOM     16  C   UNL     1       1.780   3.278  18.493  0.00  0.00    +0.000 A 
ENDBRANCH   9  11
ENDBRANCH   6   7
BRANCH   1  17
ATOM     17  O   UNL     1       7.660   5.216  16.966  0.00  0.00    +0.000 OA
BRANCH  17  19
ATOM     18  C   UNL     1       7.915   6.565  18.893  0.00  0.00    +0.000 C 
ATOM     19  C   UNL     1       7.469   6.508  17.464  0.00  0.00    +0.000 C 
ATOM     20  O   UNL     1       7.004   7.458  16.853  0.00  0.00    +0.000 OA
ENDBRANCH  17  19
ENDBRANCH   1  17
TORSDOF 4
ENDMDL
MODEL 7
REMARK VINA RESULT:      -7.3      1.096      1.215
REMARK  Name = 
REMARK  5 active torsions:
REMARK  status: ('A' for Active; 'I' for Inactive)
REMARK    1  A    between atoms: C_1  and  C_2
REMARK    2  A    between atoms: C_2  and  O_4
REMARK    3  A    between atoms: O_4  and  C_5
REMARK    4  A    between atoms: C_10  and  C_11
REMARK    5  A    between atoms: N_13  and  C_14
REMARK                            x       y       z     vdW  Elec       q    Type
REMARK                         _______ _______ _______ _____ _____    ______ ____
ROOT
ATOM      1  C   UNL     1       6.104   5.914  16.054  0.00  0.00    +0.000 A 
ATOM      2  C   UNL     1       7.027   5.804  14.996  0.00  0.00    +0.000 A 
ATOM      3  C   UNL     1       6.986   4.721  14.123  0.00  0.00    +0.000 A 
ATOM      4  C   UNL     1       6.044   3.720  14.310  0.00  0.00    +0.000 A 
ATOM      5  C   UNL     1       5.153   3.806  15.379  0.00  0.00    +0.000 A 
ATOM      6  C   UNL     1       5.166   4.895  16.277  0.00  0.00    +0.000 A 
ENDROOT
BRANCH   6   7
ATOM      7  C   UNL     1       4.180   4.806  17.403  0.00  0.00    +0.000 C 
ATOM      8  O   UNL     1       3.669   5.857  17.785  0.00  0.00    +0.000 OA
ATOM      9  N   UNL     1       3.923   3.568  17.966  0.00  0.00    +0.000 N 
ATOM     10  H   UNL     1       4.507   2.794  17.682  0.00  0.00    +0.000 HD
BRANCH   9  11
ATOM     11  C   UNL     1       3.001   3.325  19.015  0.00  0.00    +0.000 A 
ATOM     12  C   UNL     1       1.615   3.430  18.854  0.00  0.00    +0.000 A 
ATOM     13  C   UNL     1       0.746   3.210  19.925  0.00  0.00    +0.000 A 
ATOM     14  C   UNL     1       1.254   2.878  21.176  0.00  0.00    +0.000 A 
ATOM     15  C   UNL     1       2.630   2.752  21.349  0.00  0.00    +0.000 A 
ATOM     16  C   UNL     1       3.500   2.965  20.269  0.00  0.00    +0.000 A 
ENDBRANCH   9  11
ENDBRANCH   6   7
BRANCH   1  17
ATOM     17  O   UNL     1       6.238   6.996  16.947  0.00  0.00    +0.000 OA
BRANCH  17  19
ATOM     18  C   UNL     1       8.017   8.334  17.750  0.00  0.00    +0.000 C 
ATOM     19  C   UNL     1       7.366   6.985  17.773  0.00  0.00    +0.000 C 
ATOM     20  O   UNL     1       7.783   6.035  18.417  0.00  0.00    +0.000 OA
ENDBRANCH  17  19
ENDBRANCH   1  17
TORSDOF 4
ENDMDL
MODEL 8
REMARK VINA RESULT:      -7.3      1.177      1.664
REMARK  Name = 
REMARK  5 active torsions:
REMARK  status: ('A' for Active; 'I' for Inactive)
REMARK    1  A    between atoms: C_1  and  C_2
REMARK    2  A    between atoms: C_2  and  O_4
REMARK    3  A    between atoms: O_4  and  C_5
REMARK    4  A    between atoms: C_10  and  C_11
REMARK    5  A    between atoms: N_13  and  C_14
REMARK                            x       y       z     vdW  Elec       q    Type
REMARK                         _______ _______ _______ _____ _____    ______ ____
ROOT
ATOM      1  C   UNL     1       6.671   4.975  15.990  0.00  0.00    +0.000 A 
ATOM      2  C   UNL     1       7.478   4.828  14.846  0.00  0.00    +0.000 A 
ATOM      3  C   UNL     1       6.939   4.368  13.648  0.00  0.00    +0.000 A 
ATOM      4  C   UNL     1       5.598   4.023  13.583  0.00  0.00    +0.000 A 
ATOM      5  C   UNL     1       4.803   4.131  14.723  0.00  0.00    +0.000 A 
ATOM      6  C   UNL     1       5.320   4.600  15.951  0.00  0.00    +0.000 A 
ENDROOT
BRANCH   6   7
ATOM      7  C   UNL     1       4.348   4.604  17.092  0.00  0.00    +0.000 C 
ATOM      8  O   UNL     1       3.963   5.699  17.497  0.00  0.00    +0.000 OA
ATOM      9  N   UNL     1       3.966   3.394  17.644  0.00  0.00    +0.000 N 
ATOM     10  H   UNL     1       4.456   2.564  17.340  0.00  0.00    +0.000 HD
BRANCH   9  11
ATOM     11  C   UNL     1       3.039   3.238  18.706  0.00  0.00    +0.000 A 
ATOM     12  C   UNL     1       3.401   3.319  20.055  0.00  0.00    +0.000 A 
ATOM     13  C   UNL     1       2.459   3.129  21.068  0.00  0.00    +0.000 A 
ATOM     14  C   UNL     1       1.135   2.855  20.743  0.00  0.00    +0.000 A 
ATOM     15  C   UNL     1       0.754   2.789  19.404  0.00  0.00    +0.000 A 
ATOM     16  C   UNL     1       1.701   2.989  18.390  0.00  0.00    +0.000 A 
ENDBRANCH   9  11
ENDBRANCH   6   7
BRANCH   1  17
ATOM     17  O   UNL     1       7.286   5.378  17.193  0.00  0.00    +0.000 OA
BRANCH  17  19
ATOM     18  C   UNL     1       8.162   7.016  18.659  0.00  0.00    +0.000 C 
ATOM     19  C   UNL     1       7.338   6.754  17.435  0.00  0.00    +0.000 C 
ATOM     20  O   UNL     1       6.798   7.626  16.773  0.00  0.00    +0.000 OA
ENDBRANCH  17  19
ENDBRANCH   1  17
TORSDOF 4
ENDMDL
MODEL 9
REMARK VINA RESULT:      -7.3      1.735      1.879
REMARK  Name = 
REMARK  5 active torsions:
REMARK  status: ('A' for Active; 'I' for Inactive)
REMARK    1  A    between atoms: C_1  and  C_2
REMARK    2  A    between atoms: C_2  and  O_4
REMARK    3  A    between atoms: O_4  and  C_5
REMARK    4  A    between atoms: C_10  and  C_11
REMARK    5  A    between atoms: N_13  and  C_14
REMARK                            x       y       z     vdW  Elec       q    Type
REMARK                         _______ _______ _______ _____ _____    ______ ____
ROOT
ATOM      1  C   UNL     1       6.580   5.195  15.750  0.00  0.00    +0.000 A 
ATOM      2  C   UNL     1       7.415   5.389  14.633  0.00  0.00    +0.000 A 
ATOM      3  C   UNL     1       7.172   4.722  13.436  0.00  0.00    +0.000 A 
ATOM      4  C   UNL     1       6.112   3.832  13.346  0.00  0.00    +0.000 A 
ATOM      5  C   UNL     1       5.305   3.608  14.461  0.00  0.00    +0.000 A 
ATOM      6  C   UNL     1       5.523   4.274  15.686  0.00  0.00    +0.000 A 
ENDROOT
BRANCH   6   7
ATOM      7  C   UNL     1       4.602   3.879  16.800  0.00  0.00    +0.000 C 
ATOM      8  O   UNL     1       4.611   2.698  17.143  0.00  0.00    +0.000 OA
ATOM      9  N   UNL     1       3.778   4.842  17.355  0.00  0.00    +0.000 N 
ATOM     10  H   UNL     1       3.738   5.744  16.900  0.00  0.00    +0.000 HD
BRANCH   9  11
ATOM     11  C   UNL     1       2.876   4.625  18.427  0.00  0.00    +0.000 A 
ATOM     12  C   UNL     1       1.758   3.788  18.329  0.00  0.00    +0.000 A 
ATOM     13  C   UNL     1       0.880   3.628  19.403  0.00  0.00    +0.000 A 
ATOM     14  C   UNL     1       1.110   4.305  20.596  0.00  0.00    +0.000 A 
ATOM     15  C   UNL     1       2.227   5.128  20.716  0.00  0.00    +0.000 A 
ATOM     16  C   UNL     1       3.112   5.279  19.639  0.00  0.00    +0.000 A 
ENDBRANCH   9  11
ENDBRANCH   6   7
BRANCH   1  17
ATOM     17  O   UNL     1       6.916   5.844  16.955  0.00  0.00    +0.000 OA
BRANCH  17  19
ATOM     18  C   UNL     1       7.136   5.537  19.291  0.00  0.00    +0.000 C 
ATOM     19  C   UNL     1       7.542   5.061  17.930  0.00  0.00    +0.000 C 
ATOM     20  O   UNL     1       8.311   4.134  17.729  0.00  0.00    +0.000 OA
ENDBRANCH  17  19
ENDBRANCH   1  17
TORSDOF 4
ENDMDL
