MODEL 1
REMARK VINA RESULT:      -7.6      0.000      0.000
REMARK  Name = 
REMARK  5 active torsions:
REMARK  status: ('A' for Active; 'I' for Inactive)
REMARK    1  A    between atoms: C_1  and  N_2
REMARK    2  A    between atoms: N_2  and  C_3
REMARK    3  A    between atoms: N_2  and  S_12
REMARK    4  A    between atoms: C_3  and  C_4
REMARK    5  A    between atoms: S_12  and  C_15
REMARK                            x       y       z     vdW  Elec       q    Type
REMARK                         _______ _______ _______ _____ _____    ______ ____
ROOT
ATOM      1  S   UNL     1       3.808   3.280  18.562  0.00  0.00    +0.000 S 
ATOM      2  O   UNL     1       3.647   3.182  19.982  0.00  0.00    +0.000 OA
ATOM      3  O   UNL     1       3.969   2.074  17.753  0.00  0.00    +0.000 OA
ENDROOT
BRANCH   1   4
ATOM      4  C   UNL     1       5.210   4.310  18.250  0.00  0.00    +0.000 A 
ATOM      5  C   UNL     1       5.893   4.929  19.324  0.00  0.00    +0.000 A 
ATOM      6  C   UNL     1       7.069   5.696  19.161  0.00  0.00    +0.000 A 
ATOM      7  C   UNL     1       7.668   5.914  17.911  0.00  0.00    +0.000 A 
ATOM      8  C   UNL     1       7.029   5.321  16.797  0.00  0.00    +0.000 A 
ATOM      9  N   UNL     1       7.463   5.389  15.530  0.00  0.00    +0.000 NA
ATOM     10  S   UNL     1       6.390   4.517  14.616  0.00  0.00    +0.000 S 
ATOM     11  N   UNL     1       5.314   4.028  15.782  0.00  0.00    +0.000 NA
ATOM     12  C   UNL     1       5.756   4.507  16.957  0.00  0.00    +0.000 A 
ENDBRANCH   1   4
BRANCH   1  14
ATOM     13  C   UNL     1       1.186   3.665  18.437  0.00  0.00    +0.000 C 
ATOM     14  N   UNL     1       2.469   4.157  17.908  0.00  0.00    +0.000 NA
BRANCH  14  15
ATOM     15  C   UNL     1       2.628   5.648  18.065  0.00  0.00    +0.000 C 
BRANCH  15  16
ATOM     16  C   UNL     1       2.073   6.306  19.340  0.00  0.00    +0.000 C 
ATOM     17  O   UNL     1       1.609   5.639  20.267  0.00  0.00    +0.000 OA
ATOM     18  N   UNL     1       2.167   7.696  19.414  0.00  0.00    +0.000 N 
ATOM     19  C   UNL     1       1.806   8.365  20.658  0.00  0.00    +0.000 C 
ATOM     20  C   UNL     1       0.467   9.087  20.532  0.00  0.00    +0.000 C 
ATOM     21  C   UNL     1       0.467  10.019  19.322  0.00  0.00    +0.000 C 
ATOM     22  C   UNL     1       0.856   9.259  18.055  0.00  0.00    +0.000 C 
ATOM     23  C   UNL     1       2.193   8.541  18.224  0.00  0.00    +0.000 C 
ENDBRANCH  15  16
ENDBRANCH  14  15
ENDBRANCH   1  14
TORSDOF 4
ENDMDL
MODEL 2
REMARK VINA RESULT:      -7.5      1.711      2.262
REMARK  Name = 
REMARK  5 active torsions:
REMARK  status: ('A' for Active; 'I' for Inactive)
REMARK    1  A    between atoms: C_1  and  N_2
REMARK    2  A    between atoms: N_2  and  C_3
REMARK    3  A    between atoms: N_2  and  S_12
REMARK    4  A    between atoms: C_3  and  C_4
REMARK    5  A    between atoms: S_12  and  C_15
REMARK                            x       y       z     vdW  Elec       q    Type
REMARK                         _______ _______ _______ _____ _____    ______ ____
ROOT
ATOM      1  S   UNL     1       3.976   2.814  18.532  0.00  0.00    +0.000 S 
ATOM      2  O   UNL     1       4.710   2.637  19.749  0.00  0.00    +0.000 OA
ATOM      3  O   UNL     1       3.504   1.654  17.779  0.00  0.00    +0.000 OA
ENDROOT
BRANCH   1   4
ATOM      4  C   UNL     1       4.975   3.777  17.437  0.00  0.00    +0.000 A 
ATOM      5  C   UNL     1       4.698   3.792  16.049  0.00  0.00    +0.000 A 
ATOM      6  C   UNL     1       5.398   4.601  15.123  0.00  0.00    +0.000 A 
ATOM      7  C   UNL     1       6.435   5.466  15.502  0.00  0.00    +0.000 A 
ATOM      8  C   UNL     1       6.759   5.493  16.879  0.00  0.00    +0.000 A 
ATOM      9  N   UNL     1       7.696   6.273  17.437  0.00  0.00    +0.000 NA
ATOM     10  S   UNL     1       7.669   5.953  19.064  0.00  0.00    +0.000 S 
ATOM     11  N   UNL     1       6.479   4.796  19.133  0.00  0.00    +0.000 NA
ATOM     12  C   UNL     1       6.025   4.617  17.881  0.00  0.00    +0.000 A 
ENDBRANCH   1   4
BRANCH   1  14
ATOM     13  C   UNL     1       1.343   3.044  18.764  0.00  0.00    +0.000 C 
ATOM     14  N   UNL     1       2.598   3.809  18.852  0.00  0.00    +0.000 NA
BRANCH  14  15
ATOM     15  C   UNL     1       2.726   4.568  20.148  0.00  0.00    +0.000 C 
BRANCH  15  16
ATOM     16  C   UNL     1       1.895   5.850  20.323  0.00  0.00    +0.000 C 
ATOM     17  O   UNL     1       0.788   5.839  20.867  0.00  0.00    +0.000 OA
ATOM     18  N   UNL     1       2.478   7.036  19.879  0.00  0.00    +0.000 N 
ATOM     19  C   UNL     1       1.812   8.303  20.160  0.00  0.00    +0.000 C 
ATOM     20  C   UNL     1       1.168   8.882  18.904  0.00  0.00    +0.000 C 
ATOM     21  C   UNL     1       2.184   8.973  17.767  0.00  0.00    +0.000 C 
ATOM     22  C   UNL     1       2.849   7.617  17.527  0.00  0.00    +0.000 C 
ATOM     23  C   UNL     1       3.469   7.065  18.807  0.00  0.00    +0.000 C 
ENDBRANCH  15  16
ENDBRANCH  14  15
ENDBRANCH   1  14
TORSDOF 4
ENDMDL
MODEL 3
REMARK VINA RESULT:      -7.2      0.783      1.058
REMARK  Name = 
REMARK  5 active torsions:
REMARK  status: ('A' for Active; 'I' for Inactive)
REMARK    1  A    between atoms: C_1  and  N_2
REMARK    2  A    between atoms: N_2  and  C_3
REMARK    3  A    between atoms: N_2  and  S_12
REMARK    4  A    between atoms: C_3  and  C_4
REMARK    5  A    between atoms: S_12  and  C_15
REMARK                            x       y       z     vdW  Elec       q    Type
REMARK                         _______ _______ _______ _____ _____    ______ ____
ROOT
ATOM      1  S   UNL     1       3.963   3.207  18.570  0.00  0.00    +0.000 S 
ATOM      2  O   UNL     1       4.282   2.563  19.809  0.00  0.00    +0.000 OA
ATOM      3  O   UNL     1       3.702   2.414  17.371  0.00  0.00    +0.000 OA
ENDROOT
BRANCH   1   4
ATOM      4  C   UNL     1       5.286   4.315  18.185  0.00  0.00    +0.000 A 
ATOM      5  C   UNL     1       5.971   4.994  19.221  0.00  0.00    +0.000 A 
ATOM      6  C   UNL     1       7.091   5.828  18.999  0.00  0.00    +0.000 A 
ATOM      7  C   UNL     1       7.626   6.059  17.723  0.00  0.00    +0.000 A 
ATOM      8  C   UNL     1       6.981   5.407  16.644  0.00  0.00    +0.000 A 
ATOM      9  N   UNL     1       7.361   5.478  15.360  0.00  0.00    +0.000 NA
ATOM     10  S   UNL     1       6.309   4.526  14.504  0.00  0.00    +0.000 S 
ATOM     11  N   UNL     1       5.311   3.993  15.720  0.00  0.00    +0.000 NA
ATOM     12  C   UNL     1       5.768   4.520  16.869  0.00  0.00    +0.000 A 
ENDBRANCH   1   4
BRANCH   1  14
ATOM     13  C   UNL     1       1.331   3.530  18.529  0.00  0.00    +0.000 C 
ATOM     14  N   UNL     1       2.593   4.234  18.811  0.00  0.00    +0.000 NA
BRANCH  14  15
ATOM     15  C   UNL     1       2.601   4.892  20.167  0.00  0.00    +0.000 C 
BRANCH  15  16
ATOM     16  C   UNL     1       1.737   6.149  20.368  0.00  0.00    +0.000 C 
ATOM     17  O   UNL     1       0.648   6.105  20.944  0.00  0.00    +0.000 OA
ATOM     18  N   UNL     1       2.273   7.352  19.909  0.00  0.00    +0.000 N 
ATOM     19  C   UNL     1       1.578   8.598  20.210  0.00  0.00    +0.000 C 
ATOM     20  C   UNL     1       0.881   9.159  18.973  0.00  0.00    +0.000 C 
ATOM     21  C   UNL     1       1.861   9.279  17.808  0.00  0.00    +0.000 C 
ATOM     22  C   UNL     1       2.557   7.944  17.547  0.00  0.00    +0.000 C 
ATOM     23  C   UNL     1       3.231   7.410  18.809  0.00  0.00    +0.000 C 
ENDBRANCH  15  16
ENDBRANCH  14  15
ENDBRANCH   1  14
TORSDOF 4
ENDMDL
MODEL 4
REMARK VINA RESULT:      -7.2      1.084      1.559
REMARK  Name = 
REMARK  5 active torsions:
REMARK  status: ('A' for Active; 'I' for Inactive)
REMARK    1  A    between atoms: C_1  and  N_2
REMARK    2  A    between atoms: N_2  and  C_3
REMARK    3  A    between atoms: N_2  and  S_12
REMARK    4  A    between atoms: C_3  and  C_4
REMARK    5  A    between atoms: S_12  and  C_15
REMARK                            x       y       z     vdW  Elec       q    Type
REMARK                         _______ _______ _______ _____ _____    ______ ____
ROOT
ATOM      1  S   UNL     1       3.830   3.592  18.808  0.00  0.00    +0.000 S 
ATOM      2  O   UNL     1       4.075   3.093  20.128  0.00  0.00    +0.000 OA
ATOM      3  O   UNL     1       3.556   2.669  17.709  0.00  0.00    +0.000 OA
ENDROOT
BRANCH   1   4
ATOM      4  C   UNL     1       5.226   4.568  18.336  0.00  0.00    +0.000 A 
ATOM      5  C   UNL     1       6.025   5.194  19.322  0.00  0.00    +0.000 A 
ATOM      6  C   UNL     1       7.203   5.918  19.028  0.00  0.00    +0.000 A 
ATOM      7  C   UNL     1       7.688   6.082  17.722  0.00  0.00    +0.000 A 
ATOM      8  C   UNL     1       6.930   5.479  16.690  0.00  0.00    +0.000 A 
ATOM      9  N   UNL     1       7.246   5.498  15.387  0.00  0.00    +0.000 NA
ATOM     10  S   UNL     1       6.067   4.636  14.603  0.00  0.00    +0.000 S 
ATOM     11  N   UNL     1       5.091   4.213  15.879  0.00  0.00    +0.000 NA
ATOM     12  C   UNL     1       5.654   4.711  16.993  0.00  0.00    +0.000 A 
ENDBRANCH   1   4
BRANCH   1  14
ATOM     13  C   UNL     1       1.273   4.071  19.325  0.00  0.00    +0.000 C 
ATOM     14  N   UNL     1       2.516   4.715  18.871  0.00  0.00    +0.000 NA
BRANCH  14  15
ATOM     15  C   UNL     1       2.854   5.950  19.666  0.00  0.00    +0.000 C 
BRANCH  15  16
ATOM     16  C   UNL     1       2.512   7.321  19.057  0.00  0.00    +0.000 C 
ATOM     17  O   UNL     1       3.138   7.782  18.100  0.00  0.00    +0.000 OA
ATOM     18  N   UNL     1       1.424   7.994  19.612  0.00  0.00    +0.000 N 
ATOM     19  C   UNL     1       0.950   9.219  18.979  0.00  0.00    +0.000 C 
ATOM     20  C   UNL     1       1.331  10.450  19.798  0.00  0.00    +0.000 C 
ATOM     21  C   UNL     1       0.870  10.300  21.246  0.00  0.00    +0.000 C 
ATOM     22  C   UNL     1       1.394   8.997  21.849  0.00  0.00    +0.000 C 
ATOM     23  C   UNL     1       1.005   7.792  20.996  0.00  0.00    +0.000 C 
ENDBRANCH  15  16
ENDBRANCH  14  15
ENDBRANCH   1  14
TORSDOF 4
ENDMDL
MODEL 5
REMARK VINA RESULT:      -7.1      1.871      2.446
REMARK  Name = 
REMARK  5 active torsions:
REMARK  status: ('A' for Active; 'I' for Inactive)
REMARK    1  A    between atoms: C_1  and  N_2
REMARK    2  A    between atoms: N_2  and  C_3
REMARK    3  A    between atoms: N_2  and  S_12
REMARK    4  A    between atoms: C_3  and  C_4
REMARK    5  A    between atoms: S_12  and  C_15
REMARK                            x       y       z     vdW  Elec       q    Type
REMARK                         _______ _______ _______ _____ _____    ______ ____
ROOT
ATOM      1  S   UNL     1       3.778   3.183  18.885  0.00  0.00    +0.000 S 
ATOM      2  O   UNL     1       4.570   2.870  20.036  0.00  0.00    +0.000 OA
ATOM      3  O   UNL     1       3.058   2.128  18.175  0.00  0.00    +0.000 OA
ENDROOT
BRANCH   1   4
ATOM      4  C   UNL     1       4.831   3.978  17.708  0.00  0.00    +0.000 A 
ATOM      5  C   UNL     1       4.494   3.974  16.333  0.00  0.00    +0.000 A 
ATOM      6  C   UNL     1       5.240   4.659  15.346  0.00  0.00    +0.000 A 
ATOM      7  C   UNL     1       6.388   5.408  15.644  0.00  0.00    +0.000 A 
ATOM      8  C   UNL     1       6.776   5.448  17.004  0.00  0.00    +0.000 A 
ATOM      9  N   UNL     1       7.823   6.133  17.489  0.00  0.00    +0.000 NA
ATOM     10  S   UNL     1       7.834   5.879  19.127  0.00  0.00    +0.000 S 
ATOM     11  N   UNL     1       6.522   4.875  19.295  0.00  0.00    +0.000 NA
ATOM     12  C   UNL     1       5.992   4.704  18.072  0.00  0.00    +0.000 A 
ENDBRANCH   1   4
BRANCH   1  14
ATOM     13  C   UNL     1       1.696   3.910  20.358  0.00  0.00    +0.000 C 
ATOM     14  N   UNL     1       2.618   4.391  19.316  0.00  0.00    +0.000 NA
BRANCH  14  15
ATOM     15  C   UNL     1       3.264   5.704  19.673  0.00  0.00    +0.000 C 
BRANCH  15  16
ATOM     16  C   UNL     1       2.952   6.929  18.795  0.00  0.00    +0.000 C 
ATOM     17  O   UNL     1       3.672   7.250  17.847  0.00  0.00    +0.000 OA
ATOM     18  N   UNL     1       1.784   7.629  19.097  0.00  0.00    +0.000 N 
ATOM     19  C   UNL     1       1.350   8.699  18.206  0.00  0.00    +0.000 C 
ATOM     20  C   UNL     1       1.590  10.072  18.830  0.00  0.00    +0.000 C 
ATOM     21  C   UNL     1       0.964  10.151  20.221  0.00  0.00    +0.000 C 
ATOM     22  C   UNL     1       1.455   9.002  21.101  0.00  0.00    +0.000 C 
ATOM     23  C   UNL     1       1.210   7.648  20.439  0.00  0.00    +0.000 C 
ENDBRANCH  15  16
ENDBRANCH  14  15
ENDBRANCH   1  14
TORSDOF 4
ENDMDL
MODEL 6
REMARK VINA RESULT:      -7.0      2.698      5.443
REMARK  Name = 
REMARK  5 active torsions:
REMARK  status: ('A' for Active; 'I' for Inactive)
REMARK    1  A    between atoms: C_1  and  N_2
REMARK    2  A    between atoms: N_2  and  C_3
REMARK    3  A    between atoms: N_2  and  S_12
REMARK    4  A    between atoms: C_3  and  C_4
REMARK    5  A    between atoms: S_12  and  C_15
REMARK                            x       y       z     vdW  Elec       q    Type
REMARK                         _______ _______ _______ _____ _____    ______ ____
ROOT
ATOM      1  S   UNL     1       4.980   5.760  17.981  0.00  0.00    +0.000 S 
ATOM      2  O   UNL     1       5.622   4.750  18.767  0.00  0.00    +0.000 OA
ATOM      3  O   UNL     1       5.728   6.931  17.530  0.00  0.00    +0.000 OA
ENDROOT
BRANCH   1   4
ATOM      4  C   UNL     1       3.588   6.350  18.898  0.00  0.00    +0.000 A 
ATOM      5  C   UNL     1       3.168   5.674  20.068  0.00  0.00    +0.000 A 
ATOM      6  C   UNL     1       2.119   6.132  20.899  0.00  0.00    +0.000 A 
ATOM      7  C   UNL     1       1.397   7.305  20.635  0.00  0.00    +0.000 A 
ATOM      8  C   UNL     1       1.771   8.025  19.475  0.00  0.00    +0.000 A 
ATOM      9  N   UNL     1       1.223   9.180  19.073  0.00  0.00    +0.000 NA
ATOM     10  S   UNL     1       2.020   9.624  17.689  0.00  0.00    +0.000 S 
ATOM     11  N   UNL     1       3.087   8.362  17.526  0.00  0.00    +0.000 NA
ATOM     12  C   UNL     1       2.886   7.534  18.566  0.00  0.00    +0.000 A 
ENDBRANCH   1   4
BRANCH   1  14
ATOM     13  C   UNL     1       5.228   5.045  15.438  0.00  0.00    +0.000 C 
ATOM     14  N   UNL     1       4.293   5.021  16.576  0.00  0.00    +0.000 NA
BRANCH  14  15
ATOM     15  C   UNL     1       3.755   3.642  16.857  0.00  0.00    +0.000 C 
BRANCH  15  16
ATOM     16  C   UNL     1       2.374   3.524  17.524  0.00  0.00    +0.000 C 
ATOM     17  O   UNL     1       1.425   4.235  17.184  0.00  0.00    +0.000 OA
ATOM     18  N   UNL     1       2.236   2.538  18.500  0.00  0.00    +0.000 N 
ATOM     19  C   UNL     1       0.914   2.270  19.055  0.00  0.00    +0.000 C 
ATOM     20  C   UNL     1       0.788   2.813  20.476  0.00  0.00    +0.000 C 
ATOM     21  C   UNL     1       1.928   2.301  21.355  0.00  0.00    +0.000 C 
ATOM     22  C   UNL     1       3.282   2.609  20.716  0.00  0.00    +0.000 C 
ATOM     23  C   UNL     1       3.365   2.061  19.293  0.00  0.00    +0.000 C 
ENDBRANCH  15  16
ENDBRANCH  14  15
ENDBRANCH   1  14
TORSDOF 4
ENDMDL
MODEL 7
REMARK VINA RESULT:      -7.0      1.536      1.941
REMARK  Name = 
REMARK  5 active torsions:
REMARK  status: ('A' for Active; 'I' for Inactive)
REMARK    1  A    between atoms: C_1  and  N_2
REMARK    2  A    between atoms: N_2  and  C_3
REMARK    3  A    between atoms: N_2  and  S_12
REMARK    4  A    between atoms: C_3  and  C_4
REMARK    5  A    between atoms: S_12  and  C_15
REMARK                            x       y       z     vdW  Elec       q    Type
REMARK                         _______ _______ _______ _____ _____    ______ ____
ROOT
ATOM      1  S   UNL     1       3.683   3.157  18.503  0.00  0.00    +0.000 S 
ATOM      2  O   UNL     1       4.152   3.262  19.852  0.00  0.00    +0.000 OA
ATOM      3  O   UNL     1       3.376   1.850  17.928  0.00  0.00    +0.000 OA
ENDROOT
BRANCH   1   4
ATOM      4  C   UNL     1       4.886   3.919  17.455  0.00  0.00    +0.000 A 
ATOM      5  C   UNL     1       4.733   3.880  16.048  0.00  0.00    +0.000 A 
ATOM      6  C   UNL     1       5.605   4.536  15.150  0.00  0.00    +0.000 A 
ATOM      7  C   UNL     1       6.709   5.290  15.577  0.00  0.00    +0.000 A 
ATOM      8  C   UNL     1       6.915   5.365  16.975  0.00  0.00    +0.000 A 
ATOM      9  N   UNL     1       7.893   6.059  17.575  0.00  0.00    +0.000 NA
ATOM     10  S   UNL     1       7.687   5.849  19.207  0.00  0.00    +0.000 S 
ATOM     11  N   UNL     1       6.358   4.853  19.227  0.00  0.00    +0.000 NA
ATOM     12  C   UNL     1       5.993   4.651  17.949  0.00  0.00    +0.000 A 
ENDBRANCH   1   4
BRANCH   1  14
ATOM     13  C   UNL     1       1.190   3.703  19.228  0.00  0.00    +0.000 C 
ATOM     14  N   UNL     1       2.269   4.137  18.325  0.00  0.00    +0.000 NA
BRANCH  14  15
ATOM     15  C   UNL     1       2.572   5.608  18.447  0.00  0.00    +0.000 C 
BRANCH  15  16
ATOM     16  C   UNL     1       1.991   6.371  19.651  0.00  0.00    +0.000 C 
ATOM     17  O   UNL     1       1.499   5.784  20.617  0.00  0.00    +0.000 OA
ATOM     18  N   UNL     1       2.095   7.761  19.616  0.00  0.00    +0.000 N 
ATOM     19  C   UNL     1       1.710   8.531  20.794  0.00  0.00    +0.000 C 
ATOM     20  C   UNL     1       0.381   9.249  20.576  0.00  0.00    +0.000 C 
ATOM     21  C   UNL     1       0.418  10.081  19.296  0.00  0.00    +0.000 C 
ATOM     22  C   UNL     1       0.833   9.220  18.103  0.00  0.00    +0.000 C 
ATOM     23  C   UNL     1       2.158   8.508  18.363  0.00  0.00    +0.000 C 
ENDBRANCH  15  16
ENDBRANCH  14  15
ENDBRANCH   1  14
TORSDOF 4
ENDMDL
MODEL 8
REMARK VINA RESULT:      -7.0      2.328      3.338
REMARK  Name = 
REMARK  5 active torsions:
REMARK  status: ('A' for Active; 'I' for Inactive)
REMARK    1  A    between atoms: C_1  and  N_2
REMARK    2  A    between atoms: N_2  and  C_3
REMARK    3  A    between atoms: N_2  and  S_12
REMARK    4  A    between atoms: C_3  and  C_4
REMARK    5  A    between atoms: S_12  and  C_15
REMARK                            x       y       z     vdW  Elec       q    Type
REMARK                         _______ _______ _______ _____ _____    ______ ____
ROOT
ATOM      1  S   UNL     1       2.799   5.213  19.102  0.00  0.00    +0.000 S 
ATOM      2  O   UNL     1       3.117   4.783  20.430  0.00  0.00    +0.000 OA
ATOM      3  O   UNL     1       1.579   4.746  18.447  0.00  0.00    +0.000 OA
ENDROOT
BRANCH   1   4
ATOM      4  C   UNL     1       4.154   4.773  18.055  0.00  0.00    +0.000 A 
ATOM      5  C   UNL     1       3.916   4.216  16.776  0.00  0.00    +0.000 A 
ATOM      6  C   UNL     1       4.943   3.918  15.852  0.00  0.00    +0.000 A 
ATOM      7  C   UNL     1       6.300   4.150  16.122  0.00  0.00    +0.000 A 
ATOM      8  C   UNL     1       6.602   4.705  17.388  0.00  0.00    +0.000 A 
ATOM      9  N   UNL     1       7.831   5.026  17.818  0.00  0.00    +0.000 NA
ATOM     10  S   UNL     1       7.648   5.660  19.338  0.00  0.00    +0.000 S 
ATOM     11  N   UNL     1       6.003   5.542  19.529  0.00  0.00    +0.000 NA
ATOM     12  C   UNL     1       5.508   5.016  18.396  0.00  0.00    +0.000 A 
ENDBRANCH   1   4
BRANCH   1  14
ATOM     13  C   UNL     1       2.390   7.452  17.739  0.00  0.00    +0.000 C 
ATOM     14  N   UNL     1       2.766   6.942  19.068  0.00  0.00    +0.000 NA
BRANCH  14  15
ATOM     15  C   UNL     1       1.922   7.522  20.173  0.00  0.00    +0.000 C 
BRANCH  15  16
ATOM     16  C   UNL     1       1.308   8.917  19.961  0.00  0.00    +0.000 C 
ATOM     17  O   UNL     1       1.819   9.744  19.202  0.00  0.00    +0.000 OA
ATOM     18  N   UNL     1       0.117   9.181  20.636  0.00  0.00    +0.000 N 
ATOM     19  C   UNL     1      -0.597  10.421  20.354  0.00  0.00    +0.000 C 
ATOM     20  C   UNL     1      -0.455  11.416  21.503  0.00  0.00    +0.000 C 
ATOM     21  C   UNL     1      -0.859  10.774  22.829  0.00  0.00    +0.000 C 
ATOM     22  C   UNL     1      -0.081   9.479  23.061  0.00  0.00    +0.000 C 
ATOM     23  C   UNL     1      -0.237   8.516  21.886  0.00  0.00    +0.000 C 
ENDBRANCH  15  16
ENDBRANCH  14  15
ENDBRANCH   1  14
TORSDOF 4
ENDMDL
MODEL 9
REMARK VINA RESULT:      -7.0      2.260      5.831
REMARK  Name = 
REMARK  5 active torsions:
REMARK  status: ('A' for Active; 'I' for Inactive)
REMARK    1  A    between atoms: C_1  and  N_2
REMARK    2  A    between atoms: N_2  and  C_3
REMARK    3  A    between atoms: N_2  and  S_12
REMARK    4  A    between atoms: C_3  and  C_4
REMARK    5  A    between atoms: S_12  and  C_15
REMARK                            x       y       z     vdW  Elec       q    Type
REMARK                         _______ _______ _______ _____ _____    ______ ____
ROOT
ATOM      1  S   UNL     1       1.909   4.268  19.322  0.00  0.00    +0.000 S 
ATOM      2  O   UNL     1       1.965   3.567  18.075  0.00  0.00    +0.000 OA
ATOM      3  O   UNL     1       0.727   4.165  20.175  0.00  0.00    +0.000 OA
ENDROOT
BRANCH   1   4
ATOM      4  C   UNL     1       2.162   5.985  18.985  0.00  0.00    +0.000 A 
ATOM      5  C   UNL     1       2.758   6.392  17.767  0.00  0.00    +0.000 A 
ATOM      6  C   UNL     1       2.916   7.746  17.390  0.00  0.00    +0.000 A 
ATOM      7  C   UNL     1       2.493   8.813  18.196  0.00  0.00    +0.000 A 
ATOM      8  C   UNL     1       1.890   8.469  19.429  0.00  0.00    +0.000 A 
ATOM      9  N   UNL     1       1.396   9.343  20.318  0.00  0.00    +0.000 NA
ATOM     10  S   UNL     1       0.782   8.446  21.570  0.00  0.00    +0.000 S 
ATOM     11  N   UNL     1       1.130   6.908  21.050  0.00  0.00    +0.000 NA
ATOM     12  C   UNL     1       1.729   7.019  19.852  0.00  0.00    +0.000 A 
ENDBRANCH   1   4
BRANCH   1  14
ATOM     13  C   UNL     1       2.900   2.837  21.324  0.00  0.00    +0.000 C 
ATOM     14  N   UNL     1       3.272   3.809  20.282  0.00  0.00    +0.000 NA
BRANCH  14  15
ATOM     15  C   UNL     1       4.434   3.343  19.442  0.00  0.00    +0.000 C 
BRANCH  15  16
ATOM     16  C   UNL     1       5.485   4.384  19.018  0.00  0.00    +0.000 C 
ATOM     17  O   UNL     1       5.815   5.314  19.757  0.00  0.00    +0.000 OA
ATOM     18  N   UNL     1       6.082   4.194  17.772  0.00  0.00    +0.000 N 
ATOM     19  C   UNL     1       7.195   5.051  17.381  0.00  0.00    +0.000 C 
ATOM     20  C   UNL     1       6.769   6.066  16.324  0.00  0.00    +0.000 C 
ATOM     21  C   UNL     1       6.099   5.369  15.142  0.00  0.00    +0.000 C 
ATOM     22  C   UNL     1       4.947   4.485  15.619  0.00  0.00    +0.000 C 
ATOM     23  C   UNL     1       5.409   3.492  16.683  0.00  0.00    +0.000 C 
ENDBRANCH  15  16
ENDBRANCH  14  15
ENDBRANCH   1  14
TORSDOF 4
ENDMDL
