MODEL 1
REMARK VINA RESULT:      -7.0      0.000      0.000
REMARK  Name = 
REMARK  9 active torsions:
REMARK  status: ('A' for Active; 'I' for Inactive)
REMARK    1  A    between atoms: C_1  and  O_2
REMARK    2  A    between atoms: O_2  and  C_3
REMARK    3  A    between atoms: C_3  and  C_4
REMARK    4  A    between atoms: C_4  and  N_5
REMARK    5  A    between atoms: C_6  and  C_8
REMARK    6  A    between atoms: C_11  and  C_12
REMARK    7  A    between atoms: C_12  and  S_13
REMARK    8  A    between atoms: S_13  and  C_16
REMARK    9  A    between atoms: C_20  and  C_21
REMARK                            x       y       z     vdW  Elec       q    Type
REMARK                         _______ _______ _______ _____ _____    ______ ____
ROOT
ATOM      1  C   UNL     1       1.893   3.142  18.731  0.00  0.00    +0.000 C 
ENDROOT
BRANCH   1   5
ATOM      2  C   UNL     1       2.203   6.728  18.964  0.00  0.00    +0.000 A 
ATOM      3  C   UNL     1       1.966   6.510  20.307  0.00  0.00    +0.000 A 
ATOM      4  C   UNL     1       1.775   5.120  20.471  0.00  0.00    +0.000 A 
ATOM      5  C   UNL     1       1.923   4.550  19.222  0.00  0.00    +0.000 A 
ATOM      6  O   UNL     1       2.151   5.529  18.292  0.00  0.00    +0.000 OA
BRANCH   2   8
ATOM      7  N   UNL     1       1.720   9.036  18.626  0.00  0.00    +0.000 N 
ATOM      8  C   UNL     1       2.496   7.960  18.255  0.00  0.00    +0.000 C 
ATOM      9  O   UNL     1       3.368   8.052  17.392  0.00  0.00    +0.000 OA
ATOM     10  H   UNL     1       1.157   8.936  19.463  0.00  0.00    +0.000 HD
BRANCH   7  11
ATOM     11  C   UNL     1       1.966  10.365  18.102  0.00  0.00    +0.000 C 
BRANCH  11  12
ATOM     12  C   UNL     1       1.206  11.437  18.880  0.00  0.00    +0.000 C 
BRANCH  12  14
ATOM     13  C   UNL     1      -0.990  11.049  19.652  0.00  0.00    +0.000 C 
ATOM     14  O   UNL     1      -0.180  11.370  18.529  0.00  0.00    +0.000 OA
ENDBRANCH  12  14
ENDBRANCH  11  12
ENDBRANCH   7  11
ENDBRANCH   2   8
ENDBRANCH   1   5
BRANCH   1  15
ATOM     15  S   UNL     1       3.497   2.418  19.050  0.00  0.00    +0.000 S 
ATOM     16  O   UNL     1       3.703   2.321  20.482  0.00  0.00    +0.000 OA
ATOM     17  O   UNL     1       3.659   1.244  18.203  0.00  0.00    +0.000 OA
BRANCH  15  18
ATOM     18  C   UNL     1       4.705   3.603  18.461  0.00  0.00    +0.000 A 
ATOM     19  C   UNL     1       5.343   4.446  19.376  0.00  0.00    +0.000 A 
ATOM     20  C   UNL     1       6.102   5.520  18.913  0.00  0.00    +0.000 A 
ATOM     21  C   UNL     1       6.210   5.768  17.541  0.00  0.00    +0.000 A 
ATOM     22  C   UNL     1       5.571   4.932  16.613  0.00  0.00    +0.000 A 
ATOM     23  C   UNL     1       4.823   3.837  17.083  0.00  0.00    +0.000 A 
BRANCH  22  24
ATOM     24  C   UNL     1       5.635   5.228  15.131  0.00  0.00    +0.000 C 
ATOM     25  F   UNL     1       6.903   5.297  14.641  0.00  0.00    +0.000 F 
ATOM     26  F   UNL     1       5.000   4.277  14.389  0.00  0.00    +0.000 F 
ATOM     27  F   UNL     1       5.045   6.411  14.810  0.00  0.00    +0.000 F 
ENDBRANCH  22  24
ENDBRANCH  15  18
ENDBRANCH   1  15
TORSDOF 8
ENDMDL
MODEL 2
REMARK VINA RESULT:      -6.9      1.739      2.411
REMARK  Name = 
REMARK  9 active torsions:
REMARK  status: ('A' for Active; 'I' for Inactive)
REMARK    1  A    between atoms: C_1  and  O_2
REMARK    2  A    between atoms: O_2  and  C_3
REMARK    3  A    between atoms: C_3  and  C_4
REMARK    4  A    between atoms: C_4  and  N_5
REMARK    5  A    between atoms: C_6  and  C_8
REMARK    6  A    between atoms: C_11  and  C_12
REMARK    7  A    between atoms: C_12  and  S_13
REMARK    8  A    between atoms: S_13  and  C_16
REMARK    9  A    between atoms: C_20  and  C_21
REMARK                            x       y       z     vdW  Elec       q    Type
REMARK                         _______ _______ _______ _____ _____    ______ ____
ROOT
ATOM      1  C   UNL     1       3.161   5.232  19.889  0.00  0.00    +0.000 C 
ENDROOT
BRANCH   1   5
ATOM      2  C   UNL     1       1.901   8.446  18.846  0.00  0.00    +0.000 A 
ATOM      3  C   UNL     1       2.721   8.244  17.752  0.00  0.00    +0.000 A 
ATOM      4  C   UNL     1       3.374   7.008  17.951  0.00  0.00    +0.000 A 
ATOM      5  C   UNL     1       2.909   6.502  19.149  0.00  0.00    +0.000 A 
ATOM      6  O   UNL     1       2.036   7.390  19.717  0.00  0.00    +0.000 OA
BRANCH   2   8
ATOM      7  N   UNL     1       0.105   9.833  18.123  0.00  0.00    +0.000 N 
ATOM      8  C   UNL     1       0.986   9.533  19.139  0.00  0.00    +0.000 C 
ATOM      9  O   UNL     1       0.981  10.144  20.207  0.00  0.00    +0.000 OA
ATOM     10  H   UNL     1       0.041   9.176  17.354  0.00  0.00    +0.000 HD
BRANCH   7  11
ATOM     11  C   UNL     1      -0.952  10.810  18.299  0.00  0.00    +0.000 C 
BRANCH  11  12
ATOM     12  C   UNL     1      -1.934  10.808  17.130  0.00  0.00    +0.000 C 
BRANCH  12  14
ATOM     13  C   UNL     1      -4.273  10.928  17.426  0.00  0.00    +0.000 C 
ATOM     14  O   UNL     1      -3.047  11.647  17.457  0.00  0.00    +0.000 OA
ENDBRANCH  12  14
ENDBRANCH  11  12
ENDBRANCH   7  11
ENDBRANCH   2   8
ENDBRANCH   1   5
BRANCH   1  15
ATOM     15  S   UNL     1       3.241   3.907  18.690  0.00  0.00    +0.000 S 
ATOM     16  O   UNL     1       3.262   2.634  19.384  0.00  0.00    +0.000 OA
ATOM     17  O   UNL     1       2.257   4.159  17.646  0.00  0.00    +0.000 OA
BRANCH  15  18
ATOM     18  C   UNL     1       4.837   4.055  17.889  0.00  0.00    +0.000 A 
ATOM     19  C   UNL     1       5.943   4.475  18.635  0.00  0.00    +0.000 A 
ATOM     20  C   UNL     1       7.127   4.818  17.982  0.00  0.00    +0.000 A 
ATOM     21  C   UNL     1       7.204   4.761  16.587  0.00  0.00    +0.000 A 
ATOM     22  C   UNL     1       6.100   4.344  15.827  0.00  0.00    +0.000 A 
ATOM     23  C   UNL     1       4.914   3.981  16.491  0.00  0.00    +0.000 A 
BRANCH  22  24
ATOM     24  C   UNL     1       6.157   4.336  14.316  0.00  0.00    +0.000 C 
ATOM     25  F   UNL     1       7.069   5.205  13.799  0.00  0.00    +0.000 F 
ATOM     26  F   UNL     1       6.486   3.111  13.820  0.00  0.00    +0.000 F 
ATOM     27  F   UNL     1       4.965   4.664  13.748  0.00  0.00    +0.000 F 
ENDBRANCH  22  24
ENDBRANCH  15  18
ENDBRANCH   1  15
TORSDOF 8
ENDMDL
MODEL 3
REMARK VINA RESULT:      -6.9      1.707      2.284
REMARK  Name = 
REMARK  9 active torsions:
REMARK  status: ('A' for Active; 'I' for Inactive)
REMARK    1  A    between atoms: C_1  and  O_2
REMARK    2  A    between atoms: O_2  and  C_3
REMARK    3  A    between atoms: C_3  and  C_4
REMARK    4  A    between atoms: C_4  and  N_5
REMARK    5  A    between atoms: C_6  and  C_8
REMARK    6  A    between atoms: C_11  and  C_12
REMARK    7  A    between atoms: C_12  and  S_13
REMARK    8  A    between atoms: S_13  and  C_16
REMARK    9  A    between atoms: C_20  and  C_21
REMARK                            x       y       z     vdW  Elec       q    Type
REMARK                         _______ _______ _______ _____ _____    ______ ____
ROOT
ATOM      1  C   UNL     1       1.797   3.011  19.187  0.00  0.00    +0.000 C 
ENDROOT
BRANCH   1   5
ATOM      2  C   UNL     1       2.158   6.599  19.194  0.00  0.00    +0.000 A 
ATOM      3  C   UNL     1       1.986   6.463  20.557  0.00  0.00    +0.000 A 
ATOM      4  C   UNL     1       1.787   5.088  20.812  0.00  0.00    +0.000 A 
ATOM      5  C   UNL     1       1.866   4.444  19.593  0.00  0.00    +0.000 A 
ATOM      6  O   UNL     1       2.059   5.364  18.597  0.00  0.00    +0.000 OA
BRANCH   2   8
ATOM      7  N   UNL     1       1.623   8.864  18.684  0.00  0.00    +0.000 N 
ATOM      8  C   UNL     1       2.429   7.784  18.400  0.00  0.00    +0.000 C 
ATOM      9  O   UNL     1       3.308   7.835  17.542  0.00  0.00    +0.000 OA
ATOM     10  H   UNL     1       1.053   8.810  19.520  0.00  0.00    +0.000 HD
BRANCH   7  11
ATOM     11  C   UNL     1       1.842  10.157  18.067  0.00  0.00    +0.000 C 
BRANCH  11  12
ATOM     12  C   UNL     1       1.277  11.297  18.912  0.00  0.00    +0.000 C 
BRANCH  12  14
ATOM     13  C   UNL     1      -0.860  11.513  19.889  0.00  0.00    +0.000 C 
ATOM     14  O   UNL     1       0.344  10.759  19.855  0.00  0.00    +0.000 OA
ENDBRANCH  12  14
ENDBRANCH  11  12
ENDBRANCH   7  11
ENDBRANCH   2   8
ENDBRANCH   1   5
BRANCH   1  15
ATOM     15  S   UNL     1       3.467   2.371  19.150  0.00  0.00    +0.000 S 
ATOM     16  O   UNL     1       4.012   2.377  20.494  0.00  0.00    +0.000 OA
ATOM     17  O   UNL     1       3.485   1.151  18.356  0.00  0.00    +0.000 OA
BRANCH  15  18
ATOM     18  C   UNL     1       4.435   3.560  18.223  0.00  0.00    +0.000 A 
ATOM     19  C   UNL     1       4.274   3.645  16.837  0.00  0.00    +0.000 A 
ATOM     20  C   UNL     1       5.178   4.391  16.081  0.00  0.00    +0.000 A 
ATOM     21  C   UNL     1       6.253   5.036  16.701  0.00  0.00    +0.000 A 
ATOM     22  C   UNL     1       6.427   4.955  18.091  0.00  0.00    +0.000 A 
ATOM     23  C   UNL     1       5.502   4.218  18.853  0.00  0.00    +0.000 A 
BRANCH  22  24
ATOM     24  C   UNL     1       7.619   5.600  18.762  0.00  0.00    +0.000 C 
ATOM     25  F   UNL     1       8.013   6.763  18.175  0.00  0.00    +0.000 F 
ATOM     26  F   UNL     1       7.373   5.904  20.067  0.00  0.00    +0.000 F 
ATOM     27  F   UNL     1       8.715   4.793  18.765  0.00  0.00    +0.000 F 
ENDBRANCH  22  24
ENDBRANCH  15  18
ENDBRANCH   1  15
TORSDOF 8
ENDMDL
MODEL 4
REMARK VINA RESULT:      -6.8      2.955      4.131
REMARK  Name = 
REMARK  9 active torsions:
REMARK  status: ('A' for Active; 'I' for Inactive)
REMARK    1  A    between atoms: C_1  and  O_2
REMARK    2  A    between atoms: O_2  and  C_3
REMARK    3  A    between atoms: C_3  and  C_4
REMARK    4  A    between atoms: C_4  and  N_5
REMARK    5  A    between atoms: C_6  and  C_8
REMARK    6  A    between atoms: C_11  and  C_12
REMARK    7  A    between atoms: C_12  and  S_13
REMARK    8  A    between atoms: S_13  and  C_16
REMARK    9  A    between atoms: C_20  and  C_21
REMARK                            x       y       z     vdW  Elec       q    Type
REMARK                         _______ _______ _______ _____ _____    ______ ____
ROOT
ATOM      1  C   UNL     1       5.019   4.054  16.652  0.00  0.00    +0.000 C 
ENDROOT
BRANCH   1   5
ATOM      2  C   UNL     1       3.243   6.231  18.914  0.00  0.00    +0.000 A 
ATOM      3  C   UNL     1       3.820   5.440  19.889  0.00  0.00    +0.000 A 
ATOM      4  C   UNL     1       4.575   4.450  19.222  0.00  0.00    +0.000 A 
ATOM      5  C   UNL     1       4.441   4.694  17.868  0.00  0.00    +0.000 A 
ATOM      6  O   UNL     1       3.603   5.759  17.673  0.00  0.00    +0.000 OA
BRANCH   2   8
ATOM      7  N   UNL     1       1.859   7.591  20.294  0.00  0.00    +0.000 N 
ATOM      8  C   UNL     1       2.401   7.406  19.042  0.00  0.00    +0.000 C 
ATOM      9  O   UNL     1       2.185   8.186  18.116  0.00  0.00    +0.000 OA
ATOM     10  H   UNL     1       2.225   7.022  21.048  0.00  0.00    +0.000 HD
BRANCH   7  11
ATOM     11  C   UNL     1       1.094   8.779  20.621  0.00  0.00    +0.000 C 
BRANCH  11  12
ATOM     12  C   UNL     1       1.132   9.091  22.115  0.00  0.00    +0.000 C 
BRANCH  12  14
ATOM     13  C   UNL     1       0.821  11.229  21.165  0.00  0.00    +0.000 C 
ATOM     14  O   UNL     1       0.652  10.424  22.324  0.00  0.00    +0.000 OA
ENDBRANCH  12  14
ENDBRANCH  11  12
ENDBRANCH   7  11
ENDBRANCH   2   8
ENDBRANCH   1   5
BRANCH   1  15
ATOM     15  S   UNL     1       6.453   5.004  16.163  0.00  0.00    +0.000 S 
ATOM     16  O   UNL     1       6.130   6.417  16.210  0.00  0.00    +0.000 OA
ATOM     17  O   UNL     1       7.618   4.493  16.871  0.00  0.00    +0.000 OA
BRANCH  15  18
ATOM     18  C   UNL     1       6.737   4.623  14.435  0.00  0.00    +0.000 A 
ATOM     19  C   UNL     1       7.796   5.239  13.762  0.00  0.00    +0.000 A 
ATOM     20  C   UNL     1       7.886   5.135  12.374  0.00  0.00    +0.000 A 
ATOM     21  C   UNL     1       6.913   4.436  11.654  0.00  0.00    +0.000 A 
ATOM     22  C   UNL     1       5.842   3.816  12.319  0.00  0.00    +0.000 A 
ATOM     23  C   UNL     1       5.766   3.907  13.721  0.00  0.00    +0.000 A 
BRANCH  22  24
ATOM     24  C   UNL     1       4.754   3.108  11.543  0.00  0.00    +0.000 C 
ATOM     25  F   UNL     1       5.132   1.895  11.054  0.00  0.00    +0.000 F 
ATOM     26  F   UNL     1       3.648   2.875  12.305  0.00  0.00    +0.000 F 
ATOM     27  F   UNL     1       4.326   3.827  10.471  0.00  0.00    +0.000 F 
ENDBRANCH  22  24
ENDBRANCH  15  18
ENDBRANCH   1  15
TORSDOF 8
ENDMDL
MODEL 5
REMARK VINA RESULT:      -6.8      4.684      7.795
REMARK  Name = 
REMARK  9 active torsions:
REMARK  status: ('A' for Active; 'I' for Inactive)
REMARK    1  A    between atoms: C_1  and  O_2
REMARK    2  A    between atoms: O_2  and  C_3
REMARK    3  A    between atoms: C_3  and  C_4
REMARK    4  A    between atoms: C_4  and  N_5
REMARK    5  A    between atoms: C_6  and  C_8
REMARK    6  A    between atoms: C_11  and  C_12
REMARK    7  A    between atoms: C_12  and  S_13
REMARK    8  A    between atoms: S_13  and  C_16
REMARK    9  A    between atoms: C_20  and  C_21
REMARK                            x       y       z     vdW  Elec       q    Type
REMARK                         _______ _______ _______ _____ _____    ______ ____
ROOT
ATOM      1  C   UNL     1       5.010   7.106  17.880  0.00  0.00    +0.000 C 
ENDROOT
BRANCH   1   5
ATOM      2  C   UNL     1       6.859   5.067  15.549  0.00  0.00    +0.000 A 
ATOM      3  C   UNL     1       7.264   4.398  16.688  0.00  0.00    +0.000 A 
ATOM      4  C   UNL     1       6.668   5.057  17.787  0.00  0.00    +0.000 A 
ATOM      5  C   UNL     1       5.910   6.088  17.266  0.00  0.00    +0.000 A 
ATOM      6  O   UNL     1       6.049   6.120  15.904  0.00  0.00    +0.000 OA
BRANCH   2   8
ATOM      7  N   UNL     1       6.432   3.749  13.612  0.00  0.00    +0.000 N 
ATOM      8  C   UNL     1       7.147   4.794  14.154  0.00  0.00    +0.000 C 
ATOM      9  O   UNL     1       7.959   5.439  13.492  0.00  0.00    +0.000 OA
ATOM     10  H   UNL     1       5.655   3.388  14.154  0.00  0.00    +0.000 HD
BRANCH   7  11
ATOM     11  C   UNL     1       6.513   3.425  12.201  0.00  0.00    +0.000 C 
BRANCH  11  12
ATOM     12  C   UNL     1       5.304   2.620  11.728  0.00  0.00    +0.000 C 
BRANCH  12  14
ATOM     13  C   UNL     1       3.179   3.050  10.795  0.00  0.00    +0.000 C 
ATOM     14  O   UNL     1       4.554   3.410  10.800  0.00  0.00    +0.000 OA
ENDBRANCH  12  14
ENDBRANCH  11  12
ENDBRANCH   7  11
ENDBRANCH   2   8
ENDBRANCH   1   5
BRANCH   1  15
ATOM     15  S   UNL     1       3.571   6.253  18.513  0.00  0.00    +0.000 S 
ATOM     16  O   UNL     1       3.035   5.388  17.480  0.00  0.00    +0.000 OA
ATOM     17  O   UNL     1       3.884   5.717  19.830  0.00  0.00    +0.000 OA
BRANCH  15  18
ATOM     18  C   UNL     1       2.327   7.513  18.790  0.00  0.00    +0.000 A 
ATOM     19  C   UNL     1       2.011   8.404  17.760  0.00  0.00    +0.000 A 
ATOM     20  C   UNL     1       1.226   9.524  18.033  0.00  0.00    +0.000 A 
ATOM     21  C   UNL     1       0.772   9.768  19.333  0.00  0.00    +0.000 A 
ATOM     22  C   UNL     1       1.086   8.883  20.376  0.00  0.00    +0.000 A 
ATOM     23  C   UNL     1       1.862   7.744  20.093  0.00  0.00    +0.000 A 
BRANCH  22  24
ATOM     24  C   UNL     1       0.650   9.170  21.795  0.00  0.00    +0.000 C 
ATOM     25  F   UNL     1       0.158  10.427  21.971  0.00  0.00    +0.000 F 
ATOM     26  F   UNL     1      -0.333   8.324  22.212  0.00  0.00    +0.000 F 
ATOM     27  F   UNL     1       1.665   9.037  22.690  0.00  0.00    +0.000 F 
ENDBRANCH  22  24
ENDBRANCH  15  18
ENDBRANCH   1  15
TORSDOF 8
ENDMDL
MODEL 6
REMARK VINA RESULT:      -6.8      1.784      2.695
REMARK  Name = 
REMARK  9 active torsions:
REMARK  status: ('A' for Active; 'I' for Inactive)
REMARK    1  A    between atoms: C_1  and  O_2
REMARK    2  A    between atoms: O_2  and  C_3
REMARK    3  A    between atoms: C_3  and  C_4
REMARK    4  A    between atoms: C_4  and  N_5
REMARK    5  A    between atoms: C_6  and  C_8
REMARK    6  A    between atoms: C_11  and  C_12
REMARK    7  A    between atoms: C_12  and  S_13
REMARK    8  A    between atoms: S_13  and  C_16
REMARK    9  A    between atoms: C_20  and  C_21
REMARK                            x       y       z     vdW  Elec       q    Type
REMARK                         _______ _______ _______ _____ _____    ______ ____
ROOT
ATOM      1  C   UNL     1       2.822   5.653  20.069  0.00  0.00    +0.000 C 
ENDROOT
BRANCH   1   5
ATOM      2  C   UNL     1       1.678   8.842  18.831  0.00  0.00    +0.000 A 
ATOM      3  C   UNL     1       2.463   8.529  17.738  0.00  0.00    +0.000 A 
ATOM      4  C   UNL     1       3.068   7.281  18.009  0.00  0.00    +0.000 A 
ATOM      5  C   UNL     1       2.608   6.879  19.248  0.00  0.00    +0.000 A 
ATOM      6  O   UNL     1       1.787   7.843  19.770  0.00  0.00    +0.000 OA
BRANCH   2   8
ATOM      7  N   UNL     1       0.781  10.421  20.372  0.00  0.00    +0.000 N 
ATOM      8  C   UNL     1       0.817   9.986  19.065  0.00  0.00    +0.000 C 
ATOM      9  O   UNL     1       0.170  10.537  18.177  0.00  0.00    +0.000 OA
ATOM     10  H   UNL     1       1.474  10.043  21.007  0.00  0.00    +0.000 HD
BRANCH   7  11
ATOM     11  C   UNL     1       0.065  11.624  20.751  0.00  0.00    +0.000 C 
BRANCH  11  12
ATOM     12  C   UNL     1      -0.848  11.392  21.952  0.00  0.00    +0.000 C 
BRANCH  12  14
ATOM     13  C   UNL     1      -0.509   9.539  23.375  0.00  0.00    +0.000 C 
ATOM     14  O   UNL     1      -0.074  10.846  23.026  0.00  0.00    +0.000 OA
ENDBRANCH  12  14
ENDBRANCH  11  12
ENDBRANCH   7  11
ENDBRANCH   2   8
ENDBRANCH   1   5
BRANCH   1  15
ATOM     15  S   UNL     1       3.003   4.270  18.950  0.00  0.00    +0.000 S 
ATOM     16  O   UNL     1       2.968   3.034  19.707  0.00  0.00    +0.000 OA
ATOM     17  O   UNL     1       2.109   4.464  17.816  0.00  0.00    +0.000 OA
BRANCH  15  18
ATOM     18  C   UNL     1       4.661   4.387  18.278  0.00  0.00    +0.000 A 
ATOM     19  C   UNL     1       5.699   4.851  19.091  0.00  0.00    +0.000 A 
ATOM     20  C   UNL     1       6.933   5.167  18.522  0.00  0.00    +0.000 A 
ATOM     21  C   UNL     1       7.127   5.039  17.143  0.00  0.00    +0.000 A 
ATOM     22  C   UNL     1       6.091   4.577  16.317  0.00  0.00    +0.000 A 
ATOM     23  C   UNL     1       4.854   4.241  16.897  0.00  0.00    +0.000 A 
BRANCH  22  24
ATOM     24  C   UNL     1       6.274   4.492  14.818  0.00  0.00    +0.000 C 
ATOM     25  F   UNL     1       5.301   5.129  14.112  0.00  0.00    +0.000 F 
ATOM     26  F   UNL     1       7.452   5.043  14.411  0.00  0.00    +0.000 F 
ATOM     27  F   UNL     1       6.285   3.208  14.366  0.00  0.00    +0.000 F 
ENDBRANCH  22  24
ENDBRANCH  15  18
ENDBRANCH   1  15
TORSDOF 8
ENDMDL
MODEL 7
REMARK VINA RESULT:      -6.8      2.017      2.485
REMARK  Name = 
REMARK  9 active torsions:
REMARK  status: ('A' for Active; 'I' for Inactive)
REMARK    1  A    between atoms: C_1  and  O_2
REMARK    2  A    between atoms: O_2  and  C_3
REMARK    3  A    between atoms: C_3  and  C_4
REMARK    4  A    between atoms: C_4  and  N_5
REMARK    5  A    between atoms: C_6  and  C_8
REMARK    6  A    between atoms: C_11  and  C_12
REMARK    7  A    between atoms: C_12  and  S_13
REMARK    8  A    between atoms: S_13  and  C_16
REMARK    9  A    between atoms: C_20  and  C_21
REMARK                            x       y       z     vdW  Elec       q    Type
REMARK                         _______ _______ _______ _____ _____    ______ ____
ROOT
ATOM      1  C   UNL     1       2.181   4.252  18.488  0.00  0.00    +0.000 C 
ENDROOT
BRANCH   1   5
ATOM      2  C   UNL     1       2.036   7.742  19.384  0.00  0.00    +0.000 A 
ATOM      3  C   UNL     1       2.666   7.925  18.168  0.00  0.00    +0.000 A 
ATOM      4  C   UNL     1       2.867   6.642  17.611  0.00  0.00    +0.000 A 
ATOM      5  C   UNL     1       2.333   5.735  18.506  0.00  0.00    +0.000 A 
ATOM      6  O   UNL     1       1.854   6.397  19.604  0.00  0.00    +0.000 OA
BRANCH   2   8
ATOM      7  N   UNL     1       1.641   8.310  21.663  0.00  0.00    +0.000 N 
ATOM      8  C   UNL     1       1.568   8.719  20.350  0.00  0.00    +0.000 C 
ATOM      9  O   UNL     1       1.144   9.830  20.035  0.00  0.00    +0.000 OA
ATOM     10  H   UNL     1       2.168   7.468  21.858  0.00  0.00    +0.000 HD
BRANCH   7  11
ATOM     11  C   UNL     1       1.327   9.210  22.755  0.00  0.00    +0.000 C 
BRANCH  11  12
ATOM     12  C   UNL     1      -0.173   9.473  22.868  0.00  0.00    +0.000 C 
BRANCH  12  14
ATOM     13  C   UNL     1      -1.707  11.257  23.058  0.00  0.00    +0.000 C 
ATOM     14  O   UNL     1      -0.377  10.820  23.307  0.00  0.00    +0.000 OA
ENDBRANCH  12  14
ENDBRANCH  11  12
ENDBRANCH   7  11
ENDBRANCH   2   8
ENDBRANCH   1   5
BRANCH   1  15
ATOM     15  S   UNL     1       3.577   3.548  19.355  0.00  0.00    +0.000 S 
ATOM     16  O   UNL     1       3.609   4.063  20.710  0.00  0.00    +0.000 OA
ATOM     17  O   UNL     1       3.604   2.111  19.115  0.00  0.00    +0.000 OA
BRANCH  15  18
ATOM     18  C   UNL     1       5.042   4.195  18.550  0.00  0.00    +0.000 A 
ATOM     19  C   UNL     1       5.884   5.063  19.252  0.00  0.00    +0.000 A 
ATOM     20  C   UNL     1       6.887   5.753  18.571  0.00  0.00    +0.000 A 
ATOM     21  C   UNL     1       7.040   5.594  17.191  0.00  0.00    +0.000 A 
ATOM     22  C   UNL     1       6.198   4.729  16.474  0.00  0.00    +0.000 A 
ATOM     23  C   UNL     1       5.200   4.020  17.168  0.00  0.00    +0.000 A 
BRANCH  22  24
ATOM     24  C   UNL     1       6.319   4.596  14.973  0.00  0.00    +0.000 C 
ATOM     25  F   UNL     1       6.275   3.309  14.533  0.00  0.00    +0.000 F 
ATOM     26  F   UNL     1       5.319   5.249  14.316  0.00  0.00    +0.000 F 
ATOM     27  F   UNL     1       7.483   5.115  14.496  0.00  0.00    +0.000 F 
ENDBRANCH  22  24
ENDBRANCH  15  18
ENDBRANCH   1  15
TORSDOF 8
ENDMDL
MODEL 8
REMARK VINA RESULT:      -6.8      1.995      3.064
REMARK  Name = 
REMARK  9 active torsions:
REMARK  status: ('A' for Active; 'I' for Inactive)
REMARK    1  A    between atoms: C_1  and  O_2
REMARK    2  A    between atoms: O_2  and  C_3
REMARK    3  A    between atoms: C_3  and  C_4
REMARK    4  A    between atoms: C_4  and  N_5
REMARK    5  A    between atoms: C_6  and  C_8
REMARK    6  A    between atoms: C_11  and  C_12
REMARK    7  A    between atoms: C_12  and  S_13
REMARK    8  A    between atoms: S_13  and  C_16
REMARK    9  A    between atoms: C_20  and  C_21
REMARK                            x       y       z     vdW  Elec       q    Type
REMARK                         _______ _______ _______ _____ _____    ______ ____
ROOT
ATOM      1  C   UNL     1       2.833   6.217  19.926  0.00  0.00    +0.000 C 
ENDROOT
BRANCH   1   5
ATOM      2  C   UNL     1       1.210   9.118  18.526  0.00  0.00    +0.000 A 
ATOM      3  C   UNL     1       2.213   9.035  17.579  0.00  0.00    +0.000 A 
ATOM      4  C   UNL     1       3.033   7.944  17.943  0.00  0.00    +0.000 A 
ATOM      5  C   UNL     1       2.482   7.398  19.086  0.00  0.00    +0.000 A 
ATOM      6  O   UNL     1       1.389   8.129  19.465  0.00  0.00    +0.000 OA
BRANCH   2   8
ATOM      7  N   UNL     1      -0.779   9.986  17.544  0.00  0.00    +0.000 N 
ATOM      8  C   UNL     1       0.084  10.029  18.617  0.00  0.00    +0.000 C 
ATOM      9  O   UNL     1      -0.100  10.781  19.572  0.00  0.00    +0.000 OA
ATOM     10  H   UNL     1      -0.669   9.220  16.890  0.00  0.00    +0.000 HD
BRANCH   7  11
ATOM     11  C   UNL     1      -2.015  10.744  17.535  0.00  0.00    +0.000 C 
BRANCH  11  12
ATOM     12  C   UNL     1      -3.242   9.838  17.607  0.00  0.00    +0.000 C 
BRANCH  12  14
ATOM     13  C   UNL     1      -4.510  11.637  16.753  0.00  0.00    +0.000 C 
ATOM     14  O   UNL     1      -4.410  10.651  17.771  0.00  0.00    +0.000 OA
ENDBRANCH  12  14
ENDBRANCH  11  12
ENDBRANCH   7  11
ENDBRANCH   2   8
ENDBRANCH   1   5
BRANCH   1  15
ATOM     15  S   UNL     1       2.800   4.770  18.876  0.00  0.00    +0.000 S 
ATOM     16  O   UNL     1       2.599   3.589  19.694  0.00  0.00    +0.000 OA
ATOM     17  O   UNL     1       1.928   5.034  17.739  0.00  0.00    +0.000 OA
BRANCH  15  18
ATOM     18  C   UNL     1       4.448   4.614  18.189  0.00  0.00    +0.000 A 
ATOM     19  C   UNL     1       5.556   4.913  18.989  0.00  0.00    +0.000 A 
ATOM     20  C   UNL     1       6.819   5.023  18.407  0.00  0.00    +0.000 A 
ATOM     21  C   UNL     1       6.976   4.855  17.028  0.00  0.00    +0.000 A 
ATOM     22  C   UNL     1       5.872   4.559  16.214  0.00  0.00    +0.000 A 
ATOM     23  C   UNL     1       4.603   4.429  16.808  0.00  0.00    +0.000 A 
BRANCH  22  24
ATOM     24  C   UNL     1       6.024   4.435  14.715  0.00  0.00    +0.000 C 
ATOM     25  F   UNL     1       4.900   4.765  14.022  0.00  0.00    +0.000 F 
ATOM     26  F   UNL     1       7.011   5.239  14.229  0.00  0.00    +0.000 F 
ATOM     27  F   UNL     1       6.346   3.171  14.327  0.00  0.00    +0.000 F 
ENDBRANCH  22  24
ENDBRANCH  15  18
ENDBRANCH   1  15
TORSDOF 8
ENDMDL
MODEL 9
REMARK VINA RESULT:      -6.8      1.796      2.402
REMARK  Name = 
REMARK  9 active torsions:
REMARK  status: ('A' for Active; 'I' for Inactive)
REMARK    1  A    between atoms: C_1  and  O_2
REMARK    2  A    between atoms: O_2  and  C_3
REMARK    3  A    between atoms: C_3  and  C_4
REMARK    4  A    between atoms: C_4  and  N_5
REMARK    5  A    between atoms: C_6  and  C_8
REMARK    6  A    between atoms: C_11  and  C_12
REMARK    7  A    between atoms: C_12  and  S_13
REMARK    8  A    between atoms: S_13  and  C_16
REMARK    9  A    between atoms: C_20  and  C_21
REMARK                            x       y       z     vdW  Elec       q    Type
REMARK                         _______ _______ _______ _____ _____    ______ ____
ROOT
ATOM      1  C   UNL     1       1.810   3.167  18.915  0.00  0.00    +0.000 C 
ENDROOT
BRANCH   1   5
ATOM      2  C   UNL     1       2.117   6.752  19.171  0.00  0.00    +0.000 A 
ATOM      3  C   UNL     1       2.056   6.509  20.530  0.00  0.00    +0.000 A 
ATOM      4  C   UNL     1       1.899   5.114  20.692  0.00  0.00    +0.000 A 
ATOM      5  C   UNL     1       1.891   4.567  19.423  0.00  0.00    +0.000 A 
ATOM      6  O   UNL     1       1.990   5.564  18.490  0.00  0.00    +0.000 OA
BRANCH   2   8
ATOM      7  N   UNL     1       1.484   9.027  18.859  0.00  0.00    +0.000 N 
ATOM      8  C   UNL     1       2.306   7.999  18.453  0.00  0.00    +0.000 C 
ATOM      9  O   UNL     1       3.135   8.142  17.556  0.00  0.00    +0.000 OA
ATOM     10  H   UNL     1       0.964   8.894  19.718  0.00  0.00    +0.000 HD
BRANCH   7  11
ATOM     11  C   UNL     1       1.629  10.368  18.327  0.00  0.00    +0.000 C 
BRANCH  11  12
ATOM     12  C   UNL     1       0.520  11.299  18.814  0.00  0.00    +0.000 C 
BRANCH  12  14
ATOM     13  C   UNL     1       2.086  12.964  19.403  0.00  0.00    +0.000 C 
ATOM     14  O   UNL     1       0.937  12.656  18.625  0.00  0.00    +0.000 OA
ENDBRANCH  12  14
ENDBRANCH  11  12
ENDBRANCH   7  11
ENDBRANCH   2   8
ENDBRANCH   1   5
BRANCH   1  15
ATOM     15  S   UNL     1       3.468   2.496  18.898  0.00  0.00    +0.000 S 
ATOM     16  O   UNL     1       3.961   2.403  20.259  0.00  0.00    +0.000 OA
ATOM     17  O   UNL     1       3.493   1.329  18.026  0.00  0.00    +0.000 OA
BRANCH  15  18
ATOM     18  C   UNL     1       4.494   3.721  18.088  0.00  0.00    +0.000 A 
ATOM     19  C   UNL     1       4.382   3.905  16.706  0.00  0.00    +0.000 A 
ATOM     20  C   UNL     1       5.328   4.679  16.034  0.00  0.00    +0.000 A 
ATOM     21  C   UNL     1       6.395   5.252  16.731  0.00  0.00    +0.000 A 
ATOM     22  C   UNL     1       6.521   5.072  18.118  0.00  0.00    +0.000 A 
ATOM     23  C   UNL     1       5.553   4.307  18.796  0.00  0.00    +0.000 A 
BRANCH  22  24
ATOM     24  C   UNL     1       7.703   5.639  18.870  0.00  0.00    +0.000 C 
ATOM     25  F   UNL     1       7.448   5.884  20.184  0.00  0.00    +0.000 F 
ATOM     26  F   UNL     1       8.777   4.800  18.848  0.00  0.00    +0.000 F 
ATOM     27  F   UNL     1       8.137   6.817  18.346  0.00  0.00    +0.000 F 
ENDBRANCH  22  24
ENDBRANCH  15  18
ENDBRANCH   1  15
TORSDOF 8
ENDMDL
