MODEL 1
REMARK VINA RESULT:      -7.4      0.000      0.000
REMARK  Name = 
REMARK  4 active torsions:
REMARK  status: ('A' for Active; 'I' for Inactive)
REMARK    1  A    between atoms: C_10  and  N_11
REMARK    2  A    between atoms: N_14  and  C_15
REMARK    3  A    between atoms: C_15  and  C_16
REMARK    4  A    between atoms: C_15  and  C_22
REMARK                            x       y       z     vdW  Elec       q    Type
REMARK                         _______ _______ _______ _____ _____    ______ ____
ROOT
ATOM      1  N   UNL     1       2.979  13.605  19.352  0.00  0.00    +0.000 NA
ATOM      2  C   UNL     1       2.390  13.160  20.634  0.00  0.00    +0.000 C 
ATOM      3  C   UNL     1       0.845  13.306  20.784  0.00  0.00    +0.000 C 
ATOM      4  N   UNL     1       0.007  12.931  19.614  0.00  0.00    +0.000 NA
ATOM      5  C   UNL     1       0.633  13.471  18.402  0.00  0.00    +0.000 C 
ATOM      6  C   UNL     1       2.126  13.135  18.257  0.00  0.00    +0.000 C 
ENDROOT
BRANCH   1  16
ATOM      7  O   UNL     1       4.052  15.729  17.080  0.00  0.00    +0.000 OA
ATOM      8  C   UNL     1       4.430  15.397  18.197  0.00  0.00    +0.000 C 
ATOM      9  C   UNL     1       5.843  15.219  18.524  0.00  0.00    +0.000 A 
ATOM     10  C   UNL     1       6.959  14.994  17.681  0.00  0.00    +0.000 A 
ATOM     11  C   UNL     1       7.981  14.538  18.487  0.00  0.00    +0.000 A 
ATOM     12  N   UNL     1       7.560  14.592  19.794  0.00  0.00    +0.000 N 
ATOM     13  C   UNL     1       6.268  15.048  19.827  0.00  0.00    +0.000 A 
ATOM     14  C   UNL     1       5.443  15.164  21.060  0.00  0.00    +0.000 C 
ATOM     15  C   UNL     1       3.995  15.552  20.698  0.00  0.00    +0.000 C 
ATOM     16  C   UNL     1       3.446  15.026  19.338  0.00  0.00    +0.000 C 
ATOM     17  H   UNL     1       8.096  14.266  20.591  0.00  0.00    +0.000 HD
ENDBRANCH   1  16
BRANCH   4  18
ATOM     18  C   UNL     1      -0.274  11.481  19.505  0.00  0.00    +0.000 C 
BRANCH  18  19
ATOM     19  C   UNL     1      -0.179  10.794  20.867  0.00  0.00    +0.000 A 
ATOM     20  C   UNL     1       0.732   9.749  21.100  0.00  0.00    +0.000 A 
ATOM     21  C   UNL     1       0.806   9.122  22.343  0.00  0.00    +0.000 A 
ATOM     22  C   UNL     1      -0.063   9.509  23.359  0.00  0.00    +0.000 A 
ATOM     23  C   UNL     1      -0.989  10.524  23.137  0.00  0.00    +0.000 A 
ATOM     24  C   UNL     1      -1.043  11.172  21.904  0.00  0.00    +0.000 A 
ENDBRANCH  18  19
BRANCH  18  25
ATOM     25  C   UNL     1      -1.641  11.183  18.837  0.00  0.00    +0.000 A 
ATOM     26  C   UNL     1      -1.765  10.120  17.925  0.00  0.00    +0.000 A 
ATOM     27  C   UNL     1      -2.996   9.834  17.320  0.00  0.00    +0.000 A 
ATOM     28  C   UNL     1      -4.122  10.598  17.623  0.00  0.00    +0.000 A 
ATOM     29  C   UNL     1      -4.012  11.674  18.494  0.00  0.00    +0.000 A 
ATOM     30  C   UNL     1      -2.780  11.975  19.078  0.00  0.00    +0.000 A 
ENDBRANCH  18  25
ENDBRANCH   4  18
TORSDOF 4
ENDMDL
MODEL 2
REMARK VINA RESULT:      -7.1      1.168      1.212
REMARK  Name = 
REMARK  4 active torsions:
REMARK  status: ('A' for Active; 'I' for Inactive)
REMARK    1  A    between atoms: C_10  and  N_11
REMARK    2  A    between atoms: N_14  and  C_15
REMARK    3  A    between atoms: C_15  and  C_16
REMARK    4  A    between atoms: C_15  and  C_22
REMARK                            x       y       z     vdW  Elec       q    Type
REMARK                         _______ _______ _______ _____ _____    ______ ____
ROOT
ATOM      1  N   UNL     1       2.593  14.544  19.597  0.00  0.00    +0.000 NA
ATOM      2  C   UNL     1       2.222  13.837  20.842  0.00  0.00    +0.000 C 
ATOM      3  C   UNL     1       0.699  13.611  21.093  0.00  0.00    +0.000 C 
ATOM      4  N   UNL     1      -0.129  13.188  19.931  0.00  0.00    +0.000 NA
ATOM      5  C   UNL     1       0.263  13.987  18.765  0.00  0.00    +0.000 C 
ATOM      6  C   UNL     1       1.777  14.017  18.499  0.00  0.00    +0.000 C 
ENDROOT
BRANCH   1  16
ATOM      7  O   UNL     1       3.546  17.031  17.666  0.00  0.00    +0.000 OA
ATOM      8  C   UNL     1       3.792  16.689  18.816  0.00  0.00    +0.000 C 
ATOM      9  C   UNL     1       5.134  16.777  19.388  0.00  0.00    +0.000 A 
ATOM     10  C   UNL     1       6.398  16.861  18.755  0.00  0.00    +0.000 A 
ATOM     11  C   UNL     1       7.344  16.556  19.712  0.00  0.00    +0.000 A 
ATOM     12  N   UNL     1       6.706  16.410  20.920  0.00  0.00    +0.000 N 
ATOM     13  C   UNL     1       5.360  16.586  20.737  0.00  0.00    +0.000 A 
ATOM     14  C   UNL     1       4.332  16.423  21.802  0.00  0.00    +0.000 C 
ATOM     15  C   UNL     1       2.918  16.534  21.198  0.00  0.00    +0.000 C 
ATOM     16  C   UNL     1       2.735  16.026  19.737  0.00  0.00    +0.000 C 
ATOM     17  H   UNL     1       7.157  16.133  21.785  0.00  0.00    +0.000 HD
ENDBRANCH   1  16
BRANCH   4  18
ATOM     18  C   UNL     1      -0.094  11.733  19.656  0.00  0.00    +0.000 C 
BRANCH  18  19
ATOM     19  C   UNL     1      -0.031  10.925  20.950  0.00  0.00    +0.000 A 
ATOM     20  C   UNL     1       0.904   9.888  21.125  0.00  0.00    +0.000 A 
ATOM     21  C   UNL     1       0.949   9.151  22.306  0.00  0.00    +0.000 A 
ATOM     22  C   UNL     1       0.028   9.415  23.316  0.00  0.00    +0.000 A 
ATOM     23  C   UNL     1      -0.921  10.419  23.149  0.00  0.00    +0.000 A 
ATOM     24  C   UNL     1      -0.947  11.178  21.980  0.00  0.00    +0.000 A 
ENDBRANCH  18  19
BRANCH  18  25
ATOM     25  C   UNL     1      -1.277  11.261  18.773  0.00  0.00    +0.000 A 
ATOM     26  C   UNL     1      -1.083  10.256  17.809  0.00  0.00    +0.000 A 
ATOM     27  C   UNL     1      -2.146   9.813  17.011  0.00  0.00    +0.000 A 
ATOM     28  C   UNL     1      -3.418  10.360  17.169  0.00  0.00    +0.000 A 
ATOM     29  C   UNL     1      -3.623  11.378  18.090  0.00  0.00    +0.000 A 
ATOM     30  C   UNL     1      -2.558  11.838  18.869  0.00  0.00    +0.000 A 
ENDBRANCH  18  25
ENDBRANCH   4  18
TORSDOF 4
ENDMDL
MODEL 3
REMARK VINA RESULT:      -7.0      1.273      1.827
REMARK  Name = 
REMARK  4 active torsions:
REMARK  status: ('A' for Active; 'I' for Inactive)
REMARK    1  A    between atoms: C_10  and  N_11
REMARK    2  A    between atoms: N_14  and  C_15
REMARK    3  A    between atoms: C_15  and  C_16
REMARK    4  A    between atoms: C_15  and  C_22
REMARK                            x       y       z     vdW  Elec       q    Type
REMARK                         _______ _______ _______ _____ _____    ______ ____
ROOT
ATOM      1  N   UNL     1       2.510  14.611  19.782  0.00  0.00    +0.000 NA
ATOM      2  C   UNL     1       2.074  13.891  20.998  0.00  0.00    +0.000 C 
ATOM      3  C   UNL     1       0.542  13.647  21.157  0.00  0.00    +0.000 C 
ATOM      4  N   UNL     1      -0.211  13.224  19.947  0.00  0.00    +0.000 NA
ATOM      5  C   UNL     1       0.240  14.036  18.811  0.00  0.00    +0.000 C 
ATOM      6  C   UNL     1       1.766  14.085  18.635  0.00  0.00    +0.000 C 
ENDROOT
BRANCH   1  16
ATOM      7  O   UNL     1       3.316  17.150  17.851  0.00  0.00    +0.000 OA
ATOM      8  C   UNL     1       3.625  16.794  18.982  0.00  0.00    +0.000 C 
ATOM      9  C   UNL     1       4.990  16.903  19.490  0.00  0.00    +0.000 A 
ATOM     10  C   UNL     1       6.220  17.025  18.799  0.00  0.00    +0.000 A 
ATOM     11  C   UNL     1       7.217  16.726  19.704  0.00  0.00    +0.000 A 
ATOM     12  N   UNL     1       6.642  16.546  20.939  0.00  0.00    +0.000 N 
ATOM     13  C   UNL     1       5.285  16.695  20.824  0.00  0.00    +0.000 A 
ATOM     14  C   UNL     1       4.313  16.492  21.933  0.00  0.00    +0.000 C 
ATOM     15  C   UNL     1       2.870  16.582  21.400  0.00  0.00    +0.000 C 
ATOM     16  C   UNL     1       2.627  16.094  19.941  0.00  0.00    +0.000 C 
ATOM     17  H   UNL     1       7.140  16.265  21.776  0.00  0.00    +0.000 HD
ENDBRANCH   1  16
BRANCH   4  18
ATOM     18  C   UNL     1      -0.144  11.772  19.663  0.00  0.00    +0.000 C 
BRANCH  18  19
ATOM     19  C   UNL     1      -0.116  10.956  20.954  0.00  0.00    +0.000 A 
ATOM     20  C   UNL     1      -1.028  11.197  21.997  0.00  0.00    +0.000 A 
ATOM     21  C   UNL     1      -0.990  10.453  23.174  0.00  0.00    +0.000 A 
ATOM     22  C   UNL     1      -0.008   9.480  23.339  0.00  0.00    +0.000 A 
ATOM     23  C   UNL     1       0.920   9.246  22.329  0.00  0.00    +0.000 A 
ATOM     24  C   UNL     1       0.863   9.969  21.138  0.00  0.00    +0.000 A 
ENDBRANCH  18  19
BRANCH  18  25
ATOM     25  C   UNL     1      -1.288  11.288  18.735  0.00  0.00    +0.000 A 
ATOM     26  C   UNL     1      -2.567  11.863  18.829  0.00  0.00    +0.000 A 
ATOM     27  C   UNL     1      -3.606  11.441  17.991  0.00  0.00    +0.000 A 
ATOM     28  C   UNL     1      -3.383  10.446  17.041  0.00  0.00    +0.000 A 
ATOM     29  C   UNL     1      -2.136   9.840  16.956  0.00  0.00    +0.000 A 
ATOM     30  C   UNL     1      -1.106  10.243  17.809  0.00  0.00    +0.000 A 
ENDBRANCH  18  25
ENDBRANCH   4  18
TORSDOF 4
ENDMDL
MODEL 4
REMARK VINA RESULT:      -6.9      5.121      8.007
REMARK  Name = 
REMARK  4 active torsions:
REMARK  status: ('A' for Active; 'I' for Inactive)
REMARK    1  A    between atoms: C_10  and  N_11
REMARK    2  A    between atoms: N_14  and  C_15
REMARK    3  A    between atoms: C_15  and  C_16
REMARK    4  A    between atoms: C_15  and  C_22
REMARK                            x       y       z     vdW  Elec       q    Type
REMARK                         _______ _______ _______ _____ _____    ______ ____
ROOT
ATOM      1  N   UNL     1       0.862   9.467  19.197  0.00  0.00    +0.000 NA
ATOM      2  C   UNL     1       1.681   9.250  17.985  0.00  0.00    +0.000 C 
ATOM      3  C   UNL     1       3.017   8.469  18.172  0.00  0.00    +0.000 C 
ATOM      4  N   UNL     1       2.992   7.276  19.061  0.00  0.00    +0.000 NA
ATOM      5  C   UNL     1       2.217   7.608  20.261  0.00  0.00    +0.000 C 
ATOM      6  C   UNL     1       0.838   8.225  19.975  0.00  0.00    +0.000 C 
ENDROOT
BRANCH   1  16
ATOM      7  O   UNL     1       0.252  10.695  22.188  0.00  0.00    +0.000 OA
ATOM      8  C   UNL     1       0.131  11.113  21.043  0.00  0.00    +0.000 C 
ATOM      9  C   UNL     1      -1.023  11.901  20.616  0.00  0.00    +0.000 A 
ATOM     10  C   UNL     1      -2.315  12.020  21.186  0.00  0.00    +0.000 A 
ATOM     11  C   UNL     1      -3.125  12.580  20.220  0.00  0.00    +0.000 A 
ATOM     12  N   UNL     1      -2.346  12.911  19.138  0.00  0.00    +0.000 N 
ATOM     13  C   UNL     1      -1.052  12.537  19.391  0.00  0.00    +0.000 A 
ATOM     14  C   UNL     1       0.069  12.658  18.419  0.00  0.00    +0.000 C 
ATOM     15  C   UNL     1       1.338  11.989  18.984  0.00  0.00    +0.000 C 
ATOM     16  C   UNL     1       1.128  10.755  19.911  0.00  0.00    +0.000 C 
ATOM     17  H   UNL     1      -2.695  13.292  18.266  0.00  0.00    +0.000 HD
ENDBRANCH   1  16
BRANCH   4  18
ATOM     18  C   UNL     1       2.514   6.037  18.405  0.00  0.00    +0.000 C 
BRANCH  18  19
ATOM     19  C   UNL     1       3.552   5.491  17.426  0.00  0.00    +0.000 A 
ATOM     20  C   UNL     1       3.692   4.110  17.200  0.00  0.00    +0.000 A 
ATOM     21  C   UNL     1       4.647   3.620  16.311  0.00  0.00    +0.000 A 
ATOM     22  C   UNL     1       5.504   4.508  15.666  0.00  0.00    +0.000 A 
ATOM     23  C   UNL     1       5.397   5.876  15.900  0.00  0.00    +0.000 A 
ATOM     24  C   UNL     1       4.421   6.369  16.765  0.00  0.00    +0.000 A 
ENDBRANCH  18  19
BRANCH  18  25
ATOM     25  C   UNL     1       2.092   4.945  19.421  0.00  0.00    +0.000 A 
ATOM     26  C   UNL     1       2.806   4.780  20.620  0.00  0.00    +0.000 A 
ATOM     27  C   UNL     1       2.430   3.803  21.550  0.00  0.00    +0.000 A 
ATOM     28  C   UNL     1       1.331   2.982  21.302  0.00  0.00    +0.000 A 
ATOM     29  C   UNL     1       0.634   3.104  20.107  0.00  0.00    +0.000 A 
ATOM     30  C   UNL     1       1.024   4.062  19.168  0.00  0.00    +0.000 A 
ENDBRANCH  18  25
ENDBRANCH   4  18
TORSDOF 4
ENDMDL
MODEL 5
REMARK VINA RESULT:      -6.9      5.118      8.022
REMARK  Name = 
REMARK  4 active torsions:
REMARK  status: ('A' for Active; 'I' for Inactive)
REMARK    1  A    between atoms: C_10  and  N_11
REMARK    2  A    between atoms: N_14  and  C_15
REMARK    3  A    between atoms: C_15  and  C_16
REMARK    4  A    between atoms: C_15  and  C_22
REMARK                            x       y       z     vdW  Elec       q    Type
REMARK                         _______ _______ _______ _____ _____    ______ ____
ROOT
ATOM      1  N   UNL     1       0.821   9.441  19.245  0.00  0.00    +0.000 NA
ATOM      2  C   UNL     1       1.625   9.235  18.020  0.00  0.00    +0.000 C 
ATOM      3  C   UNL     1       2.976   8.475  18.189  0.00  0.00    +0.000 C 
ATOM      4  N   UNL     1       2.984   7.284  19.080  0.00  0.00    +0.000 NA
ATOM      5  C   UNL     1       2.222   7.605  20.292  0.00  0.00    +0.000 C 
ATOM      6  C   UNL     1       0.830   8.200  20.025  0.00  0.00    +0.000 C 
ENDROOT
BRANCH   1  16
ATOM      7  O   UNL     1       0.156  10.698  22.211  0.00  0.00    +0.000 OA
ATOM      8  C   UNL     1       0.060  11.106  21.060  0.00  0.00    +0.000 C 
ATOM      9  C   UNL     1      -1.083  11.894  20.603  0.00  0.00    +0.000 A 
ATOM     10  C   UNL     1      -2.385  12.023  21.145  0.00  0.00    +0.000 A 
ATOM     11  C   UNL     1      -3.174  12.578  20.159  0.00  0.00    +0.000 A 
ATOM     12  N   UNL     1      -2.372  12.896  19.090  0.00  0.00    +0.000 N 
ATOM     13  C   UNL     1      -1.084  12.520  19.371  0.00  0.00    +0.000 A 
ATOM     14  C   UNL     1       0.057  12.628  18.422  0.00  0.00    +0.000 C 
ATOM     15  C   UNL     1       1.311  11.959  19.018  0.00  0.00    +0.000 C 
ATOM     16  C   UNL     1       1.078  10.734  19.952  0.00  0.00    +0.000 C 
ATOM     17  H   UNL     1      -2.701  13.271  18.207  0.00  0.00    +0.000 HD
ENDBRANCH   1  16
BRANCH   4  18
ATOM     18  C   UNL     1       2.515   6.036  18.434  0.00  0.00    +0.000 C 
BRANCH  18  19
ATOM     19  C   UNL     1       3.558   5.490  17.460  0.00  0.00    +0.000 A 
ATOM     20  C   UNL     1       4.410   6.347  16.739  0.00  0.00    +0.000 A 
ATOM     21  C   UNL     1       5.353   5.840  15.847  0.00  0.00    +0.000 A 
ATOM     22  C   UNL     1       5.427   4.467  15.634  0.00  0.00    +0.000 A 
ATOM     23  C   UNL     1       4.573   3.607  16.318  0.00  0.00    +0.000 A 
ATOM     24  C   UNL     1       3.651   4.110  17.234  0.00  0.00    +0.000 A 
ENDBRANCH  18  19
BRANCH  18  25
ATOM     25  C   UNL     1       2.101   4.948  19.458  0.00  0.00    +0.000 A 
ATOM     26  C   UNL     1       1.022   4.091  19.181  0.00  0.00    +0.000 A 
ATOM     27  C   UNL     1       0.643   3.098  20.094  0.00  0.00    +0.000 A 
ATOM     28  C   UNL     1       1.341   2.940  21.290  0.00  0.00    +0.000 A 
ATOM     29  C   UNL     1       2.387   3.800  21.598  0.00  0.00    +0.000 A 
ATOM     30  C   UNL     1       2.749   4.806  20.700  0.00  0.00    +0.000 A 
ENDBRANCH  18  25
ENDBRANCH   4  18
TORSDOF 4
ENDMDL
MODEL 6
REMARK VINA RESULT:      -6.8      8.518     11.607
REMARK  Name = 
REMARK  4 active torsions:
REMARK  status: ('A' for Active; 'I' for Inactive)
REMARK    1  A    between atoms: C_10  and  N_11
REMARK    2  A    between atoms: N_14  and  C_15
REMARK    3  A    between atoms: C_15  and  C_16
REMARK    4  A    between atoms: C_15  and  C_22
REMARK                            x       y       z     vdW  Elec       q    Type
REMARK                         _______ _______ _______ _____ _____    ______ ____
ROOT
ATOM      1  N   UNL     1       3.724   2.532  18.900  0.00  0.00    +0.000 NA
ATOM      2  C   UNL     1       3.962   2.028  17.530  0.00  0.00    +0.000 C 
ATOM      3  C   UNL     1       3.961   3.084  16.384  0.00  0.00    +0.000 C 
ATOM      4  N   UNL     1       4.657   4.373  16.643  0.00  0.00    +0.000 NA
ATOM      5  C   UNL     1       4.309   4.826  17.994  0.00  0.00    +0.000 C 
ATOM      6  C   UNL     1       4.499   3.762  19.087  0.00  0.00    +0.000 C 
ENDROOT
BRANCH   1  16
ATOM      7  O   UNL     1       0.871   3.675  17.725  0.00  0.00    +0.000 OA
ATOM      8  C   UNL     1       1.421   3.689  18.819  0.00  0.00    +0.000 C 
ATOM      9  C   UNL     1       1.390   4.859  19.694  0.00  0.00    +0.000 A 
ATOM     10  C   UNL     1       1.133   6.220  19.398  0.00  0.00    +0.000 A 
ATOM     11  C   UNL     1       1.579   6.954  20.478  0.00  0.00    +0.000 A 
ATOM     12  N   UNL     1       1.984   6.080  21.458  0.00  0.00    +0.000 N 
ATOM     13  C   UNL     1       1.831   4.797  21.002  0.00  0.00    +0.000 A 
ATOM     14  C   UNL     1       2.240   3.577  21.751  0.00  0.00    +0.000 C 
ATOM     15  C   UNL     1       2.071   2.327  20.865  0.00  0.00    +0.000 C 
ATOM     16  C   UNL     1       2.292   2.514  19.334  0.00  0.00    +0.000 C 
ATOM     17  H   UNL     1       2.405   6.351  22.340  0.00  0.00    +0.000 HD
ENDBRANCH   1  16
BRANCH   4  18
ATOM     18  C   UNL     1       6.121   4.330  16.423  0.00  0.00    +0.000 C 
BRANCH  18  19
ATOM     19  C   UNL     1       6.460   4.354  14.933  0.00  0.00    +0.000 A 
ATOM     20  C   UNL     1       5.745   3.577  14.005  0.00  0.00    +0.000 A 
ATOM     21  C   UNL     1       6.065   3.600  12.649  0.00  0.00    +0.000 A 
ATOM     22  C   UNL     1       7.135   4.373  12.210  0.00  0.00    +0.000 A 
ATOM     23  C   UNL     1       7.871   5.128  13.119  0.00  0.00    +0.000 A 
ATOM     24  C   UNL     1       7.532   5.130  14.471  0.00  0.00    +0.000 A 
ENDBRANCH  18  19
BRANCH  18  25
ATOM     25  C   UNL     1       6.875   5.458  17.173  0.00  0.00    +0.000 A 
ATOM     26  C   UNL     1       7.638   5.160  18.316  0.00  0.00    +0.000 A 
ATOM     27  C   UNL     1       8.331   6.168  18.998  0.00  0.00    +0.000 A 
ATOM     28  C   UNL     1       8.281   7.486  18.545  0.00  0.00    +0.000 A 
ATOM     29  C   UNL     1       7.505   7.806  17.439  0.00  0.00    +0.000 A 
ATOM     30  C   UNL     1       6.793   6.806  16.774  0.00  0.00    +0.000 A 
ENDBRANCH  18  25
ENDBRANCH   4  18
TORSDOF 4
ENDMDL
MODEL 7
REMARK VINA RESULT:      -6.8      2.085      3.515
REMARK  Name = 
REMARK  4 active torsions:
REMARK  status: ('A' for Active; 'I' for Inactive)
REMARK    1  A    between atoms: C_10  and  N_11
REMARK    2  A    between atoms: N_14  and  C_15
REMARK    3  A    between atoms: C_15  and  C_16
REMARK    4  A    between atoms: C_15  and  C_22
REMARK                            x       y       z     vdW  Elec       q    Type
REMARK                         _______ _______ _______ _____ _____    ______ ____
ROOT
ATOM      1  N   UNL     1       2.976  14.274  19.511  0.00  0.00    +0.000 NA
ATOM      2  C   UNL     1       2.555  13.627  20.773  0.00  0.00    +0.000 C 
ATOM      3  C   UNL     1       1.020  13.525  21.030  0.00  0.00    +0.000 C 
ATOM      4  N   UNL     1       0.159  13.141  19.880  0.00  0.00    +0.000 NA
ATOM      5  C   UNL     1       0.608  13.880  18.696  0.00  0.00    +0.000 C 
ATOM      6  C   UNL     1       2.119  13.787  18.427  0.00  0.00    +0.000 C 
ENDROOT
BRANCH   1  16
ATOM      7  O   UNL     1       2.191  16.676  21.618  0.00  0.00    +0.000 OA
ATOM      8  C   UNL     1       2.168  16.556  20.400  0.00  0.00    +0.000 C 
ATOM      9  C   UNL     1       1.074  17.079  19.583  0.00  0.00    +0.000 A 
ATOM     10  C   UNL     1      -0.251  17.431  19.940  0.00  0.00    +0.000 A 
ATOM     11  C   UNL     1      -0.970  17.516  18.766  0.00  0.00    +0.000 A 
ATOM     12  N   UNL     1      -0.103  17.347  17.713  0.00  0.00    +0.000 N 
ATOM     13  C   UNL     1       1.156  17.122  18.205  0.00  0.00    +0.000 A 
ATOM     14  C   UNL     1       2.348  16.812  17.370  0.00  0.00    +0.000 C 
ATOM     15  C   UNL     1       3.550  16.456  18.268  0.00  0.00    +0.000 C 
ATOM     16  C   UNL     1       3.232  15.744  19.617  0.00  0.00    +0.000 C 
ATOM     17  H   UNL     1      -0.375  17.312  16.737  0.00  0.00    +0.000 HD
ENDBRANCH   1  16
BRANCH   4  18
ATOM     18  C   UNL     1       0.081  11.682  19.638  0.00  0.00    +0.000 C 
BRANCH  18  19
ATOM     19  C   UNL     1       0.072  10.901  20.951  0.00  0.00    +0.000 A 
ATOM     20  C   UNL     1       0.990   9.863  21.194  0.00  0.00    +0.000 A 
ATOM     21  C   UNL     1       0.971   9.151  22.392  0.00  0.00    +0.000 A 
ATOM     22  C   UNL     1       0.002   9.442  23.347  0.00  0.00    +0.000 A 
ATOM     23  C   UNL     1      -0.932  10.448  23.111  0.00  0.00    +0.000 A 
ATOM     24  C   UNL     1      -0.893  11.181  21.927  0.00  0.00    +0.000 A 
ENDBRANCH  18  19
BRANCH  18  25
ATOM     25  C   UNL     1      -1.132  11.283  18.757  0.00  0.00    +0.000 A 
ATOM     26  C   UNL     1      -1.007  10.255  17.806  0.00  0.00    +0.000 A 
ATOM     27  C   UNL     1      -2.097   9.879  17.010  0.00  0.00    +0.000 A 
ATOM     28  C   UNL     1      -3.328  10.517  17.158  0.00  0.00    +0.000 A 
ATOM     29  C   UNL     1      -3.461  11.559  18.066  0.00  0.00    +0.000 A 
ATOM     30  C   UNL     1      -2.368  11.951  18.842  0.00  0.00    +0.000 A 
ENDBRANCH  18  25
ENDBRANCH   4  18
TORSDOF 4
ENDMDL
MODEL 8
REMARK VINA RESULT:      -6.8      8.524     11.612
REMARK  Name = 
REMARK  4 active torsions:
REMARK  status: ('A' for Active; 'I' for Inactive)
REMARK    1  A    between atoms: C_10  and  N_11
REMARK    2  A    between atoms: N_14  and  C_15
REMARK    3  A    between atoms: C_15  and  C_16
REMARK    4  A    between atoms: C_15  and  C_22
REMARK                            x       y       z     vdW  Elec       q    Type
REMARK                         _______ _______ _______ _____ _____    ______ ____
ROOT
ATOM      1  N   UNL     1       3.735   2.559  18.915  0.00  0.00    +0.000 NA
ATOM      2  C   UNL     1       3.986   2.016  17.563  0.00  0.00    +0.000 C 
ATOM      3  C   UNL     1       4.001   3.040  16.387  0.00  0.00    +0.000 C 
ATOM      4  N   UNL     1       4.699   4.333  16.617  0.00  0.00    +0.000 NA
ATOM      5  C   UNL     1       4.339   4.825  17.951  0.00  0.00    +0.000 C 
ATOM      6  C   UNL     1       4.513   3.791  19.076  0.00  0.00    +0.000 C 
ENDROOT
BRANCH   1  16
ATOM      7  O   UNL     1       0.905   3.711  17.696  0.00  0.00    +0.000 OA
ATOM      8  C   UNL     1       1.443   3.734  18.796  0.00  0.00    +0.000 C 
ATOM      9  C   UNL     1       1.413   4.915  19.657  0.00  0.00    +0.000 A 
ATOM     10  C   UNL     1       1.171   6.274  19.341  0.00  0.00    +0.000 A 
ATOM     11  C   UNL     1       1.612   7.017  20.417  0.00  0.00    +0.000 A 
ATOM     12  N   UNL     1       1.999   6.152  21.412  0.00  0.00    +0.000 N 
ATOM     13  C   UNL     1       1.840   4.865  20.969  0.00  0.00    +0.000 A 
ATOM     14  C   UNL     1       2.231   3.651  21.737  0.00  0.00    +0.000 C 
ATOM     15  C   UNL     1       2.061   2.391  20.865  0.00  0.00    +0.000 C 
ATOM     16  C   UNL     1       2.299   2.558  19.335  0.00  0.00    +0.000 C 
ATOM     17  H   UNL     1       2.413   6.430  22.294  0.00  0.00    +0.000 HD
ENDBRANCH   1  16
BRANCH   4  18
ATOM     18  C   UNL     1       6.165   4.278  16.414  0.00  0.00    +0.000 C 
BRANCH  18  19
ATOM     19  C   UNL     1       6.522   4.321  14.929  0.00  0.00    +0.000 A 
ATOM     20  C   UNL     1       7.575   5.120  14.449  0.00  0.00    +0.000 A 
ATOM     21  C   UNL     1       7.888   5.159  13.092  0.00  0.00    +0.000 A 
ATOM     22  C   UNL     1       7.121   4.427  12.189  0.00  0.00    +0.000 A 
ATOM     23  C   UNL     1       6.058   3.653  12.644  0.00  0.00    +0.000 A 
ATOM     24  C   UNL     1       5.763   3.589  14.005  0.00  0.00    +0.000 A 
ENDBRANCH  18  19
BRANCH  18  25
ATOM     25  C   UNL     1       6.921   5.388  17.189  0.00  0.00    +0.000 A 
ATOM     26  C   UNL     1       6.899   6.715  16.727  0.00  0.00    +0.000 A 
ATOM     27  C   UNL     1       7.570   7.728  17.422  0.00  0.00    +0.000 A 
ATOM     28  C   UNL     1       8.265   7.434  18.594  0.00  0.00    +0.000 A 
ATOM     29  C   UNL     1       8.330   6.123  19.049  0.00  0.00    +0.000 A 
ATOM     30  C   UNL     1       7.682   5.109  18.341  0.00  0.00    +0.000 A 
ENDBRANCH  18  25
ENDBRANCH   4  18
TORSDOF 4
ENDMDL
MODEL 9
REMARK VINA RESULT:      -6.7      1.412      2.027
REMARK  Name = 
REMARK  4 active torsions:
REMARK  status: ('A' for Active; 'I' for Inactive)
REMARK    1  A    between atoms: C_10  and  N_11
REMARK    2  A    between atoms: N_14  and  C_15
REMARK    3  A    between atoms: C_15  and  C_16
REMARK    4  A    between atoms: C_15  and  C_22
REMARK                            x       y       z     vdW  Elec       q    Type
REMARK                         _______ _______ _______ _____ _____    ______ ____
ROOT
ATOM      1  N   UNL     1       2.379  14.116  19.570  0.00  0.00    +0.000 NA
ATOM      2  C   UNL     1       2.194  12.957  20.470  0.00  0.00    +0.000 C 
ATOM      3  C   UNL     1       0.725  12.558  20.806  0.00  0.00    +0.000 C 
ATOM      4  N   UNL     1      -0.258  12.572  19.690  0.00  0.00    +0.000 NA
ATOM      5  C   UNL     1      -0.042  13.786  18.895  0.00  0.00    +0.000 C 
ATOM      6  C   UNL     1       1.418  14.011  18.469  0.00  0.00    +0.000 C 
ENDROOT
BRANCH   1  16
ATOM      7  O   UNL     1       2.773  17.253  18.658  0.00  0.00    +0.000 OA
ATOM      8  C   UNL     1       3.309  16.519  19.479  0.00  0.00    +0.000 C 
ATOM      9  C   UNL     1       4.751  16.533  19.716  0.00  0.00    +0.000 A 
ATOM     10  C   UNL     1       5.810  17.004  18.901  0.00  0.00    +0.000 A 
ATOM     11  C   UNL     1       6.974  16.462  19.408  0.00  0.00    +0.000 A 
ATOM     12  N   UNL     1       6.668  15.782  20.562  0.00  0.00    +0.000 N 
ATOM     13  C   UNL     1       5.317  15.857  20.779  0.00  0.00    +0.000 A 
ATOM     14  C   UNL     1       4.598  15.173  21.888  0.00  0.00    +0.000 C 
ATOM     15  C   UNL     1       3.076  15.346  21.723  0.00  0.00    +0.000 C 
ATOM     16  C   UNL     1       2.532  15.432  20.265  0.00  0.00    +0.000 C 
ATOM     17  H   UNL     1       7.329  15.245  21.111  0.00  0.00    +0.000 HD
ENDBRANCH   1  16
BRANCH   4  18
ATOM     18  C   UNL     1      -0.255  11.346  18.860  0.00  0.00    +0.000 C 
BRANCH  18  19
ATOM     19  C   UNL     1       0.197  10.130  19.667  0.00  0.00    +0.000 A 
ATOM     20  C   UNL     1      -0.446   9.761  20.862  0.00  0.00    +0.000 A 
ATOM     21  C   UNL     1      -0.022   8.655  21.596  0.00  0.00    +0.000 A 
ATOM     22  C   UNL     1       1.081   7.926  21.162  0.00  0.00    +0.000 A 
ATOM     23  C   UNL     1       1.746   8.293  19.995  0.00  0.00    +0.000 A 
ATOM     24  C   UNL     1       1.303   9.380  19.244  0.00  0.00    +0.000 A 
ENDBRANCH  18  19
BRANCH  18  25
ATOM     25  C   UNL     1      -1.624  11.075  18.184  0.00  0.00    +0.000 A 
ATOM     26  C   UNL     1      -2.778  11.743  18.629  0.00  0.00    +0.000 A 
ATOM     27  C   UNL     1      -4.018  11.514  18.022  0.00  0.00    +0.000 A 
ATOM     28  C   UNL     1      -4.125  10.623  16.955  0.00  0.00    +0.000 A 
ATOM     29  C   UNL     1      -3.004   9.926  16.523  0.00  0.00    +0.000 A 
ATOM     30  C   UNL     1      -1.771  10.135  17.145  0.00  0.00    +0.000 A 
ENDBRANCH  18  25
ENDBRANCH   4  18
TORSDOF 4
ENDMDL
