MODEL 1
REMARK VINA RESULT:      -8.3      0.000      0.000
REMARK  Name = 
REMARK  6 active torsions:
REMARK  status: ('A' for Active; 'I' for Inactive)
REMARK    1  A    between atoms: C_4  and  C_5
REMARK    2  A    between atoms: C_5  and  C_6
REMARK    3  A    between atoms: C_6  and  C_7
REMARK    4  A    between atoms: C_7  and  C_8
REMARK    5  A    between atoms: C_8  and  N_9
REMARK    6  A    between atoms: C_14  and  C_15
REMARK                            x       y       z     vdW  Elec       q    Type
REMARK                         _______ _______ _______ _____ _____    ______ ____
ROOT
ATOM      1  N   UNL     1       6.215   5.240  16.956  0.00  0.00    +0.000 N 
ATOM      2  C   UNL     1       6.980   4.719  18.006  0.00  0.00    +0.000 A 
ATOM      3  C   UNL     1       7.826   5.426  18.775  0.00  0.00    +0.000 A 
ATOM      4  C   UNL     1       7.935   6.853  18.453  0.00  0.00    +0.000 A 
ATOM      5  N   UNL     1       8.664   7.793  18.969  0.00  0.00    +0.000 NA
ATOM      6  C   UNL     1       8.294   8.920  18.230  0.00  0.00    +0.000 A 
ATOM      7  N   UNL     1       7.393   8.747  17.295  0.00  0.00    +0.000 NA
ATOM      8  C   UNL     1       7.118   7.418  17.380  0.00  0.00    +0.000 A 
ATOM      9  C   UNL     1       6.307   6.614  16.698  0.00  0.00    +0.000 A 
ENDROOT
BRANCH   6  10
ATOM     10  C   UNL     1       8.905  10.229  18.537  0.00  0.00    +0.000 A 
ATOM     11  C   UNL     1       9.699  10.400  19.675  0.00  0.00    +0.000 A 
ATOM     12  C   UNL     1      10.233  11.656  19.967  0.00  0.00    +0.000 A 
ATOM     13  C   UNL     1       9.974  12.739  19.125  0.00  0.00    +0.000 A 
ATOM     14  C   UNL     1       9.194  12.567  17.981  0.00  0.00    +0.000 A 
ATOM     15  C   UNL     1       8.663  11.313  17.684  0.00  0.00    +0.000 A 
ENDBRANCH   6  10
BRANCH   1  16
ATOM     16  C   UNL     1       5.331   4.376  16.157  0.00  0.00    +0.000 C 
BRANCH  16  17
ATOM     17  C   UNL     1       4.033   4.024  16.892  0.00  0.00    +0.000 C 
BRANCH  17  18
ATOM     18  C   UNL     1       3.316   5.248  17.470  0.00  0.00    +0.000 C 
BRANCH  18  19
ATOM     19  C   UNL     1       1.869   4.912  17.840  0.00  0.00    +0.000 C 
BRANCH  19  23
ATOM     20  C   UNL     1       1.685   2.870  21.634  0.00  0.00    +0.000 A 
ATOM     21  C   UNL     1       2.262   4.136  21.547  0.00  0.00    +0.000 A 
ATOM     22  C   UNL     1       2.312   4.799  20.321  0.00  0.00    +0.000 A 
ATOM     23  C   UNL     1       1.783   4.203  19.168  0.00  0.00    +0.000 A 
ATOM     24  C   UNL     1       1.202   2.931  19.265  0.00  0.00    +0.000 A 
ATOM     25  C   UNL     1       1.153   2.269  20.494  0.00  0.00    +0.000 A 
ENDBRANCH  19  23
ENDBRANCH  18  19
ENDBRANCH  17  18
ENDBRANCH  16  17
ENDBRANCH   1  16
TORSDOF 6
ENDMDL
MODEL 2
REMARK VINA RESULT:      -8.1      0.560      1.116
REMARK  Name = 
REMARK  6 active torsions:
REMARK  status: ('A' for Active; 'I' for Inactive)
REMARK    1  A    between atoms: C_4  and  C_5
REMARK    2  A    between atoms: C_5  and  C_6
REMARK    3  A    between atoms: C_6  and  C_7
REMARK    4  A    between atoms: C_7  and  C_8
REMARK    5  A    between atoms: C_8  and  N_9
REMARK    6  A    between atoms: C_14  and  C_15
REMARK                            x       y       z     vdW  Elec       q    Type
REMARK                         _______ _______ _______ _____ _____    ______ ____
ROOT
ATOM      1  N   UNL     1       5.897   5.416  17.048  0.00  0.00    +0.000 N 
ATOM      2  C   UNL     1       6.690   4.784  18.013  0.00  0.00    +0.000 A 
ATOM      3  C   UNL     1       7.643   5.382  18.748  0.00  0.00    +0.000 A 
ATOM      4  C   UNL     1       7.845   6.811  18.484  0.00  0.00    +0.000 A 
ATOM      5  N   UNL     1       8.683   7.663  18.986  0.00  0.00    +0.000 NA
ATOM      6  C   UNL     1       8.354   8.853  18.329  0.00  0.00    +0.000 A 
ATOM      7  N   UNL     1       7.377   8.798  17.457  0.00  0.00    +0.000 NA
ATOM      8  C   UNL     1       7.002   7.493  17.502  0.00  0.00    +0.000 A 
ATOM      9  C   UNL     1       6.082   6.790  16.847  0.00  0.00    +0.000 A 
ENDROOT
BRANCH   6  10
ATOM     10  C   UNL     1       9.089  10.093  18.648  0.00  0.00    +0.000 A 
ATOM     11  C   UNL     1       9.381  10.432  19.973  0.00  0.00    +0.000 A 
ATOM     12  C   UNL     1      10.041  11.629  20.254  0.00  0.00    +0.000 A 
ATOM     13  C   UNL     1      10.410  12.485  19.215  0.00  0.00    +0.000 A 
ATOM     14  C   UNL     1      10.134  12.141  17.892  0.00  0.00    +0.000 A 
ATOM     15  C   UNL     1       9.477  10.945  17.607  0.00  0.00    +0.000 A 
ENDBRANCH   6  10
BRANCH   1  16
ATOM     16  C   UNL     1       4.890   4.666  16.279  0.00  0.00    +0.000 C 
BRANCH  16  17
ATOM     17  C   UNL     1       4.102   3.681  17.149  0.00  0.00    +0.000 C 
BRANCH  17  18
ATOM     18  C   UNL     1       2.636   3.543  16.726  0.00  0.00    +0.000 C 
BRANCH  18  19
ATOM     19  C   UNL     1       1.729   4.416  17.598  0.00  0.00    +0.000 C 
BRANCH  19  23
ATOM     20  C   UNL     1       1.868   3.284  21.756  0.00  0.00    +0.000 A 
ATOM     21  C   UNL     1       1.418   2.377  20.798  0.00  0.00    +0.000 A 
ATOM     22  C   UNL     1       1.383   2.741  19.452  0.00  0.00    +0.000 A 
ATOM     23  C   UNL     1       1.800   4.018  19.050  0.00  0.00    +0.000 A 
ATOM     24  C   UNL     1       2.253   4.923  20.021  0.00  0.00    +0.000 A 
ATOM     25  C   UNL     1       2.287   4.555  21.367  0.00  0.00    +0.000 A 
ENDBRANCH  19  23
ENDBRANCH  18  19
ENDBRANCH  17  18
ENDBRANCH  16  17
ENDBRANCH   1  16
TORSDOF 6
ENDMDL
MODEL 3
REMARK VINA RESULT:      -8.0      0.867      1.313
REMARK  Name = 
REMARK  6 active torsions:
REMARK  status: ('A' for Active; 'I' for Inactive)
REMARK    1  A    between atoms: C_4  and  C_5
REMARK    2  A    between atoms: C_5  and  C_6
REMARK    3  A    between atoms: C_6  and  C_7
REMARK    4  A    between atoms: C_7  and  C_8
REMARK    5  A    between atoms: C_8  and  N_9
REMARK    6  A    between atoms: C_14  and  C_15
REMARK                            x       y       z     vdW  Elec       q    Type
REMARK                         _______ _______ _______ _____ _____    ______ ____
ROOT
ATOM      1  N   UNL     1       6.206   5.218  17.145  0.00  0.00    +0.000 N 
ATOM      2  C   UNL     1       7.033   4.771  18.183  0.00  0.00    +0.000 A 
ATOM      3  C   UNL     1       7.895   5.537  18.872  0.00  0.00    +0.000 A 
ATOM      4  C   UNL     1       7.951   6.948  18.474  0.00  0.00    +0.000 A 
ATOM      5  N   UNL     1       8.679   7.930  18.905  0.00  0.00    +0.000 NA
ATOM      6  C   UNL     1       8.245   9.008  18.128  0.00  0.00    +0.000 A 
ATOM      7  N   UNL     1       7.305   8.765  17.248  0.00  0.00    +0.000 NA
ATOM      8  C   UNL     1       7.070   7.437  17.414  0.00  0.00    +0.000 A 
ATOM      9  C   UNL     1       6.249   6.579  16.814  0.00  0.00    +0.000 A 
ENDROOT
BRANCH   6  10
ATOM     10  C   UNL     1       8.834  10.346  18.338  0.00  0.00    +0.000 A 
ATOM     11  C   UNL     1       9.838  10.545  19.291  0.00  0.00    +0.000 A 
ATOM     12  C   UNL     1      10.352  11.825  19.500  0.00  0.00    +0.000 A 
ATOM     13  C   UNL     1       9.866  12.904  18.760  0.00  0.00    +0.000 A 
ATOM     14  C   UNL     1       8.875  12.705  17.799  0.00  0.00    +0.000 A 
ATOM     15  C   UNL     1       8.361  11.427  17.584  0.00  0.00    +0.000 A 
ENDBRANCH   6  10
BRANCH   1  16
ATOM     16  C   UNL     1       5.308   4.293  16.435  0.00  0.00    +0.000 C 
BRANCH  16  17
ATOM     17  C   UNL     1       3.860   4.386  16.927  0.00  0.00    +0.000 C 
BRANCH  17  18
ATOM     18  C   UNL     1       3.083   3.076  16.771  0.00  0.00    +0.000 C 
BRANCH  18  19
ATOM     19  C   UNL     1       3.427   2.096  17.897  0.00  0.00    +0.000 C 
BRANCH  19  23
ATOM     20  C   UNL     1       1.295   3.088  21.511  0.00  0.00    +0.000 A 
ATOM     21  C   UNL     1       0.627   3.063  20.288  0.00  0.00    +0.000 A 
ATOM     22  C   UNL     1       1.316   2.733  19.121  0.00  0.00    +0.000 A 
ATOM     23  C   UNL     1       2.682   2.422  19.166  0.00  0.00    +0.000 A 
ATOM     24  C   UNL     1       3.345   2.447  20.401  0.00  0.00    +0.000 A 
ATOM     25  C   UNL     1       2.652   2.777  21.568  0.00  0.00    +0.000 A 
ENDBRANCH  19  23
ENDBRANCH  18  19
ENDBRANCH  17  18
ENDBRANCH  16  17
ENDBRANCH   1  16
TORSDOF 6
ENDMDL
MODEL 4
REMARK VINA RESULT:      -8.0      1.541      2.399
REMARK  Name = 
REMARK  6 active torsions:
REMARK  status: ('A' for Active; 'I' for Inactive)
REMARK    1  A    between atoms: C_4  and  C_5
REMARK    2  A    between atoms: C_5  and  C_6
REMARK    3  A    between atoms: C_6  and  C_7
REMARK    4  A    between atoms: C_7  and  C_8
REMARK    5  A    between atoms: C_8  and  N_9
REMARK    6  A    between atoms: C_14  and  C_15
REMARK                            x       y       z     vdW  Elec       q    Type
REMARK                         _______ _______ _______ _____ _____    ______ ____
ROOT
ATOM      1  N   UNL     1       6.081   5.181  16.967  0.00  0.00    +0.000 N 
ATOM      2  C   UNL     1       6.920   4.655  17.956  0.00  0.00    +0.000 A 
ATOM      3  C   UNL     1       7.806   5.362  18.679  0.00  0.00    +0.000 A 
ATOM      4  C   UNL     1       7.875   6.795  18.374  0.00  0.00    +0.000 A 
ATOM      5  N   UNL     1       8.624   7.737  18.856  0.00  0.00    +0.000 NA
ATOM      6  C   UNL     1       8.191   8.870  18.162  0.00  0.00    +0.000 A 
ATOM      7  N   UNL     1       7.232   8.699  17.286  0.00  0.00    +0.000 NA
ATOM      8  C   UNL     1       6.981   7.365  17.367  0.00  0.00    +0.000 A 
ATOM      9  C   UNL     1       6.138   6.560  16.727  0.00  0.00    +0.000 A 
ENDROOT
BRANCH   6  10
ATOM     10  C   UNL     1       8.803  10.183  18.449  0.00  0.00    +0.000 A 
ATOM     11  C   UNL     1       9.657  10.351  19.543  0.00  0.00    +0.000 A 
ATOM     12  C   UNL     1      10.193  11.610  19.819  0.00  0.00    +0.000 A 
ATOM     13  C   UNL     1       9.877  12.698  19.005  0.00  0.00    +0.000 A 
ATOM     14  C   UNL     1       9.037  12.529  17.904  0.00  0.00    +0.000 A 
ATOM     15  C   UNL     1       8.503  11.273  17.623  0.00  0.00    +0.000 A 
ENDBRANCH   6  10
BRANCH   1  16
ATOM     16  C   UNL     1       5.157   4.317  16.214  0.00  0.00    +0.000 C 
BRANCH  16  17
ATOM     17  C   UNL     1       4.156   3.596  17.123  0.00  0.00    +0.000 C 
BRANCH  17  18
ATOM     18  C   UNL     1       2.938   4.453  17.479  0.00  0.00    +0.000 C 
BRANCH  18  19
ATOM     19  C   UNL     1       3.006   4.928  18.932  0.00  0.00    +0.000 C 
BRANCH  19  23
ATOM     20  C   UNL     1       1.540   8.959  19.373  0.00  0.00    +0.000 A 
ATOM     21  C   UNL     1       2.006   8.514  18.137  0.00  0.00    +0.000 A 
ATOM     22  C   UNL     1       2.471   7.207  17.994  0.00  0.00    +0.000 A 
ATOM     23  C   UNL     1       2.473   6.329  19.087  0.00  0.00    +0.000 A 
ATOM     24  C   UNL     1       2.000   6.784  20.326  0.00  0.00    +0.000 A 
ATOM     25  C   UNL     1       1.534   8.093  20.466  0.00  0.00    +0.000 A 
ENDBRANCH  19  23
ENDBRANCH  18  19
ENDBRANCH  17  18
ENDBRANCH  16  17
ENDBRANCH   1  16
TORSDOF 6
ENDMDL
MODEL 5
REMARK VINA RESULT:      -8.0      5.029      6.926
REMARK  Name = 
REMARK  6 active torsions:
REMARK  status: ('A' for Active; 'I' for Inactive)
REMARK    1  A    between atoms: C_4  and  C_5
REMARK    2  A    between atoms: C_5  and  C_6
REMARK    3  A    between atoms: C_6  and  C_7
REMARK    4  A    between atoms: C_7  and  C_8
REMARK    5  A    between atoms: C_8  and  N_9
REMARK    6  A    between atoms: C_14  and  C_15
REMARK                            x       y       z     vdW  Elec       q    Type
REMARK                         _______ _______ _______ _____ _____    ______ ____
ROOT
ATOM      1  N   UNL     1       2.964   7.128  18.393  0.00  0.00    +0.000 N 
ATOM      2  C   UNL     1       2.733   6.376  19.551  0.00  0.00    +0.000 A 
ATOM      3  C   UNL     1       1.954   6.752  20.578  0.00  0.00    +0.000 A 
ATOM      4  C   UNL     1       1.314   8.065  20.443  0.00  0.00    +0.000 A 
ATOM      5  N   UNL     1       0.539   8.726  21.245  0.00  0.00    +0.000 NA
ATOM      6  C   UNL     1       0.265   9.894  20.527  0.00  0.00    +0.000 A 
ATOM      7  N   UNL     1       0.813  10.004  19.342  0.00  0.00    +0.000 NA
ATOM      8  C   UNL     1       1.518   8.848  19.224  0.00  0.00    +0.000 A 
ATOM      9  C   UNL     1       2.307   8.359  18.271  0.00  0.00    +0.000 A 
ENDROOT
BRANCH   6  10
ATOM     10  C   UNL     1      -0.623  10.920  21.109  0.00  0.00    +0.000 A 
ATOM     11  C   UNL     1      -0.771  11.036  22.495  0.00  0.00    +0.000 A 
ATOM     12  C   UNL     1      -1.647  11.986  23.022  0.00  0.00    +0.000 A 
ATOM     13  C   UNL     1      -2.372  12.819  22.169  0.00  0.00    +0.000 A 
ATOM     14  C   UNL     1      -2.214  12.715  20.787  0.00  0.00    +0.000 A 
ATOM     15  C   UNL     1      -1.338  11.769  20.256  0.00  0.00    +0.000 A 
ENDBRANCH   6  10
BRANCH   1  16
ATOM     16  C   UNL     1       3.855   6.635  17.330  0.00  0.00    +0.000 C 
BRANCH  16  17
ATOM     17  C   UNL     1       4.497   5.289  17.679  0.00  0.00    +0.000 C 
BRANCH  17  18
ATOM     18  C   UNL     1       3.882   4.111  16.917  0.00  0.00    +0.000 C 
BRANCH  18  19
ATOM     19  C   UNL     1       3.968   2.821  17.737  0.00  0.00    +0.000 C 
BRANCH  19  23
ATOM     20  C   UNL     1       1.227   2.929  21.065  0.00  0.00    +0.000 A 
ATOM     21  C   UNL     1       0.748   3.022  19.759  0.00  0.00    +0.000 A 
ATOM     22  C   UNL     1       1.635   2.977  18.683  0.00  0.00    +0.000 A 
ATOM     23  C   UNL     1       3.012   2.837  18.903  0.00  0.00    +0.000 A 
ATOM     24  C   UNL     1       3.485   2.741  20.220  0.00  0.00    +0.000 A 
ATOM     25  C   UNL     1       2.594   2.786  21.294  0.00  0.00    +0.000 A 
ENDBRANCH  19  23
ENDBRANCH  18  19
ENDBRANCH  17  18
ENDBRANCH  16  17
ENDBRANCH   1  16
TORSDOF 6
ENDMDL
MODEL 6
REMARK VINA RESULT:      -7.8      4.436      5.850
REMARK  Name = 
REMARK  6 active torsions:
REMARK  status: ('A' for Active; 'I' for Inactive)
REMARK    1  A    between atoms: C_4  and  C_5
REMARK    2  A    between atoms: C_5  and  C_6
REMARK    3  A    between atoms: C_6  and  C_7
REMARK    4  A    between atoms: C_7  and  C_8
REMARK    5  A    between atoms: C_8  and  N_9
REMARK    6  A    between atoms: C_14  and  C_15
REMARK                            x       y       z     vdW  Elec       q    Type
REMARK                         _______ _______ _______ _____ _____    ______ ____
ROOT
ATOM      1  N   UNL     1       4.000   6.104  18.054  0.00  0.00    +0.000 N 
ATOM      2  C   UNL     1       3.420   5.782  19.286  0.00  0.00    +0.000 A 
ATOM      3  C   UNL     1       2.517   6.533  19.939  0.00  0.00    +0.000 A 
ATOM      4  C   UNL     1       2.137   7.787  19.278  0.00  0.00    +0.000 A 
ATOM      5  N   UNL     1       1.331   8.734  19.641  0.00  0.00    +0.000 NA
ATOM      6  C   UNL     1       1.400   9.634  18.573  0.00  0.00    +0.000 A 
ATOM      7  N   UNL     1       2.190   9.313  17.579  0.00  0.00    +0.000 NA
ATOM      8  C   UNL     1       2.710   8.121  17.975  0.00  0.00    +0.000 A 
ATOM      9  C   UNL     1       3.588   7.287  17.426  0.00  0.00    +0.000 A 
ENDROOT
BRANCH   6  10
ATOM     10  C   UNL     1       0.587  10.866  18.600  0.00  0.00    +0.000 A 
ATOM     11  C   UNL     1      -0.796  10.817  18.402  0.00  0.00    +0.000 A 
ATOM     12  C   UNL     1      -1.539  11.998  18.391  0.00  0.00    +0.000 A 
ATOM     13  C   UNL     1      -0.903  13.226  18.577  0.00  0.00    +0.000 A 
ATOM     14  C   UNL     1       0.475  13.276  18.789  0.00  0.00    +0.000 A 
ATOM     15  C   UNL     1       1.220  12.098  18.805  0.00  0.00    +0.000 A 
ENDBRANCH   6  10
BRANCH   1  16
ATOM     16  C   UNL     1       5.000   5.223  17.429  0.00  0.00    +0.000 C 
BRANCH  16  17
ATOM     17  C   UNL     1       4.360   4.090  16.620  0.00  0.00    +0.000 C 
BRANCH  17  18
ATOM     18  C   UNL     1       4.332   2.754  17.368  0.00  0.00    +0.000 C 
BRANCH  18  19
ATOM     19  C   UNL     1       2.895   2.262  17.560  0.00  0.00    +0.000 C 
BRANCH  19  23
ATOM     20  C   UNL     1       1.436   3.032  21.544  0.00  0.00    +0.000 A 
ATOM     21  C   UNL     1       2.750   2.609  21.348  0.00  0.00    +0.000 A 
ATOM     22  C   UNL     1       3.223   2.370  20.059  0.00  0.00    +0.000 A 
ATOM     23  C   UNL     1       2.386   2.554  18.949  0.00  0.00    +0.000 A 
ATOM     24  C   UNL     1       1.067   2.982  19.155  0.00  0.00    +0.000 A 
ATOM     25  C   UNL     1       0.596   3.221  20.447  0.00  0.00    +0.000 A 
ENDBRANCH  19  23
ENDBRANCH  18  19
ENDBRANCH  17  18
ENDBRANCH  16  17
ENDBRANCH   1  16
TORSDOF 6
ENDMDL
MODEL 7
REMARK VINA RESULT:      -7.8      4.710      6.385
REMARK  Name = 
REMARK  6 active torsions:
REMARK  status: ('A' for Active; 'I' for Inactive)
REMARK    1  A    between atoms: C_4  and  C_5
REMARK    2  A    between atoms: C_5  and  C_6
REMARK    3  A    between atoms: C_6  and  C_7
REMARK    4  A    between atoms: C_7  and  C_8
REMARK    5  A    between atoms: C_8  and  N_9
REMARK    6  A    between atoms: C_14  and  C_15
REMARK                            x       y       z     vdW  Elec       q    Type
REMARK                         _______ _______ _______ _____ _____    ______ ____
ROOT
ATOM      1  N   UNL     1       3.594   6.586  18.111  0.00  0.00    +0.000 N 
ATOM      2  C   UNL     1       3.200   6.072  19.352  0.00  0.00    +0.000 A 
ATOM      3  C   UNL     1       2.324   6.653  20.189  0.00  0.00    +0.000 A 
ATOM      4  C   UNL     1       1.763   7.930  19.736  0.00  0.00    +0.000 A 
ATOM      5  N   UNL     1       0.931   8.748  20.301  0.00  0.00    +0.000 NA
ATOM      6  C   UNL     1       0.793   9.764  19.352  0.00  0.00    +0.000 A 
ATOM      7  N   UNL     1       1.478   9.637  18.243  0.00  0.00    +0.000 NA
ATOM      8  C   UNL     1       2.140   8.464  18.428  0.00  0.00    +0.000 A 
ATOM      9  C   UNL     1       3.011   7.786  17.685  0.00  0.00    +0.000 A 
ENDROOT
BRANCH   6  10
ATOM     10  C   UNL     1      -0.110  10.901  19.621  0.00  0.00    +0.000 A 
ATOM     11  C   UNL     1       0.278  11.937  20.477  0.00  0.00    +0.000 A 
ATOM     12  C   UNL     1      -0.607  12.981  20.749  0.00  0.00    +0.000 A 
ATOM     13  C   UNL     1      -1.876  12.992  20.169  0.00  0.00    +0.000 A 
ATOM     14  C   UNL     1      -2.260  11.967  19.304  0.00  0.00    +0.000 A 
ATOM     15  C   UNL     1      -1.377  10.924  19.027  0.00  0.00    +0.000 A 
ENDBRANCH   6  10
BRANCH   1  16
ATOM     16  C   UNL     1       4.580   5.882  17.274  0.00  0.00    +0.000 C 
BRANCH  16  17
ATOM     17  C   UNL     1       4.820   4.441  17.736  0.00  0.00    +0.000 C 
BRANCH  17  18
ATOM     18  C   UNL     1       3.949   3.419  17.000  0.00  0.00    +0.000 C 
BRANCH  18  19
ATOM     19  C   UNL     1       3.710   2.178  17.865  0.00  0.00    +0.000 C 
BRANCH  19  23
ATOM     20  C   UNL     1       1.246   3.132  21.272  0.00  0.00    +0.000 A 
ATOM     21  C   UNL     1       0.704   3.149  19.988  0.00  0.00    +0.000 A 
ATOM     22  C   UNL     1       1.499   2.831  18.888  0.00  0.00    +0.000 A 
ATOM     23  C   UNL     1       2.848   2.490  19.061  0.00  0.00    +0.000 A 
ATOM     24  C   UNL     1       3.385   2.473  20.356  0.00  0.00    +0.000 A 
ATOM     25  C   UNL     1       2.585   2.791  21.456  0.00  0.00    +0.000 A 
ENDBRANCH  19  23
ENDBRANCH  18  19
ENDBRANCH  17  18
ENDBRANCH  16  17
ENDBRANCH   1  16
TORSDOF 6
ENDMDL
MODEL 8
REMARK VINA RESULT:      -7.8      4.292      6.042
REMARK  Name = 
REMARK  6 active torsions:
REMARK  status: ('A' for Active; 'I' for Inactive)
REMARK    1  A    between atoms: C_4  and  C_5
REMARK    2  A    between atoms: C_5  and  C_6
REMARK    3  A    between atoms: C_6  and  C_7
REMARK    4  A    between atoms: C_7  and  C_8
REMARK    5  A    between atoms: C_8  and  N_9
REMARK    6  A    between atoms: C_14  and  C_15
REMARK                            x       y       z     vdW  Elec       q    Type
REMARK                         _______ _______ _______ _____ _____    ______ ____
ROOT
ATOM      1  N   UNL     1       4.242   6.292  17.858  0.00  0.00    +0.000 N 
ATOM      2  C   UNL     1       3.823   5.827  19.110  0.00  0.00    +0.000 A 
ATOM      3  C   UNL     1       2.871   6.396  19.870  0.00  0.00    +0.000 A 
ATOM      4  C   UNL     1       2.249   7.602  19.312  0.00  0.00    +0.000 A 
ATOM      5  N   UNL     1       1.339   8.392  19.788  0.00  0.00    +0.000 NA
ATOM      6  C   UNL     1       1.179   9.338  18.770  0.00  0.00    +0.000 A 
ATOM      7  N   UNL     1       1.924   9.191  17.703  0.00  0.00    +0.000 NA
ATOM      8  C   UNL     1       2.653   8.080  17.991  0.00  0.00    +0.000 A 
ATOM      9  C   UNL     1       3.601   7.421  17.331  0.00  0.00    +0.000 A 
ENDROOT
BRANCH   6  10
ATOM     10  C   UNL     1       0.191  10.423  18.927  0.00  0.00    +0.000 A 
ATOM     11  C   UNL     1       0.361  11.412  19.902  0.00  0.00    +0.000 A 
ATOM     12  C   UNL     1      -0.605  12.405  20.059  0.00  0.00    +0.000 A 
ATOM     13  C   UNL     1      -1.739  12.413  19.246  0.00  0.00    +0.000 A 
ATOM     14  C   UNL     1      -1.904  11.437  18.264  0.00  0.00    +0.000 A 
ATOM     15  C   UNL     1      -0.939  10.445  18.101  0.00  0.00    +0.000 A 
ENDBRANCH   6  10
BRANCH   1  16
ATOM     16  C   UNL     1       5.311   5.608  17.111  0.00  0.00    +0.000 C 
BRANCH  16  17
ATOM     17  C   UNL     1       5.221   4.083  17.222  0.00  0.00    +0.000 C 
BRANCH  17  18
ATOM     18  C   UNL     1       3.824   3.536  16.914  0.00  0.00    +0.000 C 
BRANCH  18  19
ATOM     19  C   UNL     1       3.538   2.272  17.728  0.00  0.00    +0.000 C 
BRANCH  19  23
ATOM     20  C   UNL     1       1.300   3.090  21.322  0.00  0.00    +0.000 A 
ATOM     21  C   UNL     1       2.634   2.692  21.402  0.00  0.00    +0.000 A 
ATOM     22  C   UNL     1       3.359   2.437  20.239  0.00  0.00    +0.000 A 
ATOM     23  C   UNL     1       2.757   2.580  18.981  0.00  0.00    +0.000 A 
ATOM     24  C   UNL     1       1.417   2.983  18.910  0.00  0.00    +0.000 A 
ATOM     25  C   UNL     1       0.693   3.238  20.076  0.00  0.00    +0.000 A 
ENDBRANCH  19  23
ENDBRANCH  18  19
ENDBRANCH  17  18
ENDBRANCH  16  17
ENDBRANCH   1  16
TORSDOF 6
ENDMDL
MODEL 9
REMARK VINA RESULT:      -7.8      6.967      8.645
REMARK  Name = 
REMARK  6 active torsions:
REMARK  status: ('A' for Active; 'I' for Inactive)
REMARK    1  A    between atoms: C_4  and  C_5
REMARK    2  A    between atoms: C_5  and  C_6
REMARK    3  A    between atoms: C_6  and  C_7
REMARK    4  A    between atoms: C_7  and  C_8
REMARK    5  A    between atoms: C_8  and  N_9
REMARK    6  A    between atoms: C_14  and  C_15
REMARK                            x       y       z     vdW  Elec       q    Type
REMARK                         _______ _______ _______ _____ _____    ______ ____
ROOT
ATOM      1  N   UNL     1       1.286   9.553  19.491  0.00  0.00    +0.000 N 
ATOM      2  C   UNL     1       1.380   8.705  20.600  0.00  0.00    +0.000 A 
ATOM      3  C   UNL     1       0.841   8.944  21.808  0.00  0.00    +0.000 A 
ATOM      4  C   UNL     1       0.110  10.209  21.938  0.00  0.00    +0.000 A 
ATOM      5  N   UNL     1      -0.493  10.749  22.951  0.00  0.00    +0.000 NA
ATOM      6  C   UNL     1      -0.998  11.939  22.420  0.00  0.00    +0.000 A 
ATOM      7  N   UNL     1      -0.750  12.177  21.156  0.00  0.00    +0.000 NA
ATOM      8  C   UNL     1      -0.024  11.091  20.779  0.00  0.00    +0.000 A 
ATOM      9  C   UNL     1       0.547  10.735  19.631  0.00  0.00    +0.000 A 
ENDROOT
BRANCH   6  10
ATOM     10  C   UNL     1      -1.784  12.848  23.278  0.00  0.00    +0.000 A 
ATOM     11  C   UNL     1      -3.067  12.495  23.708  0.00  0.00    +0.000 A 
ATOM     12  C   UNL     1      -3.809  13.387  24.484  0.00  0.00    +0.000 A 
ATOM     13  C   UNL     1      -3.271  14.627  24.831  0.00  0.00    +0.000 A 
ATOM     14  C   UNL     1      -1.986  14.975  24.415  0.00  0.00    +0.000 A 
ATOM     15  C   UNL     1      -1.241  14.085  23.643  0.00  0.00    +0.000 A 
ENDBRANCH   6  10
BRANCH   1  16
ATOM     16  C   UNL     1       1.931   9.209  18.213  0.00  0.00    +0.000 C 
BRANCH  16  17
ATOM     17  C   UNL     1       1.923   7.702  17.938  0.00  0.00    +0.000 C 
BRANCH  17  18
ATOM     18  C   UNL     1       3.327   7.103  17.818  0.00  0.00    +0.000 C 
BRANCH  18  19
ATOM     19  C   UNL     1       3.644   6.202  19.015  0.00  0.00    +0.000 C 
BRANCH  19  23
ATOM     20  C   UNL     1       0.797   2.995  19.466  0.00  0.00    +0.000 A 
ATOM     21  C   UNL     1       1.041   3.869  20.524  0.00  0.00    +0.000 A 
ATOM     22  C   UNL     1       1.955   4.912  20.373  0.00  0.00    +0.000 A 
ATOM     23  C   UNL     1       2.634   5.092  19.160  0.00  0.00    +0.000 A 
ATOM     24  C   UNL     1       2.380   4.210  18.101  0.00  0.00    +0.000 A 
ATOM     25  C   UNL     1       1.464   3.167  18.254  0.00  0.00    +0.000 A 
ENDBRANCH  19  23
ENDBRANCH  18  19
ENDBRANCH  17  18
ENDBRANCH  16  17
ENDBRANCH   1  16
TORSDOF 6
ENDMDL
