MODEL 1
REMARK VINA RESULT:      -7.6      0.000      0.000
REMARK  Name = 
REMARK  4 active torsions:
REMARK  status: ('A' for Active; 'I' for Inactive)
REMARK    1  A    between atoms: C_1  and  C_2
REMARK    2  A    between atoms: C_3  and  C_4
REMARK    3  A    between atoms: N_17  and  C_18
REMARK    4  A    between atoms: N_21  and  C_22
REMARK                            x       y       z     vdW  Elec       q    Type
REMARK                         _______ _______ _______ _____ _____    ______ ____
ROOT
ATOM      1  C   UNL     1       1.682   6.236  20.707  0.00  0.00    +0.000 C 
ATOM      2  C   UNL     1       2.059   7.051  19.533  0.00  0.00    +0.000 A 
ATOM      3  C   UNL     1       2.709   6.718  18.403  0.00  0.00    +0.000 A 
ATOM      4  O   UNL     1       2.806   7.833  17.493  0.00  0.00    +0.000 OA
ATOM      5  C   UNL     1       2.194   8.828  18.173  0.00  0.00    +0.000 A 
ATOM      6  N   UNL     1       1.910  10.097  17.963  0.00  0.00    +0.000 NA
ATOM      7  C   UNL     1       1.216  10.440  19.119  0.00  0.00    +0.000 A 
ATOM      8  C   UNL     1       1.090   9.383  19.981  0.00  0.00    +0.000 A 
ATOM      9  C   UNL     1       0.407   9.417  21.210  0.00  0.00    +0.000 A 
ATOM     10  O   UNL     1       0.271   8.438  21.936  0.00  0.00    +0.000 OA
ATOM     11  N   UNL     1      -0.107  10.672  21.505  0.00  0.00    +0.000 N 
ATOM     12  C   UNL     1      -0.819  10.809  22.760  0.00  0.00    +0.000 C 
ATOM     13  C   UNL     1      -0.012  11.808  20.681  0.00  0.00    +0.000 A 
ATOM     14  O   UNL     1      -0.513  12.880  21.036  0.00  0.00    +0.000 OA
ATOM     15  N   UNL     1       0.665  11.665  19.456  0.00  0.00    +0.000 N 
ATOM     16  C   UNL     1       0.774  12.818  18.581  0.00  0.00    +0.000 C 
ATOM     17  N   UNL     1       1.736   8.372  19.372  0.00  0.00    +0.000 N 
ENDROOT
BRANCH   3  18
ATOM     18  C   UNL     1       3.139   5.354  18.094  0.00  0.00    +0.000 A 
ATOM     19  C   UNL     1       2.201   4.441  17.594  0.00  0.00    +0.000 A 
ATOM     20  C   UNL     1       2.435   3.064  17.685  0.00  0.00    +0.000 A 
ATOM     21  C   UNL     1       3.608   2.587  18.267  0.00  0.00    +0.000 A 
ATOM     22  C   UNL     1       4.565   3.487  18.735  0.00  0.00    +0.000 A 
ATOM     23  C   UNL     1       4.333   4.863  18.646  0.00  0.00    +0.000 A 
ENDBRANCH   3  18
TORSDOF 1
ENDMDL
MODEL 2
REMARK VINA RESULT:      -7.6      1.306      2.878
REMARK  Name = 
REMARK  4 active torsions:
REMARK  status: ('A' for Active; 'I' for Inactive)
REMARK    1  A    between atoms: C_1  and  C_2
REMARK    2  A    between atoms: C_3  and  C_4
REMARK    3  A    between atoms: N_17  and  C_18
REMARK    4  A    between atoms: N_21  and  C_22
REMARK                            x       y       z     vdW  Elec       q    Type
REMARK                         _______ _______ _______ _____ _____    ______ ____
ROOT
ATOM      1  C   UNL     1       2.772   8.260  17.758  0.00  0.00    +0.000 C 
ATOM      2  C   UNL     1       2.205   7.768  19.031  0.00  0.00    +0.000 A 
ATOM      3  C   UNL     1       2.300   6.567  19.630  0.00  0.00    +0.000 A 
ATOM      4  O   UNL     1       1.627   6.552  20.906  0.00  0.00    +0.000 OA
ATOM      5  C   UNL     1       1.125   7.803  20.995  0.00  0.00    +0.000 A 
ATOM      6  N   UNL     1       0.418   8.491  21.868  0.00  0.00    +0.000 NA
ATOM      7  C   UNL     1       0.338   9.741  21.263  0.00  0.00    +0.000 A 
ATOM      8  C   UNL     1       0.996   9.781  20.063  0.00  0.00    +0.000 A 
ATOM      9  C   UNL     1       1.120  10.917  19.244  0.00  0.00    +0.000 A 
ATOM     10  O   UNL     1       1.759  10.930  18.197  0.00  0.00    +0.000 OA
ATOM     11  N   UNL     1       0.453  12.022  19.753  0.00  0.00    +0.000 N 
ATOM     12  C   UNL     1       0.512  13.241  18.970  0.00  0.00    +0.000 C 
ATOM     13  C   UNL     1      -0.254  12.062  20.968  0.00  0.00    +0.000 A 
ATOM     14  O   UNL     1      -0.809  13.103  21.334  0.00  0.00    +0.000 OA
ATOM     15  N   UNL     1      -0.294  10.881  21.733  0.00  0.00    +0.000 N 
ATOM     16  C   UNL     1      -1.011  10.892  22.996  0.00  0.00    +0.000 C 
ATOM     17  N   UNL     1       1.474   8.533  19.899  0.00  0.00    +0.000 N 
ENDROOT
BRANCH   3  18
ATOM     18  C   UNL     1       3.105   5.465  19.102  0.00  0.00    +0.000 A 
ATOM     19  C   UNL     1       4.487   5.464  19.323  0.00  0.00    +0.000 A 
ATOM     20  C   UNL     1       5.335   4.702  18.511  0.00  0.00    +0.000 A 
ATOM     21  C   UNL     1       4.809   3.931  17.476  0.00  0.00    +0.000 A 
ATOM     22  C   UNL     1       3.431   3.895  17.269  0.00  0.00    +0.000 A 
ATOM     23  C   UNL     1       2.583   4.656  18.080  0.00  0.00    +0.000 A 
ENDBRANCH   3  18
TORSDOF 1
ENDMDL
MODEL 3
REMARK VINA RESULT:      -7.5      0.888      1.296
REMARK  Name = 
REMARK  4 active torsions:
REMARK  status: ('A' for Active; 'I' for Inactive)
REMARK    1  A    between atoms: C_1  and  C_2
REMARK    2  A    between atoms: C_3  and  C_4
REMARK    3  A    between atoms: N_17  and  C_18
REMARK    4  A    between atoms: N_21  and  C_22
REMARK                            x       y       z     vdW  Elec       q    Type
REMARK                         _______ _______ _______ _____ _____    ______ ____
ROOT
ATOM      1  C   UNL     1       1.743   6.797  20.879  0.00  0.00    +0.000 C 
ATOM      2  C   UNL     1       1.945   7.614  19.664  0.00  0.00    +0.000 A 
ATOM      3  C   UNL     1       2.566   7.328  18.504  0.00  0.00    +0.000 A 
ATOM      4  O   UNL     1       2.469   8.417  17.563  0.00  0.00    +0.000 OA
ATOM      5  C   UNL     1       1.777   9.349  18.255  0.00  0.00    +0.000 A 
ATOM      6  N   UNL     1       1.324  10.565  18.031  0.00  0.00    +0.000 NA
ATOM      7  C   UNL     1       0.661  10.857  19.219  0.00  0.00    +0.000 A 
ATOM      8  C   UNL     1       0.719   9.822  20.113  0.00  0.00    +0.000 A 
ATOM      9  C   UNL     1       0.109   9.811  21.380  0.00  0.00    +0.000 A 
ATOM     10  O   UNL     1       0.140   8.846  22.137  0.00  0.00    +0.000 OA
ATOM     11  N   UNL     1      -0.540  11.000  21.674  0.00  0.00    +0.000 N 
ATOM     12  C   UNL     1      -1.191  11.089  22.968  0.00  0.00    +0.000 C 
ATOM     13  C   UNL     1      -0.637  12.113  20.819  0.00  0.00    +0.000 A 
ATOM     14  O   UNL     1      -1.247  13.125  21.177  0.00  0.00    +0.000 OA
ATOM     15  N   UNL     1      -0.019  12.015  19.558  0.00  0.00    +0.000 N 
ATOM     16  C   UNL     1      -0.107  13.144  18.650  0.00  0.00    +0.000 C 
ATOM     17  N   UNL     1       1.450   8.879  19.490  0.00  0.00    +0.000 N 
ENDROOT
BRANCH   3  18
ATOM     18  C   UNL     1       3.144   6.018  18.204  0.00  0.00    +0.000 A 
ATOM     19  C   UNL     1       4.470   5.945  17.758  0.00  0.00    +0.000 A 
ATOM     20  C   UNL     1       4.926   4.815  17.070  0.00  0.00    +0.000 A 
ATOM     21  C   UNL     1       4.064   3.746  16.827  0.00  0.00    +0.000 A 
ATOM     22  C   UNL     1       2.753   3.792  17.297  0.00  0.00    +0.000 A 
ATOM     23  C   UNL     1       2.296   4.920  17.985  0.00  0.00    +0.000 A 
ENDBRANCH   3  18
TORSDOF 1
ENDMDL
MODEL 4
REMARK VINA RESULT:      -7.4      1.295      2.679
REMARK  Name = 
REMARK  4 active torsions:
REMARK  status: ('A' for Active; 'I' for Inactive)
REMARK    1  A    between atoms: C_1  and  C_2
REMARK    2  A    between atoms: C_3  and  C_4
REMARK    3  A    between atoms: N_17  and  C_18
REMARK    4  A    between atoms: N_21  and  C_22
REMARK                            x       y       z     vdW  Elec       q    Type
REMARK                         _______ _______ _______ _____ _____    ______ ____
ROOT
ATOM      1  C   UNL     1       2.628   8.650  17.693  0.00  0.00    +0.000 C 
ATOM      2  C   UNL     1       2.098   8.069  18.944  0.00  0.00    +0.000 A 
ATOM      3  C   UNL     1       2.225   6.834  19.464  0.00  0.00    +0.000 A 
ATOM      4  O   UNL     1       1.582   6.728  20.751  0.00  0.00    +0.000 OA
ATOM      5  C   UNL     1       1.064   7.963  20.930  0.00  0.00    +0.000 A 
ATOM      6  N   UNL     1       0.368   8.583  21.861  0.00  0.00    +0.000 NA
ATOM      7  C   UNL     1       0.254   9.867  21.339  0.00  0.00    +0.000 A 
ATOM      8  C   UNL     1       0.884   9.993  20.129  0.00  0.00    +0.000 A 
ATOM      9  C   UNL     1       0.971  11.181  19.381  0.00  0.00    +0.000 A 
ATOM     10  O   UNL     1       1.586  11.270  18.324  0.00  0.00    +0.000 OA
ATOM     11  N   UNL     1       0.300  12.240  19.974  0.00  0.00    +0.000 N 
ATOM     12  C   UNL     1       0.323  13.507  19.269  0.00  0.00    +0.000 C 
ATOM     13  C   UNL     1      -0.379  12.192  21.205  0.00  0.00    +0.000 A 
ATOM     14  O   UNL     1      -0.940  13.198  21.648  0.00  0.00    +0.000 OA
ATOM     15  N   UNL     1      -0.383  10.965  21.894  0.00  0.00    +0.000 N 
ATOM     16  C   UNL     1      -1.070  10.884  23.170  0.00  0.00    +0.000 C 
ATOM     17  N   UNL     1       1.376   8.766  19.876  0.00  0.00    +0.000 N 
ENDROOT
BRANCH   3  18
ATOM     18  C   UNL     1       3.033   5.782  18.849  0.00  0.00    +0.000 A 
ATOM     19  C   UNL     1       2.449   4.948  17.887  0.00  0.00    +0.000 A 
ATOM     20  C   UNL     1       3.014   3.703  17.590  0.00  0.00    +0.000 A 
ATOM     21  C   UNL     1       4.170   3.282  18.246  0.00  0.00    +0.000 A 
ATOM     22  C   UNL     1       4.781   4.119  19.179  0.00  0.00    +0.000 A 
ATOM     23  C   UNL     1       4.218   5.363  19.477  0.00  0.00    +0.000 A 
ENDBRANCH   3  18
TORSDOF 1
ENDMDL
MODEL 5
REMARK VINA RESULT:      -7.4      3.912      5.631
REMARK  Name = 
REMARK  4 active torsions:
REMARK  status: ('A' for Active; 'I' for Inactive)
REMARK    1  A    between atoms: C_1  and  C_2
REMARK    2  A    between atoms: C_3  and  C_4
REMARK    3  A    between atoms: N_17  and  C_18
REMARK    4  A    between atoms: N_21  and  C_22
REMARK                            x       y       z     vdW  Elec       q    Type
REMARK                         _______ _______ _______ _____ _____    ______ ____
ROOT
ATOM      1  C   UNL     1       5.225   3.128  16.785  0.00  0.00    +0.000 C 
ATOM      2  C   UNL     1       5.082   4.564  16.466  0.00  0.00    +0.000 A 
ATOM      3  C   UNL     1       5.563   5.290  15.440  0.00  0.00    +0.000 A 
ATOM      4  O   UNL     1       5.118   6.661  15.500  0.00  0.00    +0.000 OA
ATOM      5  C   UNL     1       4.373   6.685  16.627  0.00  0.00    +0.000 A 
ATOM      6  N   UNL     1       3.668   7.579  17.289  0.00  0.00    +0.000 NA
ATOM      7  C   UNL     1       3.148   6.828  18.339  0.00  0.00    +0.000 A 
ATOM      8  C   UNL     1       3.538   5.516  18.280  0.00  0.00    +0.000 A 
ATOM      9  C   UNL     1       3.140   4.512  19.181  0.00  0.00    +0.000 A 
ATOM     10  O   UNL     1       3.469   3.336  19.071  0.00  0.00    +0.000 OA
ATOM     11  N   UNL     1       2.328   4.993  20.197  0.00  0.00    +0.000 N 
ATOM     12  C   UNL     1       1.876   4.032  21.184  0.00  0.00    +0.000 C 
ATOM     13  C   UNL     1       1.892   6.323  20.336  0.00  0.00    +0.000 A 
ATOM     14  O   UNL     1       1.161   6.646  21.278  0.00  0.00    +0.000 OA
ATOM     15  N   UNL     1       2.319   7.248  19.365  0.00  0.00    +0.000 N 
ATOM     16  C   UNL     1       1.881   8.628  19.477  0.00  0.00    +0.000 C 
ATOM     17  N   UNL     1       4.333   5.448  17.196  0.00  0.00    +0.000 N 
ENDROOT
BRANCH   3  18
ATOM     18  C   UNL     1       6.329   4.713  14.335  0.00  0.00    +0.000 A 
ATOM     19  C   UNL     1       7.462   5.388  13.866  0.00  0.00    +0.000 A 
ATOM     20  C   UNL     1       7.966   5.124  12.587  0.00  0.00    +0.000 A 
ATOM     21  C   UNL     1       7.347   4.179  11.770  0.00  0.00    +0.000 A 
ATOM     22  C   UNL     1       6.240   3.475  12.240  0.00  0.00    +0.000 A 
ATOM     23  C   UNL     1       5.736   3.737  13.518  0.00  0.00    +0.000 A 
ENDBRANCH   3  18
TORSDOF 1
ENDMDL
MODEL 6
REMARK VINA RESULT:      -7.4      3.931      5.956
REMARK  Name = 
REMARK  4 active torsions:
REMARK  status: ('A' for Active; 'I' for Inactive)
REMARK    1  A    between atoms: C_1  and  C_2
REMARK    2  A    between atoms: C_3  and  C_4
REMARK    3  A    between atoms: N_17  and  C_18
REMARK    4  A    between atoms: N_21  and  C_22
REMARK                            x       y       z     vdW  Elec       q    Type
REMARK                         _______ _______ _______ _____ _____    ______ ____
ROOT
ATOM      1  C   UNL     1       4.851   6.830  15.397  0.00  0.00    +0.000 C 
ATOM      2  C   UNL     1       4.813   5.495  16.031  0.00  0.00    +0.000 A 
ATOM      3  C   UNL     1       5.395   4.335  15.675  0.00  0.00    +0.000 A 
ATOM      4  O   UNL     1       5.131   3.289  16.633  0.00  0.00    +0.000 OA
ATOM      5  C   UNL     1       4.350   3.908  17.545  0.00  0.00    +0.000 A 
ATOM      6  N   UNL     1       3.751   3.581  18.671  0.00  0.00    +0.000 NA
ATOM      7  C   UNL     1       3.168   4.784  19.057  0.00  0.00    +0.000 A 
ATOM      8  C   UNL     1       3.433   5.795  18.173  0.00  0.00    +0.000 A 
ATOM      9  C   UNL     1       3.010   7.129  18.317  0.00  0.00    +0.000 A 
ATOM     10  O   UNL     1       3.307   8.021  17.529  0.00  0.00    +0.000 OA
ATOM     11  N   UNL     1       2.233   7.327  19.448  0.00  0.00    +0.000 N 
ATOM     12  C   UNL     1       1.739   8.671  19.677  0.00  0.00    +0.000 C 
ATOM     13  C   UNL     1       1.906   6.343  20.398  0.00  0.00    +0.000 A 
ATOM     14  O   UNL     1       1.211   6.627  21.378  0.00  0.00    +0.000 OA
ATOM     15  N   UNL     1       2.403   5.044  20.182  0.00  0.00    +0.000 N 
ATOM     16  C   UNL     1       2.088   4.007  21.148  0.00  0.00    +0.000 C 
ATOM     17  N   UNL     1       4.170   5.215  17.207  0.00  0.00    +0.000 N 
ENDROOT
BRANCH   3  18
ATOM     18  C   UNL     1       6.292   4.204  14.527  0.00  0.00    +0.000 A 
ATOM     19  C   UNL     1       7.362   5.099  14.392  0.00  0.00    +0.000 A 
ATOM     20  C   UNL     1       7.971   5.293  13.148  0.00  0.00    +0.000 A 
ATOM     21  C   UNL     1       7.523   4.592  12.030  0.00  0.00    +0.000 A 
ATOM     22  C   UNL     1       6.484   3.672  12.159  0.00  0.00    +0.000 A 
ATOM     23  C   UNL     1       5.874   3.476  13.402  0.00  0.00    +0.000 A 
ENDBRANCH   3  18
TORSDOF 1
ENDMDL
MODEL 7
REMARK VINA RESULT:      -7.2      2.404      7.454
REMARK  Name = 
REMARK  4 active torsions:
REMARK  status: ('A' for Active; 'I' for Inactive)
REMARK    1  A    between atoms: C_1  and  C_2
REMARK    2  A    between atoms: C_3  and  C_4
REMARK    3  A    between atoms: N_17  and  C_18
REMARK    4  A    between atoms: N_21  and  C_22
REMARK                            x       y       z     vdW  Elec       q    Type
REMARK                         _______ _______ _______ _____ _____    ______ ____
ROOT
ATOM      1  C   UNL     1       2.516   8.868  17.848  0.00  0.00    +0.000 C 
ATOM      2  C   UNL     1       1.977   8.295  19.099  0.00  0.00    +0.000 A 
ATOM      3  C   UNL     1       1.160   8.824  20.029  0.00  0.00    +0.000 A 
ATOM      4  O   UNL     1       0.843   7.873  21.066  0.00  0.00    +0.000 OA
ATOM      5  C   UNL     1       1.538   6.777  20.689  0.00  0.00    +0.000 A 
ATOM      6  N   UNL     1       1.715   5.553  21.143  0.00  0.00    +0.000 NA
ATOM      7  C   UNL     1       2.539   4.994  20.171  0.00  0.00    +0.000 A 
ATOM      8  C   UNL     1       2.827   5.876  19.165  0.00  0.00    +0.000 A 
ATOM      9  C   UNL     1       3.603   5.584  18.029  0.00  0.00    +0.000 A 
ATOM     10  O   UNL     1       3.801   6.384  17.120  0.00  0.00    +0.000 OA
ATOM     11  N   UNL     1       4.108   4.292  18.041  0.00  0.00    +0.000 N 
ATOM     12  C   UNL     1       4.933   3.901  16.914  0.00  0.00    +0.000 C 
ATOM     13  C   UNL     1       3.870   3.330  19.039  0.00  0.00    +0.000 A 
ATOM     14  O   UNL     1       4.364   2.202  18.950  0.00  0.00    +0.000 OA
ATOM     15  N   UNL     1       3.054   3.709  20.121  0.00  0.00    +0.000 N 
ATOM     16  C   UNL     1       2.785   2.736  21.165  0.00  0.00    +0.000 C 
ATOM     17  N   UNL     1       2.198   7.011  19.521  0.00  0.00    +0.000 N 
ENDROOT
BRANCH   3  18
ATOM     18  C   UNL     1       0.570  10.158  19.916  0.00  0.00    +0.000 A 
ATOM     19  C   UNL     1       0.925  11.142  20.847  0.00  0.00    +0.000 A 
ATOM     20  C   UNL     1       0.104  12.258  21.047  0.00  0.00    +0.000 A 
ATOM     21  C   UNL     1      -1.072  12.405  20.314  0.00  0.00    +0.000 A 
ATOM     22  C   UNL     1      -1.417  11.451  19.358  0.00  0.00    +0.000 A 
ATOM     23  C   UNL     1      -0.599  10.335  19.157  0.00  0.00    +0.000 A 
ENDBRANCH   3  18
TORSDOF 1
ENDMDL
MODEL 8
REMARK VINA RESULT:      -7.2      2.330      6.840
REMARK  Name = 
REMARK  4 active torsions:
REMARK  status: ('A' for Active; 'I' for Inactive)
REMARK    1  A    between atoms: C_1  and  C_2
REMARK    2  A    between atoms: C_3  and  C_4
REMARK    3  A    between atoms: N_17  and  C_18
REMARK    4  A    between atoms: N_21  and  C_22
REMARK                            x       y       z     vdW  Elec       q    Type
REMARK                         _______ _______ _______ _____ _____    ______ ____
ROOT
ATOM      1  C   UNL     1       0.589   8.636  20.664  0.00  0.00    +0.000 C 
ATOM      2  C   UNL     1       1.356   8.781  19.409  0.00  0.00    +0.000 A 
ATOM      3  C   UNL     1       1.498   9.831  18.580  0.00  0.00    +0.000 A 
ATOM      4  O   UNL     1       2.400   9.537  17.493  0.00  0.00    +0.000 OA
ATOM      5  C   UNL     1       2.751   8.254  17.734  0.00  0.00    +0.000 A 
ATOM      6  N   UNL     1       3.531   7.354  17.173  0.00  0.00    +0.000 NA
ATOM      7  C   UNL     1       3.407   6.273  18.040  0.00  0.00    +0.000 A 
ATOM      8  C   UNL     1       2.576   6.546  19.093  0.00  0.00    +0.000 A 
ATOM      9  C   UNL     1       2.289   5.662  20.149  0.00  0.00    +0.000 A 
ATOM     10  O   UNL     1       1.578   5.957  21.103  0.00  0.00    +0.000 OA
ATOM     11  N   UNL     1       2.906   4.429  19.999  0.00  0.00    +0.000 N 
ATOM     12  C   UNL     1       2.660   3.443  21.034  0.00  0.00    +0.000 C 
ATOM     13  C   UNL     1       3.763   4.065  18.945  0.00  0.00    +0.000 A 
ATOM     14  O   UNL     1       4.268   2.938  18.911  0.00  0.00    +0.000 OA
ATOM     15  N   UNL     1       4.013   5.031  17.952  0.00  0.00    +0.000 N 
ATOM     16  C   UNL     1       4.899   4.688  16.854  0.00  0.00    +0.000 C 
ATOM     17  N   UNL     1       2.152   7.804  18.872  0.00  0.00    +0.000 N 
ENDROOT
BRANCH   3  18
ATOM     18  C   UNL     1       0.909  11.145  18.839  0.00  0.00    +0.000 A 
ATOM     19  C   UNL     1      -0.461  11.333  18.616  0.00  0.00    +0.000 A 
ATOM     20  C   UNL     1      -0.979  12.621  18.436  0.00  0.00    +0.000 A 
ATOM     21  C   UNL     1      -0.137  13.730  18.485  0.00  0.00    +0.000 A 
ATOM     22  C   UNL     1       1.222  13.558  18.742  0.00  0.00    +0.000 A 
ATOM     23  C   UNL     1       1.742  12.272  18.922  0.00  0.00    +0.000 A 
ENDBRANCH   3  18
TORSDOF 1
ENDMDL
MODEL 9
REMARK VINA RESULT:      -7.1      2.347      7.298
REMARK  Name = 
REMARK  4 active torsions:
REMARK  status: ('A' for Active; 'I' for Inactive)
REMARK    1  A    between atoms: C_1  and  C_2
REMARK    2  A    between atoms: C_3  and  C_4
REMARK    3  A    between atoms: N_17  and  C_18
REMARK    4  A    between atoms: N_21  and  C_22
REMARK                            x       y       z     vdW  Elec       q    Type
REMARK                         _______ _______ _______ _____ _____    ______ ____
ROOT
ATOM      1  C   UNL     1       2.456   9.014  17.792  0.00  0.00    +0.000 C 
ATOM      2  C   UNL     1       1.893   8.466  19.044  0.00  0.00    +0.000 A 
ATOM      3  C   UNL     1       1.046   9.007  19.939  0.00  0.00    +0.000 A 
ATOM      4  O   UNL     1       0.717   8.078  20.993  0.00  0.00    +0.000 OA
ATOM      5  C   UNL     1       1.436   6.983  20.662  0.00  0.00    +0.000 A 
ATOM      6  N   UNL     1       1.619   5.775  21.153  0.00  0.00    +0.000 NA
ATOM      7  C   UNL     1       2.475   5.202  20.217  0.00  0.00    +0.000 A 
ATOM      8  C   UNL     1       2.776   6.062  19.195  0.00  0.00    +0.000 A 
ATOM      9  C   UNL     1       3.584   5.751  18.086  0.00  0.00    +0.000 A 
ATOM     10  O   UNL     1       3.793   6.531  17.162  0.00  0.00    +0.000 OA
ATOM     11  N   UNL     1       4.107   4.468  18.145  0.00  0.00    +0.000 N 
ATOM     12  C   UNL     1       4.965   4.060  17.050  0.00  0.00    +0.000 C 
ATOM     13  C   UNL     1       3.857   3.529  19.162  0.00  0.00    +0.000 A 
ATOM     14  O   UNL     1       4.370   2.406  19.115  0.00  0.00    +0.000 OA
ATOM     15  N   UNL     1       3.010   3.924  20.214  0.00  0.00    +0.000 N 
ATOM     16  C   UNL     1       2.728   2.975  21.276  0.00  0.00    +0.000 C 
ATOM     17  N   UNL     1       2.122   7.197  19.505  0.00  0.00    +0.000 N 
ENDROOT
BRANCH   3  18
ATOM     18  C   UNL     1       0.440  10.328  19.776  0.00  0.00    +0.000 A 
ATOM     19  C   UNL     1      -0.651  10.475  18.911  0.00  0.00    +0.000 A 
ATOM     20  C   UNL     1      -0.987  11.734  18.400  0.00  0.00    +0.000 A 
ATOM     21  C   UNL     1      -0.242  12.857  18.754  0.00  0.00    +0.000 A 
ATOM     22  C   UNL     1       0.825  12.729  19.643  0.00  0.00    +0.000 A 
ATOM     23  C   UNL     1       1.162  11.472  20.155  0.00  0.00    +0.000 A 
ENDBRANCH   3  18
TORSDOF 1
ENDMDL
