MODEL 1
REMARK VINA RESULT:      -7.5      0.000      0.000
REMARK  Name = 
REMARK  9 active torsions:
REMARK  status: ('A' for Active; 'I' for Inactive)
REMARK    1  A    between atoms: C_1  and  N_2
REMARK    2  A    between atoms: N_2  and  C_3
REMARK    3  A    between atoms: N_2  and  C_4
REMARK    4  A    between atoms: C_4  and  C_5
REMARK    5  A    between atoms: C_5  and  N_6
REMARK    6  A    between atoms: N_6  and  C_7
REMARK    7  A    between atoms: C_11  and  C_12
REMARK    8  A    between atoms: C_16  and  N_17
REMARK    9  A    between atoms: N_17  and  C_18
REMARK                            x       y       z     vdW  Elec       q    Type
REMARK                         _______ _______ _______ _____ _____    ______ ____
ROOT
ATOM      1  C   UNL     1       1.026   9.178  20.084  0.00  0.00    +0.000 A 
ATOM      2  C   UNL     1       1.105   9.579  18.753  0.00  0.00    +0.000 A 
ATOM      3  N   UNL     1       1.777   8.886  17.804  0.00  0.00    +0.000 NA
ATOM      4  C   UNL     1       2.386   7.762  18.248  0.00  0.00    +0.000 A 
ATOM      5  C   UNL     1       2.374   7.352  19.582  0.00  0.00    +0.000 A 
ATOM      6  N   UNL     1       1.674   8.063  20.498  0.00  0.00    +0.000 NA
ENDROOT
BRANCH   1  11
ATOM      7  C   UNL     1      -1.433  11.568  21.723  0.00  0.00    +0.000 A 
ATOM      8  C   UNL     1      -1.154  11.245  23.049  0.00  0.00    +0.000 A 
ATOM      9  N   UNL     1      -0.293  10.277  23.444  0.00  0.00    +0.000 NA
ATOM     10  C   UNL     1       0.367   9.616  22.462  0.00  0.00    +0.000 A 
ATOM     11  C   UNL     1       0.247   9.894  21.101  0.00  0.00    +0.000 A 
ATOM     12  C   UNL     1      -0.676  10.892  20.761  0.00  0.00    +0.000 A 
BRANCH   7  13
ATOM     13  N   UNL     1      -2.336  12.576  21.379  0.00  0.00    +0.000 N 
ATOM     14  H   UNL     1      -2.374  12.793  20.385  0.00  0.00    +0.000 HD
BRANCH  13  15
ATOM     15  C   UNL     1      -2.375  13.771  22.229  0.00  0.00    +0.000 C 
BRANCH  15  16
ATOM     16  C   UNL     1      -3.762  13.967  22.880  0.00  0.00    +0.000 C 
BRANCH  16  18
ATOM     17  C   UNL     1      -4.439  12.372  24.586  0.00  0.00    +0.000 C 
ATOM     18  N   UNL     1      -4.511  12.727  23.167  0.00  0.00    +0.000 NA
ATOM     19  C   UNL     1      -5.911  12.888  22.768  0.00  0.00    +0.000 C 
ENDBRANCH  16  18
ENDBRANCH  15  16
ENDBRANCH  13  15
ENDBRANCH   7  13
ENDBRANCH   1  11
BRANCH   5  20
ATOM     20  N   UNL     1       3.030   6.161  19.972  0.00  0.00    +0.000 N 
ATOM     21  H   UNL     1       3.370   6.235  20.926  0.00  0.00    +0.000 HD
BRANCH  20  22
ATOM     22  C   UNL     1       2.480   4.864  19.798  0.00  0.00    +0.000 A 
ATOM     23  C   UNL     1       1.287   4.474  20.426  0.00  0.00    +0.000 A 
ATOM     24  C   UNL     1       0.807   3.168  20.315  0.00  0.00    +0.000 A 
ATOM     25  C   UNL     1       1.529   2.227  19.588  0.00  0.00    +0.000 A 
ATOM     26  C   UNL     1       2.727   2.598  18.980  0.00  0.00    +0.000 A 
ATOM     27 CL   UNL     1       3.626   1.428  18.094  0.00  0.00    +0.000 Cl
ATOM     28  C   UNL     1       3.210   3.903  19.092  0.00  0.00    +0.000 A 
ENDBRANCH  20  22
ENDBRANCH   5  20
TORSDOF 7
ENDMDL
MODEL 2
REMARK VINA RESULT:      -7.3      1.572      2.429
REMARK  Name = 
REMARK  9 active torsions:
REMARK  status: ('A' for Active; 'I' for Inactive)
REMARK    1  A    between atoms: C_1  and  N_2
REMARK    2  A    between atoms: N_2  and  C_3
REMARK    3  A    between atoms: N_2  and  C_4
REMARK    4  A    between atoms: C_4  and  C_5
REMARK    5  A    between atoms: C_5  and  N_6
REMARK    6  A    between atoms: N_6  and  C_7
REMARK    7  A    between atoms: C_11  and  C_12
REMARK    8  A    between atoms: C_16  and  N_17
REMARK    9  A    between atoms: N_17  and  C_18
REMARK                            x       y       z     vdW  Elec       q    Type
REMARK                         _______ _______ _______ _____ _____    ______ ____
ROOT
ATOM      1  C   UNL     1       1.135   9.124  19.901  0.00  0.00    +0.000 A 
ATOM      2  C   UNL     1       1.167   9.518  18.566  0.00  0.00    +0.000 A 
ATOM      3  N   UNL     1       1.838   8.841  17.605  0.00  0.00    +0.000 NA
ATOM      4  C   UNL     1       2.495   7.741  18.041  0.00  0.00    +0.000 A 
ATOM      5  C   UNL     1       2.530   7.341  19.377  0.00  0.00    +0.000 A 
ATOM      6  N   UNL     1       1.830   8.035  20.306  0.00  0.00    +0.000 NA
ENDROOT
BRANCH   1  11
ATOM      7  C   UNL     1      -1.362  11.442  21.586  0.00  0.00    +0.000 A 
ATOM      8  C   UNL     1      -1.038  11.140  22.907  0.00  0.00    +0.000 A 
ATOM      9  N   UNL     1      -0.134  10.206  23.287  0.00  0.00    +0.000 NA
ATOM     10  C   UNL     1       0.523   9.560  22.292  0.00  0.00    +0.000 A 
ATOM     11  C   UNL     1       0.359   9.822  20.933  0.00  0.00    +0.000 A 
ATOM     12  C   UNL     1      -0.608  10.784  20.610  0.00  0.00    +0.000 A 
BRANCH   7  13
ATOM     13  N   UNL     1      -2.308  12.415  21.258  0.00  0.00    +0.000 N 
ATOM     14  H   UNL     1      -3.213  12.299  21.711  0.00  0.00    +0.000 HD
BRANCH  13  15
ATOM     15  C   UNL     1      -2.419  12.806  19.849  0.00  0.00    +0.000 C 
BRANCH  15  16
ATOM     16  C   UNL     1      -3.579  12.073  19.139  0.00  0.00    +0.000 C 
BRANCH  16  18
ATOM     17  C   UNL     1      -1.856  11.741  17.456  0.00  0.00    +0.000 C 
ATOM     18  N   UNL     1      -3.257  11.509  17.812  0.00  0.00    +0.000 NA
ATOM     19  C   UNL     1      -3.538  10.071  17.803  0.00  0.00    +0.000 C 
ENDBRANCH  16  18
ENDBRANCH  15  16
ENDBRANCH  13  15
ENDBRANCH   7  13
ENDBRANCH   1  11
BRANCH   5  20
ATOM     20  N   UNL     1       3.235   6.174  19.758  0.00  0.00    +0.000 N 
ATOM     21  H   UNL     1       3.717   6.319  20.641  0.00  0.00    +0.000 HD
BRANCH  20  22
ATOM     22  C   UNL     1       2.661   4.876  19.777  0.00  0.00    +0.000 A 
ATOM     23  C   UNL     1       1.538   4.572  20.561  0.00  0.00    +0.000 A 
ATOM     24  C   UNL     1       1.041   3.270  20.635  0.00  0.00    +0.000 A 
ATOM     25  C   UNL     1       1.678   2.249  19.937  0.00  0.00    +0.000 A 
ATOM     26  C   UNL     1       2.808   2.535  19.173  0.00  0.00    +0.000 A 
ATOM     27 CL   UNL     1       3.601   1.266  18.323  0.00  0.00    +0.000 Cl
ATOM     28  C   UNL     1       3.307   3.836  19.100  0.00  0.00    +0.000 A 
ENDBRANCH  20  22
ENDBRANCH   5  20
TORSDOF 7
ENDMDL
MODEL 3
REMARK VINA RESULT:      -7.2      4.127      9.130
REMARK  Name = 
REMARK  9 active torsions:
REMARK  status: ('A' for Active; 'I' for Inactive)
REMARK    1  A    between atoms: C_1  and  N_2
REMARK    2  A    between atoms: N_2  and  C_3
REMARK    3  A    between atoms: N_2  and  C_4
REMARK    4  A    between atoms: C_4  and  C_5
REMARK    5  A    between atoms: C_5  and  N_6
REMARK    6  A    between atoms: N_6  and  C_7
REMARK    7  A    between atoms: C_11  and  C_12
REMARK    8  A    between atoms: C_16  and  N_17
REMARK    9  A    between atoms: N_17  and  C_18
REMARK                            x       y       z     vdW  Elec       q    Type
REMARK                         _______ _______ _______ _____ _____    ______ ____
ROOT
ATOM      1  C   UNL     1       2.109   7.750  18.987  0.00  0.00    +0.000 A 
ATOM      2  C   UNL     1       1.995   7.777  20.375  0.00  0.00    +0.000 A 
ATOM      3  N   UNL     1       1.259   8.694  21.046  0.00  0.00    +0.000 NA
ATOM      4  C   UNL     1       0.639   9.605  20.261  0.00  0.00    +0.000 A 
ATOM      5  C   UNL     1       0.767   9.645  18.872  0.00  0.00    +0.000 A 
ATOM      6  N   UNL     1       1.498   8.697  18.237  0.00  0.00    +0.000 NA
ENDROOT
BRANCH   1  11
ATOM      7  C   UNL     1       3.024   4.462  17.315  0.00  0.00    +0.000 A 
ATOM      8  C   UNL     1       4.315   4.805  16.919  0.00  0.00    +0.000 A 
ATOM      9  N   UNL     1       4.878   6.024  17.091  0.00  0.00    +0.000 NA
ATOM     10  C   UNL     1       4.127   6.952  17.734  0.00  0.00    +0.000 A 
ATOM     11  C   UNL     1       2.855   6.720  18.255  0.00  0.00    +0.000 A 
ATOM     12  C   UNL     1       2.325   5.443  18.024  0.00  0.00    +0.000 A 
BRANCH   7  13
ATOM     13  N   UNL     1       2.498   3.185  17.106  0.00  0.00    +0.000 N 
ATOM     14  H   UNL     1       1.499   3.162  16.910  0.00  0.00    +0.000 HD
BRANCH  13  15
ATOM     15  C   UNL     1       2.930   2.117  18.015  0.00  0.00    +0.000 C 
BRANCH  15  16
ATOM     16  C   UNL     1       2.021   2.024  19.262  0.00  0.00    +0.000 C 
BRANCH  16  18
ATOM     17  C   UNL     1       1.590   2.598  21.584  0.00  0.00    +0.000 C 
ATOM     18  N   UNL     1       2.455   2.825  20.424  0.00  0.00    +0.000 NA
ATOM     19  C   UNL     1       3.839   2.494  20.768  0.00  0.00    +0.000 C 
ENDBRANCH  16  18
ENDBRANCH  15  16
ENDBRANCH  13  15
ENDBRANCH   7  13
ENDBRANCH   1  11
BRANCH   5  20
ATOM     20  N   UNL     1       0.083  10.625  18.116  0.00  0.00    +0.000 N 
ATOM     21  H   UNL     1       0.531  10.758  17.213  0.00  0.00    +0.000 HD
BRANCH  20  22
ATOM     22  C   UNL     1      -1.322  10.631  17.918  0.00  0.00    +0.000 A 
ATOM     23  C   UNL     1      -1.925   9.938  16.856  0.00  0.00    +0.000 A 
ATOM     24  C   UNL     1      -3.298  10.026  16.625  0.00  0.00    +0.000 A 
ATOM     25  C   UNL     1      -4.085  10.829  17.445  0.00  0.00    +0.000 A 
ATOM     26  C   UNL     1      -3.494  11.540  18.487  0.00  0.00    +0.000 A 
ATOM     27 CL   UNL     1      -4.468  12.544  19.490  0.00  0.00    +0.000 Cl
ATOM     28  C   UNL     1      -2.119  11.455  18.719  0.00  0.00    +0.000 A 
ENDBRANCH  20  22
ENDBRANCH   5  20
TORSDOF 7
ENDMDL
MODEL 4
REMARK VINA RESULT:      -7.1      4.600     10.510
REMARK  Name = 
REMARK  9 active torsions:
REMARK  status: ('A' for Active; 'I' for Inactive)
REMARK    1  A    between atoms: C_1  and  N_2
REMARK    2  A    between atoms: N_2  and  C_3
REMARK    3  A    between atoms: N_2  and  C_4
REMARK    4  A    between atoms: C_4  and  C_5
REMARK    5  A    between atoms: C_5  and  N_6
REMARK    6  A    between atoms: N_6  and  C_7
REMARK    7  A    between atoms: C_11  and  C_12
REMARK    8  A    between atoms: C_16  and  N_17
REMARK    9  A    between atoms: N_17  and  C_18
REMARK                            x       y       z     vdW  Elec       q    Type
REMARK                         _______ _______ _______ _____ _____    ______ ____
ROOT
ATOM      1  C   UNL     1       3.702   4.393  18.594  0.00  0.00    +0.000 A 
ATOM      2  C   UNL     1       2.757   3.439  18.227  0.00  0.00    +0.000 A 
ATOM      3  N   UNL     1       1.512   3.380  18.755  0.00  0.00    +0.000 NA
ATOM      4  C   UNL     1       1.249   4.324  19.689  0.00  0.00    +0.000 A 
ATOM      5  C   UNL     1       2.184   5.265  20.122  0.00  0.00    +0.000 A 
ATOM      6  N   UNL     1       3.414   5.302  19.554  0.00  0.00    +0.000 NA
ENDROOT
BRANCH   1  11
ATOM      7  C   UNL     1       6.459   4.714  15.996  0.00  0.00    +0.000 A 
ATOM      8  C   UNL     1       7.545   4.636  16.864  0.00  0.00    +0.000 A 
ATOM      9  N   UNL     1       7.453   4.558  18.213  0.00  0.00    +0.000 NA
ATOM     10  C   UNL     1       6.202   4.511  18.733  0.00  0.00    +0.000 A 
ATOM     11  C   UNL     1       5.031   4.496  17.977  0.00  0.00    +0.000 A 
ATOM     12  C   UNL     1       5.198   4.601  16.590  0.00  0.00    +0.000 A 
BRANCH   7  13
ATOM     13  N   UNL     1       6.620   4.797  14.612  0.00  0.00    +0.000 N 
ATOM     14  H   UNL     1       6.619   5.745  14.239  0.00  0.00    +0.000 HD
BRANCH  13  15
ATOM     15  C   UNL     1       5.860   3.854  13.783  0.00  0.00    +0.000 C 
BRANCH  15  16
ATOM     16  C   UNL     1       6.568   3.573  12.439  0.00  0.00    +0.000 C 
BRANCH  16  18
ATOM     17  C   UNL     1       5.935   1.471  11.393  0.00  0.00    +0.000 C 
ATOM     18  N   UNL     1       5.736   2.922  11.407  0.00  0.00    +0.000 NA
ATOM     19  C   UNL     1       4.322   3.224  11.645  0.00  0.00    +0.000 C 
ENDBRANCH  16  18
ENDBRANCH  15  16
ENDBRANCH  13  15
ENDBRANCH   7  13
ENDBRANCH   1  11
BRANCH   5  20
ATOM     20  N   UNL     1       1.835   6.226  21.100  0.00  0.00    +0.000 N 
ATOM     21  H   UNL     1       2.538   6.264  21.832  0.00  0.00    +0.000 HD
BRANCH  20  22
ATOM     22  C   UNL     1       1.442   7.555  20.795  0.00  0.00    +0.000 A 
ATOM     23  C   UNL     1       0.577   8.283  21.628  0.00  0.00    +0.000 A 
ATOM     24  C   UNL     1       0.132   9.556  21.269  0.00  0.00    +0.000 A 
ATOM     25  C   UNL     1       0.532  10.110  20.057  0.00  0.00    +0.000 A 
ATOM     26  C   UNL     1       1.371   9.387  19.212  0.00  0.00    +0.000 A 
ATOM     27 CL   UNL     1       1.852  10.070  17.707  0.00  0.00    +0.000 Cl
ATOM     28  C   UNL     1       1.816   8.113  19.568  0.00  0.00    +0.000 A 
ENDBRANCH  20  22
ENDBRANCH   5  20
TORSDOF 7
ENDMDL
MODEL 5
REMARK VINA RESULT:      -7.1      3.650      8.945
REMARK  Name = 
REMARK  9 active torsions:
REMARK  status: ('A' for Active; 'I' for Inactive)
REMARK    1  A    between atoms: C_1  and  N_2
REMARK    2  A    between atoms: N_2  and  C_3
REMARK    3  A    between atoms: N_2  and  C_4
REMARK    4  A    between atoms: C_4  and  C_5
REMARK    5  A    between atoms: C_5  and  N_6
REMARK    6  A    between atoms: N_6  and  C_7
REMARK    7  A    between atoms: C_11  and  C_12
REMARK    8  A    between atoms: C_16  and  N_17
REMARK    9  A    between atoms: N_17  and  C_18
REMARK                            x       y       z     vdW  Elec       q    Type
REMARK                         _______ _______ _______ _____ _____    ______ ____
ROOT
ATOM      1  C   UNL     1       2.471   7.411  19.038  0.00  0.00    +0.000 A 
ATOM      2  C   UNL     1       2.054   6.952  20.284  0.00  0.00    +0.000 A 
ATOM      3  N   UNL     1       1.216   7.644  21.092  0.00  0.00    +0.000 NA
ATOM      4  C   UNL     1       0.812   8.838  20.598  0.00  0.00    +0.000 A 
ATOM      5  C   UNL     1       1.245   9.356  19.378  0.00  0.00    +0.000 A 
ATOM      6  N   UNL     1       2.070   8.624  18.590  0.00  0.00    +0.000 NA
ENDROOT
BRANCH   1  11
ATOM      7  C   UNL     1       4.227   4.492  17.352  0.00  0.00    +0.000 A 
ATOM      8  C   UNL     1       4.994   5.228  16.451  0.00  0.00    +0.000 A 
ATOM      9  N   UNL     1       4.935   6.573  16.304  0.00  0.00    +0.000 NA
ATOM     10  C   UNL     1       4.091   7.236  17.134  0.00  0.00    +0.000 A 
ATOM     11  C   UNL     1       3.330   6.635  18.135  0.00  0.00    +0.000 A 
ATOM     12  C   UNL     1       3.423   5.239  18.217  0.00  0.00    +0.000 A 
BRANCH   7  13
ATOM     13  N   UNL     1       4.332   3.103  17.453  0.00  0.00    +0.000 N 
ATOM     14  H   UNL     1       4.877   2.662  16.714  0.00  0.00    +0.000 HD
BRANCH  13  15
ATOM     15  C   UNL     1       3.116   2.355  17.794  0.00  0.00    +0.000 C 
BRANCH  15  16
ATOM     16  C   UNL     1       3.051   2.024  19.301  0.00  0.00    +0.000 C 
BRANCH  16  18
ATOM     17  C   UNL     1       1.748   3.108  21.045  0.00  0.00    +0.000 C 
ATOM     18  N   UNL     1       1.719   2.165  19.925  0.00  0.00    +0.000 NA
ATOM     19  C   UNL     1       0.747   2.614  18.925  0.00  0.00    +0.000 C 
ENDBRANCH  16  18
ENDBRANCH  15  16
ENDBRANCH  13  15
ENDBRANCH   7  13
ENDBRANCH   1  11
BRANCH   5  20
ATOM     20  N   UNL     1       0.775  10.611  18.924  0.00  0.00    +0.000 N 
ATOM     21  H   UNL     1       1.380  10.978  18.195  0.00  0.00    +0.000 HD
BRANCH  20  22
ATOM     22  C   UNL     1      -0.571  10.861  18.548  0.00  0.00    +0.000 A 
ATOM     23  C   UNL     1      -1.420  11.666  19.323  0.00  0.00    +0.000 A 
ATOM     24  C   UNL     1      -2.764  11.830  18.985  0.00  0.00    +0.000 A 
ATOM     25  C   UNL     1      -3.282  11.170  17.875  0.00  0.00    +0.000 A 
ATOM     26  C   UNL     1      -2.453  10.349  17.112  0.00  0.00    +0.000 A 
ATOM     27 CL   UNL     1      -3.100   9.523  15.748  0.00  0.00    +0.000 Cl
ATOM     28  C   UNL     1      -1.109  10.183  17.449  0.00  0.00    +0.000 A 
ENDBRANCH  20  22
ENDBRANCH   5  20
TORSDOF 7
ENDMDL
MODEL 6
REMARK VINA RESULT:      -7.1      0.959      1.175
REMARK  Name = 
REMARK  9 active torsions:
REMARK  status: ('A' for Active; 'I' for Inactive)
REMARK    1  A    between atoms: C_1  and  N_2
REMARK    2  A    between atoms: N_2  and  C_3
REMARK    3  A    between atoms: N_2  and  C_4
REMARK    4  A    between atoms: C_4  and  C_5
REMARK    5  A    between atoms: C_5  and  N_6
REMARK    6  A    between atoms: N_6  and  C_7
REMARK    7  A    between atoms: C_11  and  C_12
REMARK    8  A    between atoms: C_16  and  N_17
REMARK    9  A    between atoms: N_17  and  C_18
REMARK                            x       y       z     vdW  Elec       q    Type
REMARK                         _______ _______ _______ _____ _____    ______ ____
ROOT
ATOM      1  C   UNL     1       1.054   9.247  19.938  0.00  0.00    +0.000 A 
ATOM      2  C   UNL     1       1.108   9.640  18.603  0.00  0.00    +0.000 A 
ATOM      3  N   UNL     1       1.766   8.945  17.646  0.00  0.00    +0.000 NA
ATOM      4  C   UNL     1       2.387   7.825  18.086  0.00  0.00    +0.000 A 
ATOM      5  C   UNL     1       2.400   7.423  19.422  0.00  0.00    +0.000 A 
ATOM      6  N   UNL     1       1.714   8.137  20.347  0.00  0.00    +0.000 NA
ENDROOT
BRANCH   1  11
ATOM      7  C   UNL     1      -1.350  11.671  21.608  0.00  0.00    +0.000 A 
ATOM      8  C   UNL     1      -1.082  11.321  22.930  0.00  0.00    +0.000 A 
ATOM      9  N   UNL     1      -0.245  10.327  23.312  0.00  0.00    +0.000 NA
ATOM     10  C   UNL     1       0.400   9.665  22.320  0.00  0.00    +0.000 A 
ATOM     11  C   UNL     1       0.291   9.966  20.964  0.00  0.00    +0.000 A 
ATOM     12  C   UNL     1      -0.608  10.991  20.638  0.00  0.00    +0.000 A 
BRANCH   7  13
ATOM     13  N   UNL     1      -2.228  12.705  21.278  0.00  0.00    +0.000 N 
ATOM     14  H   UNL     1      -1.824  13.639  21.327  0.00  0.00    +0.000 HD
BRANCH  13  15
ATOM     15  C   UNL     1      -3.588  12.640  21.824  0.00  0.00    +0.000 C 
BRANCH  15  16
ATOM     16  C   UNL     1      -4.658  12.796  20.720  0.00  0.00    +0.000 C 
BRANCH  16  18
ATOM     17  C   UNL     1      -6.916  12.785  21.620  0.00  0.00    +0.000 C 
ATOM     18  N   UNL     1      -5.833  13.613  21.086  0.00  0.00    +0.000 NA
ATOM     19  C   UNL     1      -5.448  14.622  22.076  0.00  0.00    +0.000 C 
ENDBRANCH  16  18
ENDBRANCH  15  16
ENDBRANCH  13  15
ENDBRANCH   7  13
ENDBRANCH   1  11
BRANCH   5  20
ATOM     20  N   UNL     1       3.066   6.236  19.807  0.00  0.00    +0.000 N 
ATOM     21  H   UNL     1       3.456   6.331  20.741  0.00  0.00    +0.000 HD
BRANCH  20  22
ATOM     22  C   UNL     1       2.499   4.940  19.695  0.00  0.00    +0.000 A 
ATOM     23  C   UNL     1       1.311   4.590  20.356  0.00  0.00    +0.000 A 
ATOM     24  C   UNL     1       0.815   3.287  20.305  0.00  0.00    +0.000 A 
ATOM     25  C   UNL     1       1.515   2.309  19.607  0.00  0.00    +0.000 A 
ATOM     26  C   UNL     1       2.708   2.639  18.967  0.00  0.00    +0.000 A 
ATOM     27 CL   UNL     1       3.580   1.424  18.116  0.00  0.00    +0.000 Cl
ATOM     28  C   UNL     1       3.207   3.942  19.018  0.00  0.00    +0.000 A 
ENDBRANCH  20  22
ENDBRANCH   5  20
TORSDOF 7
ENDMDL
MODEL 7
REMARK VINA RESULT:      -7.1      1.068      1.139
REMARK  Name = 
REMARK  9 active torsions:
REMARK  status: ('A' for Active; 'I' for Inactive)
REMARK    1  A    between atoms: C_1  and  N_2
REMARK    2  A    between atoms: N_2  and  C_3
REMARK    3  A    between atoms: N_2  and  C_4
REMARK    4  A    between atoms: C_4  and  C_5
REMARK    5  A    between atoms: C_5  and  N_6
REMARK    6  A    between atoms: N_6  and  C_7
REMARK    7  A    between atoms: C_11  and  C_12
REMARK    8  A    between atoms: C_16  and  N_17
REMARK    9  A    between atoms: N_17  and  C_18
REMARK                            x       y       z     vdW  Elec       q    Type
REMARK                         _______ _______ _______ _____ _____    ______ ____
ROOT
ATOM      1  C   UNL     1       1.107   9.214  19.906  0.00  0.00    +0.000 A 
ATOM      2  C   UNL     1       1.148   9.654  18.586  0.00  0.00    +0.000 A 
ATOM      3  N   UNL     1       1.804   8.997  17.600  0.00  0.00    +0.000 NA
ATOM      4  C   UNL     1       2.437   7.869  17.997  0.00  0.00    +0.000 A 
ATOM      5  C   UNL     1       2.463   7.421  19.318  0.00  0.00    +0.000 A 
ATOM      6  N   UNL     1       1.778   8.097  20.272  0.00  0.00    +0.000 NA
ENDROOT
BRANCH   1  11
ATOM      7  C   UNL     1      -1.294  11.569  21.677  0.00  0.00    +0.000 A 
ATOM      8  C   UNL     1      -1.025  11.166  22.983  0.00  0.00    +0.000 A 
ATOM      9  N   UNL     1      -0.188  10.157  23.323  0.00  0.00    +0.000 NA
ATOM     10  C   UNL     1       0.456   9.535  22.305  0.00  0.00    +0.000 A 
ATOM     11  C   UNL     1       0.345   9.892  20.962  0.00  0.00    +0.000 A 
ATOM     12  C   UNL     1      -0.554  10.930  20.679  0.00  0.00    +0.000 A 
BRANCH   7  13
ATOM     13  N   UNL     1      -2.172  12.617  21.391  0.00  0.00    +0.000 N 
ATOM     14  H   UNL     1      -1.741  13.423  20.943  0.00  0.00    +0.000 HD
BRANCH  13  15
ATOM     15  C   UNL     1      -3.146  12.987  22.424  0.00  0.00    +0.000 C 
BRANCH  15  16
ATOM     16  C   UNL     1      -4.582  13.062  21.859  0.00  0.00    +0.000 C 
BRANCH  16  18
ATOM     17  C   UNL     1      -5.650  12.776  24.024  0.00  0.00    +0.000 C 
ATOM     18  N   UNL     1      -5.607  12.330  22.630  0.00  0.00    +0.000 NA
ATOM     19  C   UNL     1      -6.921  12.515  22.011  0.00  0.00    +0.000 C 
ENDBRANCH  16  18
ENDBRANCH  15  16
ENDBRANCH  13  15
ENDBRANCH   7  13
ENDBRANCH   1  11
BRANCH   5  20
ATOM     20  N   UNL     1       3.143   6.227  19.658  0.00  0.00    +0.000 N 
ATOM     21  H   UNL     1       3.909   6.420  20.296  0.00  0.00    +0.000 HD
BRANCH  20  22
ATOM     22  C   UNL     1       2.491   5.045  20.096  0.00  0.00    +0.000 A 
ATOM     23  C   UNL     1       2.604   4.581  21.416  0.00  0.00    +0.000 A 
ATOM     24  C   UNL     1       2.028   3.372  21.806  0.00  0.00    +0.000 A 
ATOM     25  C   UNL     1       1.348   2.598  20.872  0.00  0.00    +0.000 A 
ATOM     26  C   UNL     1       1.250   3.038  19.553  0.00  0.00    +0.000 A 
ATOM     27 CL   UNL     1       0.419   2.071  18.396  0.00  0.00    +0.000 Cl
ATOM     28  C   UNL     1       1.826   4.247  19.160  0.00  0.00    +0.000 A 
ENDBRANCH  20  22
ENDBRANCH   5  20
TORSDOF 7
ENDMDL
MODEL 8
REMARK VINA RESULT:      -7.1      2.484      3.594
REMARK  Name = 
REMARK  9 active torsions:
REMARK  status: ('A' for Active; 'I' for Inactive)
REMARK    1  A    between atoms: C_1  and  N_2
REMARK    2  A    between atoms: N_2  and  C_3
REMARK    3  A    between atoms: N_2  and  C_4
REMARK    4  A    between atoms: C_4  and  C_5
REMARK    5  A    between atoms: C_5  and  N_6
REMARK    6  A    between atoms: N_6  and  C_7
REMARK    7  A    between atoms: C_11  and  C_12
REMARK    8  A    between atoms: C_16  and  N_17
REMARK    9  A    between atoms: N_17  and  C_18
REMARK                            x       y       z     vdW  Elec       q    Type
REMARK                         _______ _______ _______ _____ _____    ______ ____
ROOT
ATOM      1  C   UNL     1       1.017   9.677  19.248  0.00  0.00    +0.000 A 
ATOM      2  C   UNL     1       1.619   9.788  17.997  0.00  0.00    +0.000 A 
ATOM      3  N   UNL     1       2.464   8.860  17.491  0.00  0.00    +0.000 NA
ATOM      4  C   UNL     1       2.696   7.802  18.303  0.00  0.00    +0.000 A 
ATOM      5  C   UNL     1       2.153   7.677  19.582  0.00  0.00    +0.000 A 
ATOM      6  N   UNL     1       1.297   8.619  20.045  0.00  0.00    +0.000 NA
ENDROOT
BRANCH   1  11
ATOM      7  C   UNL     1      -2.070  11.865  19.601  0.00  0.00    +0.000 A 
ATOM      8  C   UNL     1      -1.701  12.524  20.772  0.00  0.00    +0.000 A 
ATOM      9  N   UNL     1      -0.576  12.268  21.481  0.00  0.00    +0.000 NA
ATOM     10  C   UNL     1       0.258  11.326  20.974  0.00  0.00    +0.000 A 
ATOM     11  C   UNL     1       0.053  10.651  19.773  0.00  0.00    +0.000 A 
ATOM     12  C   UNL     1      -1.140  10.950  19.100  0.00  0.00    +0.000 A 
BRANCH   7  13
ATOM     13  N   UNL     1      -3.248  12.173  18.916  0.00  0.00    +0.000 N 
ATOM     14  H   UNL     1      -3.930  12.701  19.458  0.00  0.00    +0.000 HD
BRANCH  13  15
ATOM     15  C   UNL     1      -3.856  11.113  18.105  0.00  0.00    +0.000 C 
BRANCH  15  16
ATOM     16  C   UNL     1      -3.890  11.487  16.606  0.00  0.00    +0.000 C 
BRANCH  16  18
ATOM     17  C   UNL     1      -2.330   9.629  16.445  0.00  0.00    +0.000 C 
ATOM     18  N   UNL     1      -2.912  10.781  15.753  0.00  0.00    +0.000 NA
ATOM     19  C   UNL     1      -3.560  10.339  14.516  0.00  0.00    +0.000 C 
ENDBRANCH  16  18
ENDBRANCH  15  16
ENDBRANCH  13  15
ENDBRANCH   7  13
ENDBRANCH   1  11
BRANCH   5  20
ATOM     20  N   UNL     1       2.436   6.538  20.373  0.00  0.00    +0.000 N 
ATOM     21  H   UNL     1       2.104   6.671  21.324  0.00  0.00    +0.000 HD
BRANCH  20  22
ATOM     22  C   UNL     1       2.131   5.209  19.980  0.00  0.00    +0.000 A 
ATOM     23  C   UNL     1       1.088   4.481  20.574  0.00  0.00    +0.000 A 
ATOM     24  C   UNL     1       0.858   3.146  20.237  0.00  0.00    +0.000 A 
ATOM     25  C   UNL     1       1.685   2.515  19.315  0.00  0.00    +0.000 A 
ATOM     26  C   UNL     1       2.738   3.221  18.737  0.00  0.00    +0.000 A 
ATOM     27 CL   UNL     1       3.769   2.433  17.606  0.00  0.00    +0.000 Cl
ATOM     28  C   UNL     1       2.971   4.556  19.073  0.00  0.00    +0.000 A 
ENDBRANCH  20  22
ENDBRANCH   5  20
TORSDOF 7
ENDMDL
MODEL 9
REMARK VINA RESULT:      -7.1      1.608      2.684
REMARK  Name = 
REMARK  9 active torsions:
REMARK  status: ('A' for Active; 'I' for Inactive)
REMARK    1  A    between atoms: C_1  and  N_2
REMARK    2  A    between atoms: N_2  and  C_3
REMARK    3  A    between atoms: N_2  and  C_4
REMARK    4  A    between atoms: C_4  and  C_5
REMARK    5  A    between atoms: C_5  and  N_6
REMARK    6  A    between atoms: N_6  and  C_7
REMARK    7  A    between atoms: C_11  and  C_12
REMARK    8  A    between atoms: C_16  and  N_17
REMARK    9  A    between atoms: N_17  and  C_18
REMARK                            x       y       z     vdW  Elec       q    Type
REMARK                         _______ _______ _______ _____ _____    ______ ____
ROOT
ATOM      1  C   UNL     1       0.962   9.211  20.084  0.00  0.00    +0.000 A 
ATOM      2  C   UNL     1       1.016   9.598  18.748  0.00  0.00    +0.000 A 
ATOM      3  N   UNL     1       1.689   8.907  17.798  0.00  0.00    +0.000 NA
ATOM      4  C   UNL     1       2.324   7.800  18.247  0.00  0.00    +0.000 A 
ATOM      5  C   UNL     1       2.337   7.405  19.585  0.00  0.00    +0.000 A 
ATOM      6  N   UNL     1       1.636   8.113  20.502  0.00  0.00    +0.000 NA
ENDROOT
BRANCH   1  11
ATOM      7  C   UNL     1      -1.294  11.766  21.767  0.00  0.00    +0.000 A 
ATOM      8  C   UNL     1      -1.225  11.255  23.061  0.00  0.00    +0.000 A 
ATOM      9  N   UNL     1      -0.568  10.123  23.411  0.00  0.00    +0.000 NA
ATOM     10  C   UNL     1       0.098   9.479  22.422  0.00  0.00    +0.000 A 
ATOM     11  C   UNL     1       0.182   9.924  21.103  0.00  0.00    +0.000 A 
ATOM     12  C   UNL     1      -0.537  11.089  20.805  0.00  0.00    +0.000 A 
BRANCH   7  13
ATOM     13  N   UNL     1      -1.992  12.938  21.468  0.00  0.00    +0.000 N 
ATOM     14  H   UNL     1      -2.952  12.960  21.806  0.00  0.00    +0.000 HD
BRANCH  13  15
ATOM     15  C   UNL     1      -1.846  13.488  20.116  0.00  0.00    +0.000 C 
BRANCH  15  16
ATOM     16  C   UNL     1      -1.178  14.881  20.131  0.00  0.00    +0.000 C 
BRANCH  16  18
ATOM     17  C   UNL     1       0.412  13.807  18.638  0.00  0.00    +0.000 C 
ATOM     18  N   UNL     1       0.167  14.947  19.524  0.00  0.00    +0.000 NA
ATOM     19  C   UNL     1       0.312  16.197  18.773  0.00  0.00    +0.000 C 
ENDBRANCH  16  18
ENDBRANCH  15  16
ENDBRANCH  13  15
ENDBRANCH   7  13
ENDBRANCH   1  11
BRANCH   5  20
ATOM     20  N   UNL     1       3.020   6.230  19.980  0.00  0.00    +0.000 N 
ATOM     21  H   UNL     1       3.371   6.322  20.929  0.00  0.00    +0.000 HD
BRANCH  20  22
ATOM     22  C   UNL     1       2.492   4.922  19.828  0.00  0.00    +0.000 A 
ATOM     23  C   UNL     1       1.373   4.484  20.554  0.00  0.00    +0.000 A 
ATOM     24  C   UNL     1       0.921   3.167  20.458  0.00  0.00    +0.000 A 
ATOM     25  C   UNL     1       1.599   2.263  19.646  0.00  0.00    +0.000 A 
ATOM     26  C   UNL     1       2.725   2.681  18.939  0.00  0.00    +0.000 A 
ATOM     27 CL   UNL     1       3.569   1.556  17.947  0.00  0.00    +0.000 Cl
ATOM     28  C   UNL     1       3.179   3.997  19.036  0.00  0.00    +0.000 A 
ENDBRANCH  20  22
ENDBRANCH   5  20
TORSDOF 7
ENDMDL
