MODEL 1
REMARK VINA RESULT:      -8.6      0.000      0.000
REMARK  Name = 
REMARK  3 active torsions:
REMARK  status: ('A' for Active; 'I' for Inactive)
REMARK    1  A    between atoms: C_2  and  C_3
REMARK    2  A    between atoms: C_3  and  O_4
REMARK    3  A    between atoms: O_4  and  C_5
REMARK                            x       y       z     vdW  Elec       q    Type
REMARK                         _______ _______ _______ _____ _____    ______ ____
ROOT
ATOM      1  O   UNL     1       3.097   3.986  19.645  0.00  0.00    +0.000 OA
ATOM      2  C   UNL     1       3.496   5.028  19.124  0.00  0.00    +0.000 C 
ATOM      3  N   UNL     1       4.078   5.038  17.869  0.00  0.00    +0.000 N 
ATOM      4  C   UNL     1       4.526   6.233  17.120  0.00  0.00    +0.000 C 
ATOM      5  C   UNL     1       5.862   5.994  16.368  0.00  0.00    +0.000 C 
ATOM      6  N   UNL     1       5.717   4.760  15.596  0.00  0.00    +0.000 N 
ATOM      7  C   UNL     1       6.341   4.619  14.376  0.00  0.00    +0.000 A 
ATOM      8  C   UNL     1       5.791   3.742  13.439  0.00  0.00    +0.000 A 
ATOM      9  C   UNL     1       6.354   3.624  12.171  0.00  0.00    +0.000 A 
ATOM     10  C   UNL     1       7.474   4.372  11.871  0.00  0.00    +0.000 A 
ATOM     11  C   UNL     1       7.968   5.225  12.843  0.00  0.00    +0.000 A 
ATOM     12  N   UNL     1       7.415   5.374  14.075  0.00  0.00    +0.000 NA
ATOM     13  C   UNL     1       5.462   3.573  16.413  0.00  0.00    +0.000 C 
ATOM     14  C   UNL     1       4.112   3.774  17.114  0.00  0.00    +0.000 C 
ENDROOT
BRANCH   2  15
ATOM     15  C   UNL     1       3.325   6.352  19.865  0.00  0.00    +0.000 C 
BRANCH  15  16
ATOM     16  O   UNL     1       1.961   6.753  19.855  0.00  0.00    +0.000 OA
BRANCH  16  17
ATOM     17  C   UNL     1       1.708   8.048  19.460  0.00  0.00    +0.000 A 
ATOM     18  C   UNL     1       2.056   8.551  18.199  0.00  0.00    +0.000 A 
ATOM     19  C   UNL     1       1.802   9.880  17.870  0.00  0.00    +0.000 A 
ATOM     20  C   UNL     1       1.193  10.721  18.796  0.00  0.00    +0.000 A 
ATOM     21  C   UNL     1       0.804  10.239  20.053  0.00  0.00    +0.000 A 
ATOM     22  C   UNL     1       0.174  11.095  20.971  0.00  0.00    +0.000 A 
ATOM     23  C   UNL     1      -0.238  10.628  22.218  0.00  0.00    +0.000 A 
ATOM     24  C   UNL     1      -0.027   9.298  22.562  0.00  0.00    +0.000 A 
ATOM     25  C   UNL     1       0.610   8.438  21.663  0.00  0.00    +0.000 A 
ATOM     26  C   UNL     1       1.045   8.885  20.396  0.00  0.00    +0.000 A 
ENDBRANCH  16  17
ENDBRANCH  15  16
ENDBRANCH   2  15
TORSDOF 3
ENDMDL
MODEL 2
REMARK VINA RESULT:      -8.0      3.654     10.088
REMARK  Name = 
REMARK  3 active torsions:
REMARK  status: ('A' for Active; 'I' for Inactive)
REMARK    1  A    between atoms: C_2  and  C_3
REMARK    2  A    between atoms: C_3  and  O_4
REMARK    3  A    between atoms: O_4  and  C_5
REMARK                            x       y       z     vdW  Elec       q    Type
REMARK                         _______ _______ _______ _____ _____    ______ ____
ROOT
ATOM      1  O   UNL     1       1.879   9.565  17.437  0.00  0.00    +0.000 OA
ATOM      2  C   UNL     1       1.545   9.143  18.545  0.00  0.00    +0.000 C 
ATOM      3  N   UNL     1       0.580   9.778  19.306  0.00  0.00    +0.000 N 
ATOM      4  C   UNL     1       0.053   9.322  20.611  0.00  0.00    +0.000 C 
ATOM      5  C   UNL     1      -0.177  10.495  21.600  0.00  0.00    +0.000 C 
ATOM      6  N   UNL     1      -0.963  11.511  20.900  0.00  0.00    +0.000 N 
ATOM      7  C   UNL     1      -1.883  12.278  21.582  0.00  0.00    +0.000 A 
ATOM      8  C   UNL     1      -2.964  12.812  20.878  0.00  0.00    +0.000 A 
ATOM      9  C   UNL     1      -3.949  13.535  21.545  0.00  0.00    +0.000 A 
ATOM     10  C   UNL     1      -3.823  13.728  22.905  0.00  0.00    +0.000 A 
ATOM     11  C   UNL     1      -2.730  13.170  23.545  0.00  0.00    +0.000 A 
ATOM     12  N   UNL     1      -1.773  12.438  22.914  0.00  0.00    +0.000 NA
ATOM     13  C   UNL     1      -0.303  12.065  19.717  0.00  0.00    +0.000 C 
ATOM     14  C   UNL     1      -0.126  10.923  18.708  0.00  0.00    +0.000 C 
ENDROOT
BRANCH   2  15
ATOM     15  C   UNL     1       2.192   7.872  19.090  0.00  0.00    +0.000 C 
BRANCH  15  16
ATOM     16  O   UNL     1       3.235   7.438  18.226  0.00  0.00    +0.000 OA
BRANCH  16  17
ATOM     17  C   UNL     1       3.205   6.112  17.851  0.00  0.00    +0.000 A 
ATOM     18  C   UNL     1       2.101   5.276  18.063  0.00  0.00    +0.000 A 
ATOM     19  C   UNL     1       2.145   3.935  17.690  0.00  0.00    +0.000 A 
ATOM     20  C   UNL     1       3.290   3.416  17.095  0.00  0.00    +0.000 A 
ATOM     21  C   UNL     1       4.398   4.235  16.840  0.00  0.00    +0.000 A 
ATOM     22  C   UNL     1       5.540   3.700  16.223  0.00  0.00    +0.000 A 
ATOM     23  C   UNL     1       6.644   4.504  15.942  0.00  0.00    +0.000 A 
ATOM     24  C   UNL     1       6.618   5.853  16.274  0.00  0.00    +0.000 A 
ATOM     25  C   UNL     1       5.492   6.396  16.901  0.00  0.00    +0.000 A 
ATOM     26  C   UNL     1       4.362   5.604  17.204  0.00  0.00    +0.000 A 
ENDBRANCH  16  17
ENDBRANCH  15  16
ENDBRANCH   2  15
TORSDOF 3
ENDMDL
MODEL 3
REMARK VINA RESULT:      -8.0      2.829      4.338
REMARK  Name = 
REMARK  3 active torsions:
REMARK  status: ('A' for Active; 'I' for Inactive)
REMARK    1  A    between atoms: C_2  and  C_3
REMARK    2  A    between atoms: C_3  and  O_4
REMARK    3  A    between atoms: O_4  and  C_5
REMARK                            x       y       z     vdW  Elec       q    Type
REMARK                         _______ _______ _______ _____ _____    ______ ____
ROOT
ATOM      1  O   UNL     1       1.229   7.809  21.309  0.00  0.00    +0.000 OA
ATOM      2  C   UNL     1       1.500   8.328  20.226  0.00  0.00    +0.000 C 
ATOM      3  N   UNL     1       2.207   7.649  19.250  0.00  0.00    +0.000 N 
ATOM      4  C   UNL     1       2.524   8.146  17.892  0.00  0.00    +0.000 C 
ATOM      5  C   UNL     1       3.956   7.756  17.439  0.00  0.00    +0.000 C 
ATOM      6  N   UNL     1       4.108   6.318  17.657  0.00  0.00    +0.000 N 
ATOM      7  C   UNL     1       4.878   5.558  16.804  0.00  0.00    +0.000 A 
ATOM      8  C   UNL     1       4.592   4.197  16.675  0.00  0.00    +0.000 A 
ATOM      9  C   UNL     1       5.303   3.410  15.773  0.00  0.00    +0.000 A 
ATOM     10  C   UNL     1       6.305   3.998  15.028  0.00  0.00    +0.000 A 
ATOM     11  C   UNL     1       6.537   5.352  15.200  0.00  0.00    +0.000 A 
ATOM     12  N   UNL     1       5.834   6.140  16.056  0.00  0.00    +0.000 NA
ATOM     13  C   UNL     1       3.971   5.909  19.056  0.00  0.00    +0.000 C 
ATOM     14  C   UNL     1       2.538   6.236  19.495  0.00  0.00    +0.000 C 
ENDROOT
BRANCH   2  15
ATOM     15  C   UNL     1       1.026   9.750  19.935  0.00  0.00    +0.000 C 
BRANCH  15  16
ATOM     16  O   UNL     1       0.002   9.739  18.948  0.00  0.00    +0.000 OA
BRANCH  16  17
ATOM     17  C   UNL     1      -1.042  10.618  19.141  0.00  0.00    +0.000 A 
ATOM     18  C   UNL     1      -1.152  11.449  20.263  0.00  0.00    +0.000 A 
ATOM     19  C   UNL     1      -2.249  12.293  20.416  0.00  0.00    +0.000 A 
ATOM     20  C   UNL     1      -3.246  12.320  19.446  0.00  0.00    +0.000 A 
ATOM     21  C   UNL     1      -3.147  11.524  18.297  0.00  0.00    +0.000 A 
ATOM     22  C   UNL     1      -4.153  11.576  17.317  0.00  0.00    +0.000 A 
ATOM     23  C   UNL     1      -4.061  10.807  16.158  0.00  0.00    +0.000 A 
ATOM     24  C   UNL     1      -2.962   9.979  15.963  0.00  0.00    +0.000 A 
ATOM     25  C   UNL     1      -1.961   9.909  16.935  0.00  0.00    +0.000 A 
ATOM     26  C   UNL     1      -2.030  10.670  18.123  0.00  0.00    +0.000 A 
ENDBRANCH  16  17
ENDBRANCH  15  16
ENDBRANCH   2  15
TORSDOF 3
ENDMDL
MODEL 4
REMARK VINA RESULT:      -8.0      2.685      8.661
REMARK  Name = 
REMARK  3 active torsions:
REMARK  status: ('A' for Active; 'I' for Inactive)
REMARK    1  A    between atoms: C_2  and  C_3
REMARK    2  A    between atoms: C_3  and  O_4
REMARK    3  A    between atoms: O_4  and  C_5
REMARK                            x       y       z     vdW  Elec       q    Type
REMARK                         _______ _______ _______ _____ _____    ______ ____
ROOT
ATOM      1  O   UNL     1       2.137   5.459  20.428  0.00  0.00    +0.000 OA
ATOM      2  C   UNL     1       2.253   6.120  19.396  0.00  0.00    +0.000 C 
ATOM      3  N   UNL     1       2.033   7.486  19.377  0.00  0.00    +0.000 N 
ATOM      4  C   UNL     1       2.212   8.386  18.216  0.00  0.00    +0.000 C 
ATOM      5  C   UNL     1       1.100   9.465  18.127  0.00  0.00    +0.000 C 
ATOM      6  N   UNL     1       1.004  10.106  19.438  0.00  0.00    +0.000 N 
ATOM      7  C   UNL     1       0.687  11.443  19.543  0.00  0.00    +0.000 A 
ATOM      8  C   UNL     1       1.120  12.148  20.667  0.00  0.00    +0.000 A 
ATOM      9  C   UNL     1       0.878  13.515  20.776  0.00  0.00    +0.000 A 
ATOM     10  C   UNL     1       0.185  14.148  19.764  0.00  0.00    +0.000 A 
ATOM     11  C   UNL     1      -0.213  13.392  18.675  0.00  0.00    +0.000 A 
ATOM     12  N   UNL     1       0.039  12.064  18.540  0.00  0.00    +0.000 NA
ATOM     13  C   UNL     1       0.636   9.194  20.522  0.00  0.00    +0.000 C 
ATOM     14  C   UNL     1       1.760   8.158  20.657  0.00  0.00    +0.000 C 
ENDROOT
BRANCH   2  15
ATOM     15  C   UNL     1       2.673   5.425  18.103  0.00  0.00    +0.000 C 
BRANCH  15  16
ATOM     16  O   UNL     1       3.633   4.412  18.375  0.00  0.00    +0.000 OA
BRANCH  16  17
ATOM     17  C   UNL     1       4.956   4.780  18.269  0.00  0.00    +0.000 A 
ATOM     18  C   UNL     1       5.728   5.203  19.359  0.00  0.00    +0.000 A 
ATOM     19  C   UNL     1       7.053   5.593  19.181  0.00  0.00    +0.000 A 
ATOM     20  C   UNL     1       7.624   5.559  17.913  0.00  0.00    +0.000 A 
ATOM     21  C   UNL     1       6.887   5.109  16.809  0.00  0.00    +0.000 A 
ATOM     22  C   UNL     1       7.482   5.064  15.537  0.00  0.00    +0.000 A 
ATOM     23  C   UNL     1       6.772   4.600  14.431  0.00  0.00    +0.000 A 
ATOM     24  C   UNL     1       5.457   4.174  14.584  0.00  0.00    +0.000 A 
ATOM     25  C   UNL     1       4.849   4.225  15.841  0.00  0.00    +0.000 A 
ATOM     26  C   UNL     1       5.541   4.698  16.978  0.00  0.00    +0.000 A 
ENDBRANCH  16  17
ENDBRANCH  15  16
ENDBRANCH   2  15
TORSDOF 3
ENDMDL
MODEL 5
REMARK VINA RESULT:      -7.9      3.729      9.892
REMARK  Name = 
REMARK  3 active torsions:
REMARK  status: ('A' for Active; 'I' for Inactive)
REMARK    1  A    between atoms: C_2  and  C_3
REMARK    2  A    between atoms: C_3  and  O_4
REMARK    3  A    between atoms: O_4  and  C_5
REMARK                            x       y       z     vdW  Elec       q    Type
REMARK                         _______ _______ _______ _____ _____    ______ ____
ROOT
ATOM      1  O   UNL     1       2.016   9.706  17.434  0.00  0.00    +0.000 OA
ATOM      2  C   UNL     1       1.628   9.228  18.500  0.00  0.00    +0.000 C 
ATOM      3  N   UNL     1       0.641   9.837  19.255  0.00  0.00    +0.000 N 
ATOM      4  C   UNL     1       0.050   9.317  20.508  0.00  0.00    +0.000 C 
ATOM      5  C   UNL     1      -0.202  10.437  21.552  0.00  0.00    +0.000 C 
ATOM      6  N   UNL     1      -0.941  11.505  20.880  0.00  0.00    +0.000 N 
ATOM      7  C   UNL     1      -1.876  12.250  21.565  0.00  0.00    +0.000 A 
ATOM      8  C   UNL     1      -2.917  12.843  20.848  0.00  0.00    +0.000 A 
ATOM      9  C   UNL     1      -3.919  13.545  21.513  0.00  0.00    +0.000 A 
ATOM     10  C   UNL     1      -3.848  13.659  22.887  0.00  0.00    +0.000 A 
ATOM     11  C   UNL     1      -2.793  13.044  23.538  0.00  0.00    +0.000 A 
ATOM     12  N   UNL     1      -1.822  12.332  22.908  0.00  0.00    +0.000 NA
ATOM     13  C   UNL     1      -0.221  12.113  19.759  0.00  0.00    +0.000 C 
ATOM     14  C   UNL     1      -0.020  11.027  18.695  0.00  0.00    +0.000 C 
ENDROOT
BRANCH   2  15
ATOM     15  C   UNL     1       2.230   7.916  18.998  0.00  0.00    +0.000 C 
BRANCH  15  16
ATOM     16  O   UNL     1       2.060   6.893  18.025  0.00  0.00    +0.000 OA
BRANCH  16  17
ATOM     17  C   UNL     1       3.134   6.052  17.830  0.00  0.00    +0.000 A 
ATOM     18  C   UNL     1       4.424   6.507  17.526  0.00  0.00    +0.000 A 
ATOM     19  C   UNL     1       5.461   5.604  17.309  0.00  0.00    +0.000 A 
ATOM     20  C   UNL     1       5.224   4.236  17.400  0.00  0.00    +0.000 A 
ATOM     21  C   UNL     1       3.952   3.752  17.734  0.00  0.00    +0.000 A 
ATOM     22  C   UNL     1       3.731   2.369  17.839  0.00  0.00    +0.000 A 
ATOM     23  C   UNL     1       2.478   1.869  18.192  0.00  0.00    +0.000 A 
ATOM     24  C   UNL     1       1.431   2.747  18.445  0.00  0.00    +0.000 A 
ATOM     25  C   UNL     1       1.633   4.126  18.332  0.00  0.00    +0.000 A 
ATOM     26  C   UNL     1       2.890   4.660  17.970  0.00  0.00    +0.000 A 
ENDBRANCH  16  17
ENDBRANCH  15  16
ENDBRANCH   2  15
TORSDOF 3
ENDMDL
MODEL 6
REMARK VINA RESULT:      -7.9      4.103     10.458
REMARK  Name = 
REMARK  3 active torsions:
REMARK  status: ('A' for Active; 'I' for Inactive)
REMARK    1  A    between atoms: C_2  and  C_3
REMARK    2  A    between atoms: C_3  and  O_4
REMARK    3  A    between atoms: O_4  and  C_5
REMARK                            x       y       z     vdW  Elec       q    Type
REMARK                         _______ _______ _______ _____ _____    ______ ____
ROOT
ATOM      1  O   UNL     1       1.353   9.275  18.941  0.00  0.00    +0.000 OA
ATOM      2  C   UNL     1       0.984   9.020  20.088  0.00  0.00    +0.000 C 
ATOM      3  N   UNL     1      -0.024   9.739  20.705  0.00  0.00    +0.000 N 
ATOM      4  C   UNL     1      -0.595   9.476  22.044  0.00  0.00    +0.000 C 
ATOM      5  C   UNL     1      -0.888  10.782  22.830  0.00  0.00    +0.000 C 
ATOM      6  N   UNL     1      -1.666  11.655  21.953  0.00  0.00    +0.000 N 
ATOM      7  C   UNL     1      -2.628  12.494  22.473  0.00  0.00    +0.000 A 
ATOM      8  C   UNL     1      -3.691  12.883  21.655  0.00  0.00    +0.000 A 
ATOM      9  C   UNL     1      -4.718  13.674  22.165  0.00  0.00    +0.000 A 
ATOM     10  C   UNL     1      -4.650  14.079  23.482  0.00  0.00    +0.000 A 
ATOM     11  C   UNL     1      -3.573  13.655  24.241  0.00  0.00    +0.000 A 
ATOM     12  N   UNL     1      -2.576  12.861  23.767  0.00  0.00    +0.000 NA
ATOM     13  C   UNL     1      -0.971  12.038  20.723  0.00  0.00    +0.000 C 
ATOM     14  C   UNL     1      -0.730  10.758  19.911  0.00  0.00    +0.000 C 
ENDROOT
BRANCH   2  15
ATOM     15  C   UNL     1       1.634   7.866  20.847  0.00  0.00    +0.000 C 
BRANCH  15  16
ATOM     16  O   UNL     1       2.547   7.172  20.006  0.00  0.00    +0.000 OA
BRANCH  16  17
ATOM     17  C   UNL     1       2.275   5.841  19.777  0.00  0.00    +0.000 A 
ATOM     18  C   UNL     1       1.346   5.105  20.524  0.00  0.00    +0.000 A 
ATOM     19  C   UNL     1       1.140   3.752  20.264  0.00  0.00    +0.000 A 
ATOM     20  C   UNL     1       1.854   3.122  19.250  0.00  0.00    +0.000 A 
ATOM     21  C   UNL     1       2.766   3.839  18.465  0.00  0.00    +0.000 A 
ATOM     22  C   UNL     1       3.467   3.193  17.433  0.00  0.00    +0.000 A 
ATOM     23  C   UNL     1       4.363   3.896  16.628  0.00  0.00    +0.000 A 
ATOM     24  C   UNL     1       4.567   5.254  16.843  0.00  0.00    +0.000 A 
ATOM     25  C   UNL     1       3.885   5.907  17.874  0.00  0.00    +0.000 A 
ATOM     26  C   UNL     1       2.977   5.219  18.711  0.00  0.00    +0.000 A 
ENDBRANCH  16  17
ENDBRANCH  15  16
ENDBRANCH   2  15
TORSDOF 3
ENDMDL
MODEL 7
REMARK VINA RESULT:      -7.7      2.990      9.434
REMARK  Name = 
REMARK  3 active torsions:
REMARK  status: ('A' for Active; 'I' for Inactive)
REMARK    1  A    between atoms: C_2  and  C_3
REMARK    2  A    between atoms: C_3  and  O_4
REMARK    3  A    between atoms: O_4  and  C_5
REMARK                            x       y       z     vdW  Elec       q    Type
REMARK                         _______ _______ _______ _____ _____    ______ ____
ROOT
ATOM      1  O   UNL     1       3.079   7.608  17.716  0.00  0.00    +0.000 OA
ATOM      2  C   UNL     1       2.650   7.365  18.844  0.00  0.00    +0.000 C 
ATOM      3  N   UNL     1       1.747   8.202  19.475  0.00  0.00    +0.000 N 
ATOM      4  C   UNL     1       1.114   7.974  20.793  0.00  0.00    +0.000 C 
ATOM      5  C   UNL     1       1.002   9.276  21.630  0.00  0.00    +0.000 C 
ATOM      6  N   UNL     1       0.383  10.292  20.779  0.00  0.00    +0.000 N 
ATOM      7  C   UNL     1      -0.454  11.244  21.319  0.00  0.00    +0.000 A 
ATOM      8  C   UNL     1      -1.428  11.821  20.502  0.00  0.00    +0.000 A 
ATOM      9  C   UNL     1      -2.336  12.736  21.029  0.00  0.00    +0.000 A 
ATOM     10  C   UNL     1      -2.238  13.073  22.364  0.00  0.00    +0.000 A 
ATOM     11  C   UNL     1      -1.253  12.461  23.120  0.00  0.00    +0.000 A 
ATOM     12  N   UNL     1      -0.377  11.546  22.629  0.00  0.00    +0.000 NA
ATOM     13  C   UNL     1       1.155  10.614  19.578  0.00  0.00    +0.000 C 
ATOM     14  C   UNL     1       1.220   9.347  18.715  0.00  0.00    +0.000 C 
ENDROOT
BRANCH   2  15
ATOM     15  C   UNL     1       3.103   6.097  19.563  0.00  0.00    +0.000 C 
BRANCH  15  16
ATOM     16  O   UNL     1       3.631   5.161  18.631  0.00  0.00    +0.000 OA
BRANCH  16  17
ATOM     17  C   UNL     1       4.998   5.174  18.461  0.00  0.00    +0.000 A 
ATOM     18  C   UNL     1       5.902   5.434  19.499  0.00  0.00    +0.000 A 
ATOM     19  C   UNL     1       7.272   5.464  19.256  0.00  0.00    +0.000 A 
ATOM     20  C   UNL     1       7.757   5.230  17.973  0.00  0.00    +0.000 A 
ATOM     21  C   UNL     1       6.880   4.936  16.920  0.00  0.00    +0.000 A 
ATOM     22  C   UNL     1       7.384   4.684  15.634  0.00  0.00    +0.000 A 
ATOM     23  C   UNL     1       6.528   4.369  14.579  0.00  0.00    +0.000 A 
ATOM     24  C   UNL     1       5.158   4.300  14.799  0.00  0.00    +0.000 A 
ATOM     25  C   UNL     1       4.641   4.560  16.071  0.00  0.00    +0.000 A 
ATOM     26  C   UNL     1       5.483   4.889  17.157  0.00  0.00    +0.000 A 
ENDBRANCH  16  17
ENDBRANCH  15  16
ENDBRANCH   2  15
TORSDOF 3
ENDMDL
MODEL 8
REMARK VINA RESULT:      -7.7      1.400      2.566
REMARK  Name = 
REMARK  3 active torsions:
REMARK  status: ('A' for Active; 'I' for Inactive)
REMARK    1  A    between atoms: C_2  and  C_3
REMARK    2  A    between atoms: C_3  and  O_4
REMARK    3  A    between atoms: O_4  and  C_5
REMARK                            x       y       z     vdW  Elec       q    Type
REMARK                         _______ _______ _______ _____ _____    ______ ____
ROOT
ATOM      1  O   UNL     1       1.651   5.200  20.244  0.00  0.00    +0.000 OA
ATOM      2  C   UNL     1       2.253   6.130  19.706  0.00  0.00    +0.000 C 
ATOM      3  N   UNL     1       2.978   5.952  18.542  0.00  0.00    +0.000 N 
ATOM      4  C   UNL     1       3.677   7.007  17.775  0.00  0.00    +0.000 C 
ATOM      5  C   UNL     1       5.047   6.530  17.225  0.00  0.00    +0.000 C 
ATOM      6  N   UNL     1       4.824   5.262  16.532  0.00  0.00    +0.000 N 
ATOM      7  C   UNL     1       5.566   4.932  15.418  0.00  0.00    +0.000 A 
ATOM      8  C   UNL     1       5.015   4.055  14.482  0.00  0.00    +0.000 A 
ATOM      9  C   UNL     1       5.705   3.751  13.311  0.00  0.00    +0.000 A 
ATOM     10  C   UNL     1       6.947   4.318  13.108  0.00  0.00    +0.000 A 
ATOM     11  C   UNL     1       7.435   5.182  14.073  0.00  0.00    +0.000 A 
ATOM     12  N   UNL     1       6.763   5.510  15.208  0.00  0.00    +0.000 NA
ATOM     13  C   UNL     1       4.308   4.195  17.391  0.00  0.00    +0.000 C 
ATOM     14  C   UNL     1       2.925   4.633  17.891  0.00  0.00    +0.000 C 
ENDROOT
BRANCH   2  15
ATOM     15  C   UNL     1       2.182   7.525  20.322  0.00  0.00    +0.000 C 
BRANCH  15  16
ATOM     16  O   UNL     1       0.995   8.190  19.907  0.00  0.00    +0.000 OA
BRANCH  16  17
ATOM     17  C   UNL     1       0.427   9.052  20.819  0.00  0.00    +0.000 A 
ATOM     18  C   UNL     1       0.521   8.877  22.206  0.00  0.00    +0.000 A 
ATOM     19  C   UNL     1      -0.103   9.767  23.077  0.00  0.00    +0.000 A 
ATOM     20  C   UNL     1      -0.824  10.844  22.572  0.00  0.00    +0.000 A 
ATOM     21  C   UNL     1      -0.908  11.064  21.191  0.00  0.00    +0.000 A 
ATOM     22  C   UNL     1      -1.625  12.166  20.697  0.00  0.00    +0.000 A 
ATOM     23  C   UNL     1      -1.702  12.412  19.326  0.00  0.00    +0.000 A 
ATOM     24  C   UNL     1      -1.063  11.560  18.434  0.00  0.00    +0.000 A 
ATOM     25  C   UNL     1      -0.357  10.452  18.912  0.00  0.00    +0.000 A 
ATOM     26  C   UNL     1      -0.268  10.173  20.294  0.00  0.00    +0.000 A 
ENDBRANCH  16  17
ENDBRANCH  15  16
ENDBRANCH   2  15
TORSDOF 3
ENDMDL
MODEL 9
REMARK VINA RESULT:      -7.6      0.974      2.236
REMARK  Name = 
REMARK  3 active torsions:
REMARK  status: ('A' for Active; 'I' for Inactive)
REMARK    1  A    between atoms: C_2  and  C_3
REMARK    2  A    between atoms: C_3  and  O_4
REMARK    3  A    between atoms: O_4  and  C_5
REMARK                            x       y       z     vdW  Elec       q    Type
REMARK                         _______ _______ _______ _____ _____    ______ ____
ROOT
ATOM      1  O   UNL     1       2.033   5.010  19.752  0.00  0.00    +0.000 OA
ATOM      2  C   UNL     1       2.659   5.938  19.239  0.00  0.00    +0.000 C 
ATOM      3  N   UNL     1       3.365   5.777  18.060  0.00  0.00    +0.000 N 
ATOM      4  C   UNL     1       4.089   6.835  17.321  0.00  0.00    +0.000 C 
ATOM      5  C   UNL     1       5.437   6.333  16.739  0.00  0.00    +0.000 C 
ATOM      6  N   UNL     1       5.164   5.098  16.005  0.00  0.00    +0.000 N 
ATOM      7  C   UNL     1       5.882   4.783  14.871  0.00  0.00    +0.000 A 
ATOM      8  C   UNL     1       5.292   3.957  13.912  0.00  0.00    +0.000 A 
ATOM      9  C   UNL     1       5.959   3.672  12.723  0.00  0.00    +0.000 A 
ATOM     10  C   UNL     1       7.217   4.204  12.525  0.00  0.00    +0.000 A 
ATOM     11  C   UNL     1       7.743   5.018  13.513  0.00  0.00    +0.000 A 
ATOM     12  N   UNL     1       7.095   5.329  14.667  0.00  0.00    +0.000 NA
ATOM     13  C   UNL     1       4.623   4.019  16.833  0.00  0.00    +0.000 C 
ATOM     14  C   UNL     1       3.261   4.484  17.365  0.00  0.00    +0.000 C 
ENDROOT
BRANCH   2  15
ATOM     15  C   UNL     1       2.641   7.313  19.903  0.00  0.00    +0.000 C 
BRANCH  15  16
ATOM     16  O   UNL     1       1.555   8.088  19.410  0.00  0.00    +0.000 OA
BRANCH  16  17
ATOM     17  C   UNL     1       0.890   8.865  20.333  0.00  0.00    +0.000 A 
ATOM     18  C   UNL     1       0.368   8.361  21.531  0.00  0.00    +0.000 A 
ATOM     19  C   UNL     1      -0.323   9.192  22.409  0.00  0.00    +0.000 A 
ATOM     20  C   UNL     1      -0.495  10.538  22.103  0.00  0.00    +0.000 A 
ATOM     21  C   UNL     1       0.044  11.079  20.927  0.00  0.00    +0.000 A 
ATOM     22  C   UNL     1      -0.122  12.443  20.640  0.00  0.00    +0.000 A 
ATOM     23  C   UNL     1       0.425  13.003  19.486  0.00  0.00    +0.000 A 
ATOM     24  C   UNL     1       1.147  12.204  18.606  0.00  0.00    +0.000 A 
ATOM     25  C   UNL     1       1.309  10.842  18.873  0.00  0.00    +0.000 A 
ATOM     26  C   UNL     1       0.760  10.246  20.031  0.00  0.00    +0.000 A 
ENDBRANCH  16  17
ENDBRANCH  15  16
ENDBRANCH   2  15
TORSDOF 3
ENDMDL
