MODEL 1
REMARK VINA RESULT:      -7.3      0.000      0.000
REMARK  Name = 
REMARK  10 active torsions:
REMARK  status: ('A' for Active; 'I' for Inactive)
REMARK    1  A    between atoms: C_1  and  C_2
REMARK    2  A    between atoms: C_2  and  C_3
REMARK    3  A    between atoms: C_3  and  O_4
REMARK    4  A    between atoms: C_3  and  C_5
REMARK    5  A    between atoms: C_5  and  N_6
REMARK    6  A    between atoms: C_8  and  C_9
REMARK    7  A    between atoms: N_12  and  C_13
REMARK    8  A    between atoms: C_13  and  C_14
REMARK    9  A    between atoms: C_17  and  O_18
REMARK   10  A    between atoms: O_18  and  C_19
REMARK                            x       y       z     vdW  Elec       q    Type
REMARK                         _______ _______ _______ _____ _____    ______ ____
ROOT
ATOM      1  C   UNL     1       2.924   7.018  18.585  0.00  0.00    +0.000 C 
ATOM      2  C   UNL     1       2.768   8.001  17.685  0.00  0.00    +0.000 C 
ATOM      3  C   UNL     1       1.842   9.163  17.857  0.00  0.00    +0.000 C 
ATOM      4  N   UNL     1       0.973   9.130  19.042  0.00  0.00    +0.000 NA
ATOM      5  C   UNL     1       1.629   8.466  20.187  0.00  0.00    +0.000 C 
ATOM      6  C   UNL     1       2.134   7.047  19.866  0.00  0.00    +0.000 C 
ENDROOT
BRANCH   1   9
ATOM      7  N   UNL     1       5.724   4.892  17.984  0.00  0.00    +0.000 N 
ATOM      8  C   UNL     1       5.015   6.019  17.683  0.00  0.00    +0.000 A 
ATOM      9  C   UNL     1       3.885   5.975  18.468  0.00  0.00    +0.000 A 
ATOM     10  C   UNL     1       3.970   4.736  19.136  0.00  0.00    +0.000 A 
ATOM     11  N   UNL     1       5.088   4.071  18.845  0.00  0.00    +0.000 NA
BRANCH   7  12
ATOM     12  C   UNL     1       7.099   4.631  17.610  0.00  0.00    +0.000 C 
BRANCH  12  13
ATOM     13  C   UNL     1       7.260   4.422  16.097  0.00  0.00    +0.000 C 
BRANCH  13  15
ATOM     14  C   UNL     1       5.938   4.063  13.962  0.00  0.00    +0.000 C 
ATOM     15  C   UNL     1       6.019   3.786  15.453  0.00  0.00    +0.000 C 
ENDBRANCH  13  15
BRANCH  13  16
ATOM     16  O   UNL     1       7.538   5.681  15.474  0.00  0.00    +0.000 OA
ATOM     17  H   UNL     1       6.855   5.840  14.798  0.00  0.00    +0.000 HD
ENDBRANCH  13  16
ENDBRANCH  12  13
ENDBRANCH   7  12
ENDBRANCH   1   9
BRANCH   4  18
ATOM     18  C   UNL     1       0.591  10.507  19.421  0.00  0.00    +0.000 C 
BRANCH  18  19
ATOM     19  C   UNL     1      -0.862  10.867  19.162  0.00  0.00    +0.000 A 
ATOM     20  C   UNL     1      -1.500  11.902  19.858  0.00  0.00    +0.000 A 
ATOM     21  C   UNL     1      -2.827  12.244  19.563  0.00  0.00    +0.000 A 
ATOM     22  C   UNL     1      -3.519  11.593  18.539  0.00  0.00    +0.000 A 
ATOM     23  C   UNL     1      -2.901  10.547  17.860  0.00  0.00    +0.000 A 
ATOM     24  C   UNL     1      -1.591  10.176  18.182  0.00  0.00    +0.000 A 
BRANCH  22  25
ATOM     25  O   UNL     1      -4.802  12.019  18.314  0.00  0.00    +0.000 OA
ATOM     26  C   UNL     1      -5.566  12.296  19.486  0.00  0.00    +0.000 C 
ENDBRANCH  22  25
ENDBRANCH  18  19
ENDBRANCH   4  18
TORSDOF 8
ENDMDL
MODEL 2
REMARK VINA RESULT:      -7.2      3.232      4.883
REMARK  Name = 
REMARK  10 active torsions:
REMARK  status: ('A' for Active; 'I' for Inactive)
REMARK    1  A    between atoms: C_1  and  C_2
REMARK    2  A    between atoms: C_2  and  C_3
REMARK    3  A    between atoms: C_3  and  O_4
REMARK    4  A    between atoms: C_3  and  C_5
REMARK    5  A    between atoms: C_5  and  N_6
REMARK    6  A    between atoms: C_8  and  C_9
REMARK    7  A    between atoms: N_12  and  C_13
REMARK    8  A    between atoms: C_13  and  C_14
REMARK    9  A    between atoms: C_17  and  O_18
REMARK   10  A    between atoms: O_18  and  C_19
REMARK                            x       y       z     vdW  Elec       q    Type
REMARK                         _______ _______ _______ _____ _____    ______ ____
ROOT
ATOM      1  C   UNL     1       5.001   4.624  17.159  0.00  0.00    +0.000 C 
ATOM      2  C   UNL     1       3.699   4.305  17.131  0.00  0.00    +0.000 C 
ATOM      3  C   UNL     1       2.766   4.462  18.290  0.00  0.00    +0.000 C 
ATOM      4  N   UNL     1       3.375   4.879  19.560  0.00  0.00    +0.000 NA
ATOM      5  C   UNL     1       4.531   5.775  19.349  0.00  0.00    +0.000 C 
ATOM      6  C   UNL     1       5.606   5.179  18.421  0.00  0.00    +0.000 C 
ENDROOT
BRANCH   1   9
ATOM      7  N   UNL     1       6.630   4.143  14.023  0.00  0.00    +0.000 N 
ATOM      8  C   UNL     1       5.686   3.760  14.930  0.00  0.00    +0.000 A 
ATOM      9  C   UNL     1       5.858   4.577  16.025  0.00  0.00    +0.000 A 
ATOM     10  C   UNL     1       6.990   5.354  15.706  0.00  0.00    +0.000 A 
ATOM     11  N   UNL     1       7.466   5.095  14.488  0.00  0.00    +0.000 NA
BRANCH   7  12
ATOM     12  C   UNL     1       6.671   3.756  12.628  0.00  0.00    +0.000 C 
BRANCH  12  13
ATOM     13  C   UNL     1       5.422   2.966  12.207  0.00  0.00    +0.000 C 
BRANCH  13  15
ATOM     14  C   UNL     1       3.383   2.934  10.700  0.00  0.00    +0.000 C 
ATOM     15  C   UNL     1       4.472   3.789  11.325  0.00  0.00    +0.000 C 
ENDBRANCH  13  15
BRANCH  13  16
ATOM     16  O   UNL     1       5.826   1.781  11.512  0.00  0.00    +0.000 OA
ATOM     17  H   UNL     1       5.772   1.959  10.557  0.00  0.00    +0.000 HD
ENDBRANCH  13  16
ENDBRANCH  12  13
ENDBRANCH   7  12
ENDBRANCH   1   9
BRANCH   4  18
ATOM     18  C   UNL     1       2.367   5.562  20.398  0.00  0.00    +0.000 C 
BRANCH  18  19
ATOM     19  C   UNL     1       2.000   6.967  19.950  0.00  0.00    +0.000 A 
ATOM     20  C   UNL     1       2.232   7.407  18.640  0.00  0.00    +0.000 A 
ATOM     21  C   UNL     1       1.839   8.692  18.242  0.00  0.00    +0.000 A 
ATOM     22  C   UNL     1       1.167   9.537  19.128  0.00  0.00    +0.000 A 
ATOM     23  C   UNL     1       0.955   9.117  20.438  0.00  0.00    +0.000 A 
ATOM     24  C   UNL     1       1.386   7.851  20.849  0.00  0.00    +0.000 A 
BRANCH  22  25
ATOM     25  O   UNL     1       0.804  10.762  18.633  0.00  0.00    +0.000 OA
ATOM     26  C   UNL     1       1.622  11.853  19.048  0.00  0.00    +0.000 C 
ENDBRANCH  22  25
ENDBRANCH  18  19
ENDBRANCH   4  18
TORSDOF 8
ENDMDL
MODEL 3
REMARK VINA RESULT:      -7.2      1.835      2.582
REMARK  Name = 
REMARK  10 active torsions:
REMARK  status: ('A' for Active; 'I' for Inactive)
REMARK    1  A    between atoms: C_1  and  C_2
REMARK    2  A    between atoms: C_2  and  C_3
REMARK    3  A    between atoms: C_3  and  O_4
REMARK    4  A    between atoms: C_3  and  C_5
REMARK    5  A    between atoms: C_5  and  N_6
REMARK    6  A    between atoms: C_8  and  C_9
REMARK    7  A    between atoms: N_12  and  C_13
REMARK    8  A    between atoms: C_13  and  C_14
REMARK    9  A    between atoms: C_17  and  O_18
REMARK   10  A    between atoms: O_18  and  C_19
REMARK                            x       y       z     vdW  Elec       q    Type
REMARK                         _______ _______ _______ _____ _____    ______ ____
ROOT
ATOM      1  C   UNL     1       2.458   7.729  18.626  0.00  0.00    +0.000 C 
ATOM      2  C   UNL     1       1.899   7.672  19.843  0.00  0.00    +0.000 C 
ATOM      3  C   UNL     1       1.034   8.745  20.426  0.00  0.00    +0.000 C 
ATOM      4  N   UNL     1       0.912   9.979  19.637  0.00  0.00    +0.000 NA
ATOM      5  C   UNL     1       0.969   9.712  18.185  0.00  0.00    +0.000 C 
ATOM      6  C   UNL     1       2.228   8.935  17.755  0.00  0.00    +0.000 C 
ENDROOT
BRANCH   1   9
ATOM      7  N   UNL     1       4.808   5.515  17.110  0.00  0.00    +0.000 N 
ATOM      8  C   UNL     1       4.392   6.787  17.379  0.00  0.00    +0.000 A 
ATOM      9  C   UNL     1       3.188   6.662  18.033  0.00  0.00    +0.000 A 
ATOM     10  C   UNL     1       2.929   5.276  18.026  0.00  0.00    +0.000 A 
ATOM     11  N   UNL     1       3.911   4.571  17.464  0.00  0.00    +0.000 NA
BRANCH   7  12
ATOM     12  C   UNL     1       6.134   5.132  16.673  0.00  0.00    +0.000 C 
BRANCH  12  13
ATOM     13  C   UNL     1       7.049   4.762  17.850  0.00  0.00    +0.000 C 
BRANCH  13  15
ATOM     14  C   UNL     1       7.690   7.204  17.607  0.00  0.00    +0.000 C 
ATOM     15  C   UNL     1       7.672   5.993  18.524  0.00  0.00    +0.000 C 
ENDBRANCH  13  15
BRANCH  13  16
ATOM     16  O   UNL     1       6.300   4.010  18.812  0.00  0.00    +0.000 OA
ATOM     17  H   UNL     1       6.190   4.562  19.606  0.00  0.00    +0.000 HD
ENDBRANCH  13  16
ENDBRANCH  12  13
ENDBRANCH   7  12
ENDBRANCH   1   9
BRANCH   4  18
ATOM     18  C   UNL     1      -0.360  10.658  19.965  0.00  0.00    +0.000 C 
BRANCH  18  19
ATOM     19  C   UNL     1      -1.379  10.698  18.838  0.00  0.00    +0.000 A 
ATOM     20  C   UNL     1      -1.460  11.783  17.955  0.00  0.00    +0.000 A 
ATOM     21  C   UNL     1      -2.377  11.770  16.896  0.00  0.00    +0.000 A 
ATOM     22  C   UNL     1      -3.191  10.657  16.673  0.00  0.00    +0.000 A 
ATOM     23  C   UNL     1      -3.135   9.586  17.560  0.00  0.00    +0.000 A 
ATOM     24  C   UNL     1      -2.250   9.616  18.643  0.00  0.00    +0.000 A 
BRANCH  22  25
ATOM     25  O   UNL     1      -4.036  10.735  15.596  0.00  0.00    +0.000 OA
ATOM     26  C   UNL     1      -3.542  10.155  14.391  0.00  0.00    +0.000 C 
ENDBRANCH  22  25
ENDBRANCH  18  19
ENDBRANCH   4  18
TORSDOF 8
ENDMDL
MODEL 4
REMARK VINA RESULT:      -7.1      2.741      4.856
REMARK  Name = 
REMARK  10 active torsions:
REMARK  status: ('A' for Active; 'I' for Inactive)
REMARK    1  A    between atoms: C_1  and  C_2
REMARK    2  A    between atoms: C_2  and  C_3
REMARK    3  A    between atoms: C_3  and  O_4
REMARK    4  A    between atoms: C_3  and  C_5
REMARK    5  A    between atoms: C_5  and  N_6
REMARK    6  A    between atoms: C_8  and  C_9
REMARK    7  A    between atoms: N_12  and  C_13
REMARK    8  A    between atoms: C_13  and  C_14
REMARK    9  A    between atoms: C_17  and  O_18
REMARK   10  A    between atoms: O_18  and  C_19
REMARK                            x       y       z     vdW  Elec       q    Type
REMARK                         _______ _______ _______ _____ _____    ______ ____
ROOT
ATOM      1  C   UNL     1       5.044   4.500  17.169  0.00  0.00    +0.000 C 
ATOM      2  C   UNL     1       3.772   4.074  17.178  0.00  0.00    +0.000 C 
ATOM      3  C   UNL     1       2.855   4.175  18.356  0.00  0.00    +0.000 C 
ATOM      4  N   UNL     1       3.457   4.664  19.605  0.00  0.00    +0.000 NA
ATOM      5  C   UNL     1       4.530   5.647  19.351  0.00  0.00    +0.000 C 
ATOM      6  C   UNL     1       5.629   5.125  18.407  0.00  0.00    +0.000 C 
ENDROOT
BRANCH   1   9
ATOM      7  N   UNL     1       6.624   4.117  13.995  0.00  0.00    +0.000 N 
ATOM      8  C   UNL     1       5.724   3.679  14.923  0.00  0.00    +0.000 A 
ATOM      9  C   UNL     1       5.876   4.503  16.015  0.00  0.00    +0.000 A 
ATOM     10  C   UNL     1       6.955   5.343  15.673  0.00  0.00    +0.000 A 
ATOM     11  N   UNL     1       7.417   5.113  14.444  0.00  0.00    +0.000 NA
BRANCH   7  12
ATOM     12  C   UNL     1       6.655   3.736  12.598  0.00  0.00    +0.000 C 
BRANCH  12  13
ATOM     13  C   UNL     1       5.403   2.948  12.184  0.00  0.00    +0.000 C 
BRANCH  13  15
ATOM     14  C   UNL     1       3.383   2.924  10.649  0.00  0.00    +0.000 C 
ATOM     15  C   UNL     1       4.436   3.782  11.330  0.00  0.00    +0.000 C 
ENDBRANCH  13  15
BRANCH  13  16
ATOM     16  O   UNL     1       5.800   1.776  11.462  0.00  0.00    +0.000 OA
ATOM     17  H   UNL     1       5.514   1.881  10.538  0.00  0.00    +0.000 HD
ENDBRANCH  13  16
ENDBRANCH  12  13
ENDBRANCH   7  12
ENDBRANCH   1   9
BRANCH   4  18
ATOM     18  C   UNL     1       2.415   5.276  20.455  0.00  0.00    +0.000 C 
BRANCH  18  19
ATOM     19  C   UNL     1       1.991   6.677  20.048  0.00  0.00    +0.000 A 
ATOM     20  C   UNL     1       1.399   7.563  20.959  0.00  0.00    +0.000 A 
ATOM     21  C   UNL     1       1.064   8.866  20.567  0.00  0.00    +0.000 A 
ATOM     22  C   UNL     1       1.357   9.319  19.279  0.00  0.00    +0.000 A 
ATOM     23  C   UNL     1       1.922   8.439  18.361  0.00  0.00    +0.000 A 
ATOM     24  C   UNL     1       2.217   7.124  18.738  0.00  0.00    +0.000 A 
BRANCH  22  25
ATOM     25  O   UNL     1       1.011  10.617  19.004  0.00  0.00    +0.000 OA
ATOM     26  C   UNL     1      -0.337  10.811  18.581  0.00  0.00    +0.000 C 
ENDBRANCH  22  25
ENDBRANCH  18  19
ENDBRANCH   4  18
TORSDOF 8
ENDMDL
MODEL 5
REMARK VINA RESULT:      -7.1      2.511      3.401
REMARK  Name = 
REMARK  10 active torsions:
REMARK  status: ('A' for Active; 'I' for Inactive)
REMARK    1  A    between atoms: C_1  and  C_2
REMARK    2  A    between atoms: C_2  and  C_3
REMARK    3  A    between atoms: C_3  and  O_4
REMARK    4  A    between atoms: C_3  and  C_5
REMARK    5  A    between atoms: C_5  and  N_6
REMARK    6  A    between atoms: C_8  and  C_9
REMARK    7  A    between atoms: N_12  and  C_13
REMARK    8  A    between atoms: C_13  and  C_14
REMARK    9  A    between atoms: C_17  and  O_18
REMARK   10  A    between atoms: O_18  and  C_19
REMARK                            x       y       z     vdW  Elec       q    Type
REMARK                         _______ _______ _______ _____ _____    ______ ____
ROOT
ATOM      1  C   UNL     1       2.436   7.645  19.023  0.00  0.00    +0.000 C 
ATOM      2  C   UNL     1       1.852   7.876  20.208  0.00  0.00    +0.000 C 
ATOM      3  C   UNL     1       0.983   9.057  20.505  0.00  0.00    +0.000 C 
ATOM      4  N   UNL     1       0.884  10.071  19.445  0.00  0.00    +0.000 NA
ATOM      5  C   UNL     1       0.968   9.470  18.098  0.00  0.00    +0.000 C 
ATOM      6  C   UNL     1       2.231   8.613  17.888  0.00  0.00    +0.000 C 
ENDROOT
BRANCH   1   9
ATOM      7  N   UNL     1       4.438   5.028  17.656  0.00  0.00    +0.000 N 
ATOM      8  C   UNL     1       3.684   6.151  17.475  0.00  0.00    +0.000 A 
ATOM      9  C   UNL     1       3.171   6.467  18.713  0.00  0.00    +0.000 A 
ATOM     10  C   UNL     1       3.607   5.419  19.550  0.00  0.00    +0.000 A 
ATOM     11  N   UNL     1       4.378   4.538  18.913  0.00  0.00    +0.000 NA
BRANCH   7  12
ATOM     12  C   UNL     1       5.380   4.477  16.704  0.00  0.00    +0.000 C 
BRANCH  12  13
ATOM     13  C   UNL     1       6.835   4.804  17.072  0.00  0.00    +0.000 C 
BRANCH  13  15
ATOM     14  C   UNL     1       7.786   6.700  18.464  0.00  0.00    +0.000 C 
ATOM     15  C   UNL     1       7.096   6.314  17.166  0.00  0.00    +0.000 C 
ENDBRANCH  13  15
BRANCH  13  16
ATOM     16  O   UNL     1       7.159   4.177  18.319  0.00  0.00    +0.000 OA
ATOM     17  H   UNL     1       8.083   3.873  18.272  0.00  0.00    +0.000 HD
ENDBRANCH  13  16
ENDBRANCH  12  13
ENDBRANCH   7  12
ENDBRANCH   1   9
BRANCH   4  18
ATOM     18  C   UNL     1      -0.390  10.810  19.578  0.00  0.00    +0.000 C 
BRANCH  18  19
ATOM     19  C   UNL     1      -0.469  11.749  20.769  0.00  0.00    +0.000 A 
ATOM     20  C   UNL     1       0.205  12.978  20.786  0.00  0.00    +0.000 A 
ATOM     21  C   UNL     1       0.074  13.845  21.878  0.00  0.00    +0.000 A 
ATOM     22  C   UNL     1      -0.767  13.524  22.946  0.00  0.00    +0.000 A 
ATOM     23  C   UNL     1      -1.420  12.294  22.950  0.00  0.00    +0.000 A 
ATOM     24  C   UNL     1      -1.256  11.408  21.880  0.00  0.00    +0.000 A 
BRANCH  22  25
ATOM     25  O   UNL     1      -0.844  14.451  23.953  0.00  0.00    +0.000 OA
ATOM     26  C   UNL     1      -2.157  14.921  24.249  0.00  0.00    +0.000 C 
ENDBRANCH  22  25
ENDBRANCH  18  19
ENDBRANCH   4  18
TORSDOF 8
ENDMDL
MODEL 6
REMARK VINA RESULT:      -7.1      2.723      3.566
REMARK  Name = 
REMARK  10 active torsions:
REMARK  status: ('A' for Active; 'I' for Inactive)
REMARK    1  A    between atoms: C_1  and  C_2
REMARK    2  A    between atoms: C_2  and  C_3
REMARK    3  A    between atoms: C_3  and  O_4
REMARK    4  A    between atoms: C_3  and  C_5
REMARK    5  A    between atoms: C_5  and  N_6
REMARK    6  A    between atoms: C_8  and  C_9
REMARK    7  A    between atoms: N_12  and  C_13
REMARK    8  A    between atoms: C_13  and  C_14
REMARK    9  A    between atoms: C_17  and  O_18
REMARK   10  A    between atoms: O_18  and  C_19
REMARK                            x       y       z     vdW  Elec       q    Type
REMARK                         _______ _______ _______ _____ _____    ______ ____
ROOT
ATOM      1  C   UNL     1       2.251   7.600  19.094  0.00  0.00    +0.000 C 
ATOM      2  C   UNL     1       2.105   8.645  18.265  0.00  0.00    +0.000 C 
ATOM      3  C   UNL     1       1.370   9.901  18.611  0.00  0.00    +0.000 C 
ATOM      4  N   UNL     1       0.670   9.907  19.903  0.00  0.00    +0.000 NA
ATOM      5  C   UNL     1       1.381   9.102  20.918  0.00  0.00    +0.000 C 
ATOM      6  C   UNL     1       1.649   7.652  20.473  0.00  0.00    +0.000 C 
ENDROOT
BRANCH   1   9
ATOM      7  N   UNL     1       3.966   4.476  18.951  0.00  0.00    +0.000 N 
ATOM      8  C   UNL     1       3.312   5.428  19.678  0.00  0.00    +0.000 A 
ATOM      9  C   UNL     1       3.043   6.455  18.802  0.00  0.00    +0.000 A 
ATOM     10  C   UNL     1       3.657   6.057  17.597  0.00  0.00    +0.000 A 
ATOM     11  N   UNL     1       4.222   4.852  17.681  0.00  0.00    +0.000 NA
BRANCH   7  12
ATOM     12  C   UNL     1       4.216   3.113  19.371  0.00  0.00    +0.000 C 
BRANCH  12  13
ATOM     13  C   UNL     1       3.116   2.149  18.901  0.00  0.00    +0.000 C 
BRANCH  13  15
ATOM     14  C   UNL     1       0.671   2.820  18.971  0.00  0.00    +0.000 C 
ATOM     15  C   UNL     1       1.841   2.247  19.752  0.00  0.00    +0.000 C 
ENDBRANCH  13  15
BRANCH  13  16
ATOM     16  O   UNL     1       2.806   2.420  17.529  0.00  0.00    +0.000 OA
ATOM     17  H   UNL     1       3.617   2.735  17.093  0.00  0.00    +0.000 HD
ENDBRANCH  13  16
ENDBRANCH  12  13
ENDBRANCH   7  12
ENDBRANCH   1   9
BRANCH   4  18
ATOM     18  C   UNL     1       0.525  11.296  20.387  0.00  0.00    +0.000 C 
BRANCH  18  19
ATOM     19  C   UNL     1      -0.780  11.596  21.105  0.00  0.00    +0.000 A 
ATOM     20  C   UNL     1      -0.941  11.348  22.475  0.00  0.00    +0.000 A 
ATOM     21  C   UNL     1      -2.140  11.680  23.121  0.00  0.00    +0.000 A 
ATOM     22  C   UNL     1      -3.174  12.307  22.423  0.00  0.00    +0.000 A 
ATOM     23  C   UNL     1      -3.032  12.534  21.057  0.00  0.00    +0.000 A 
ATOM     24  C   UNL     1      -1.853  12.163  20.401  0.00  0.00    +0.000 A 
BRANCH  22  25
ATOM     25  O   UNL     1      -4.294  12.612  23.152  0.00  0.00    +0.000 OA
ATOM     26  C   UNL     1      -4.093  12.728  24.558  0.00  0.00    +0.000 C 
ENDBRANCH  22  25
ENDBRANCH  18  19
ENDBRANCH   4  18
TORSDOF 8
ENDMDL
MODEL 7
REMARK VINA RESULT:      -7.1      2.069      2.706
REMARK  Name = 
REMARK  10 active torsions:
REMARK  status: ('A' for Active; 'I' for Inactive)
REMARK    1  A    between atoms: C_1  and  C_2
REMARK    2  A    between atoms: C_2  and  C_3
REMARK    3  A    between atoms: C_3  and  O_4
REMARK    4  A    between atoms: C_3  and  C_5
REMARK    5  A    between atoms: C_5  and  N_6
REMARK    6  A    between atoms: C_8  and  C_9
REMARK    7  A    between atoms: N_12  and  C_13
REMARK    8  A    between atoms: C_13  and  C_14
REMARK    9  A    between atoms: C_17  and  O_18
REMARK   10  A    between atoms: O_18  and  C_19
REMARK                            x       y       z     vdW  Elec       q    Type
REMARK                         _______ _______ _______ _____ _____    ______ ____
ROOT
ATOM      1  C   UNL     1       2.236   7.458  19.027  0.00  0.00    +0.000 C 
ATOM      2  C   UNL     1       2.089   8.561  18.277  0.00  0.00    +0.000 C 
ATOM      3  C   UNL     1       1.431   9.820  18.745  0.00  0.00    +0.000 C 
ATOM      4  N   UNL     1       0.807   9.768  20.075  0.00  0.00    +0.000 NA
ATOM      5  C   UNL     1       1.538   8.870  20.992  0.00  0.00    +0.000 C 
ATOM      6  C   UNL     1       1.716   7.443  20.440  0.00  0.00    +0.000 C 
ENDROOT
BRANCH   1   9
ATOM      7  N   UNL     1       4.349   5.000  17.540  0.00  0.00    +0.000 N 
ATOM      8  C   UNL     1       3.711   6.204  17.467  0.00  0.00    +0.000 A 
ATOM      9  C   UNL     1       2.959   6.304  18.615  0.00  0.00    +0.000 A 
ATOM     10  C   UNL     1       3.148   5.068  19.267  0.00  0.00    +0.000 A 
ATOM     11  N   UNL     1       3.993   4.268  18.617  0.00  0.00    +0.000 NA
BRANCH   7  12
ATOM     12  C   UNL     1       5.446   4.569  16.698  0.00  0.00    +0.000 C 
BRANCH  12  13
ATOM     13  C   UNL     1       6.685   5.463  16.857  0.00  0.00    +0.000 C 
BRANCH  13  15
ATOM     14  C   UNL     1       7.870   6.036  19.026  0.00  0.00    +0.000 C 
ATOM     15  C   UNL     1       7.627   4.974  17.967  0.00  0.00    +0.000 C 
ENDBRANCH  13  15
BRANCH  13  16
ATOM     16  O   UNL     1       7.391   5.517  15.612  0.00  0.00    +0.000 OA
ATOM     17  H   UNL     1       7.450   4.612  15.259  0.00  0.00    +0.000 HD
ENDBRANCH  13  16
ENDBRANCH  12  13
ENDBRANCH   7  12
ENDBRANCH   1   9
BRANCH   4  18
ATOM     18  C   UNL     1       0.751  11.127  20.654  0.00  0.00    +0.000 C 
BRANCH  18  19
ATOM     19  C   UNL     1      -0.580  11.506  21.283  0.00  0.00    +0.000 A 
ATOM     20  C   UNL     1      -0.853  11.257  22.635  0.00  0.00    +0.000 A 
ATOM     21  C   UNL     1      -2.070  11.661  23.199  0.00  0.00    +0.000 A 
ATOM     22  C   UNL     1      -3.010  12.361  22.439  0.00  0.00    +0.000 A 
ATOM     23  C   UNL     1      -2.757  12.589  21.089  0.00  0.00    +0.000 A 
ATOM     24  C   UNL     1      -1.561  12.148  20.513  0.00  0.00    +0.000 A 
BRANCH  22  25
ATOM     25  O   UNL     1      -4.157  12.732  23.092  0.00  0.00    +0.000 OA
ATOM     26  C   UNL     1      -4.153  12.515  24.500  0.00  0.00    +0.000 C 
ENDBRANCH  22  25
ENDBRANCH  18  19
ENDBRANCH   4  18
TORSDOF 8
ENDMDL
MODEL 8
REMARK VINA RESULT:      -7.1      3.026      4.144
REMARK  Name = 
REMARK  10 active torsions:
REMARK  status: ('A' for Active; 'I' for Inactive)
REMARK    1  A    between atoms: C_1  and  C_2
REMARK    2  A    between atoms: C_2  and  C_3
REMARK    3  A    between atoms: C_3  and  O_4
REMARK    4  A    between atoms: C_3  and  C_5
REMARK    5  A    between atoms: C_5  and  N_6
REMARK    6  A    between atoms: C_8  and  C_9
REMARK    7  A    between atoms: N_12  and  C_13
REMARK    8  A    between atoms: C_13  and  C_14
REMARK    9  A    between atoms: C_17  and  O_18
REMARK   10  A    between atoms: O_18  and  C_19
REMARK                            x       y       z     vdW  Elec       q    Type
REMARK                         _______ _______ _______ _____ _____    ______ ____
ROOT
ATOM      1  C   UNL     1       2.478   7.596  18.972  0.00  0.00    +0.000 C 
ATOM      2  C   UNL     1       1.880   7.718  20.167  0.00  0.00    +0.000 C 
ATOM      3  C   UNL     1       0.998   8.862  20.557  0.00  0.00    +0.000 C 
ATOM      4  N   UNL     1       0.902   9.965  19.591  0.00  0.00    +0.000 NA
ATOM      5  C   UNL     1       1.005   9.486  18.197  0.00  0.00    +0.000 C 
ATOM      6  C   UNL     1       2.276   8.659  17.925  0.00  0.00    +0.000 C 
ENDROOT
BRANCH   1   9
ATOM      7  N   UNL     1       3.995   4.409  18.461  0.00  0.00    +0.000 N 
ATOM      8  C   UNL     1       3.322   5.276  19.271  0.00  0.00    +0.000 A 
ATOM      9  C   UNL     1       3.224   6.455  18.567  0.00  0.00    +0.000 A 
ATOM     10  C   UNL     1       3.950   6.216  17.382  0.00  0.00    +0.000 A 
ATOM     11  N   UNL     1       4.423   4.971  17.311  0.00  0.00    +0.000 NA
BRANCH   7  12
ATOM     12  C   UNL     1       4.107   2.979  18.658  0.00  0.00    +0.000 C 
BRANCH  12  13
ATOM     13  C   UNL     1       2.911   2.216  18.068  0.00  0.00    +0.000 C 
BRANCH  13  15
ATOM     14  C   UNL     1       0.697   2.870  19.120  0.00  0.00    +0.000 C 
ATOM     15  C   UNL     1       1.848   1.878  19.124  0.00  0.00    +0.000 C 
ENDBRANCH  13  15
BRANCH  13  16
ATOM     16  O   UNL     1       2.323   2.997  17.021  0.00  0.00    +0.000 OA
ATOM     17  H   UNL     1       2.347   3.931  17.293  0.00  0.00    +0.000 HD
ENDBRANCH  13  16
ENDBRANCH  12  13
ENDBRANCH   7  12
ENDBRANCH   1   9
BRANCH   4  18
ATOM     18  C   UNL     1      -0.378  10.680  19.775  0.00  0.00    +0.000 C 
BRANCH  18  19
ATOM     19  C   UNL     1      -0.358  11.779  20.824  0.00  0.00    +0.000 A 
ATOM     20  C   UNL     1       0.436  12.925  20.676  0.00  0.00    +0.000 A 
ATOM     21  C   UNL     1       0.397  13.944  21.637  0.00  0.00    +0.000 A 
ATOM     22  C   UNL     1      -0.468  13.859  22.730  0.00  0.00    +0.000 A 
ATOM     23  C   UNL     1      -1.240  12.714  22.898  0.00  0.00    +0.000 A 
ATOM     24  C   UNL     1      -1.171  11.676  21.962  0.00  0.00    +0.000 A 
BRANCH  22  25
ATOM     25  O   UNL     1      -0.447  14.920  23.598  0.00  0.00    +0.000 OA
ATOM     26  C   UNL     1      -1.467  14.912  24.595  0.00  0.00    +0.000 C 
ENDBRANCH  22  25
ENDBRANCH  18  19
ENDBRANCH   4  18
TORSDOF 8
ENDMDL
MODEL 9
REMARK VINA RESULT:      -7.0      1.615      2.497
REMARK  Name = 
REMARK  10 active torsions:
REMARK  status: ('A' for Active; 'I' for Inactive)
REMARK    1  A    between atoms: C_1  and  C_2
REMARK    2  A    between atoms: C_2  and  C_3
REMARK    3  A    between atoms: C_3  and  O_4
REMARK    4  A    between atoms: C_3  and  C_5
REMARK    5  A    between atoms: C_5  and  N_6
REMARK    6  A    between atoms: C_8  and  C_9
REMARK    7  A    between atoms: N_12  and  C_13
REMARK    8  A    between atoms: C_13  and  C_14
REMARK    9  A    between atoms: C_17  and  O_18
REMARK   10  A    between atoms: O_18  and  C_19
REMARK                            x       y       z     vdW  Elec       q    Type
REMARK                         _______ _______ _______ _____ _____    ______ ____
ROOT
ATOM      1  C   UNL     1       2.602   7.217  18.754  0.00  0.00    +0.000 C 
ATOM      2  C   UNL     1       2.035   7.191  19.970  0.00  0.00    +0.000 C 
ATOM      3  C   UNL     1       1.292   8.337  20.580  0.00  0.00    +0.000 C 
ATOM      4  N   UNL     1       1.309   9.597  19.822  0.00  0.00    +0.000 NA
ATOM      5  C   UNL     1       1.342   9.363  18.364  0.00  0.00    +0.000 C 
ATOM      6  C   UNL     1       2.509   8.463  17.915  0.00  0.00    +0.000 C 
ENDROOT
BRANCH   1   9
ATOM      7  N   UNL     1       4.607   4.854  16.989  0.00  0.00    +0.000 N 
ATOM      8  C   UNL     1       4.216   6.145  17.196  0.00  0.00    +0.000 A 
ATOM      9  C   UNL     1       3.211   6.091  18.135  0.00  0.00    +0.000 A 
ATOM     10  C   UNL     1       3.015   4.712  18.358  0.00  0.00    +0.000 A 
ATOM     11  N   UNL     1       3.861   3.953  17.663  0.00  0.00    +0.000 NA
BRANCH   7  12
ATOM     12  C   UNL     1       5.804   4.432  16.292  0.00  0.00    +0.000 C 
BRANCH  12  13
ATOM     13  C   UNL     1       7.071   4.641  17.134  0.00  0.00    +0.000 C 
BRANCH  13  15
ATOM     14  C   UNL     1       7.863   6.495  18.674  0.00  0.00    +0.000 C 
ATOM     15  C   UNL     1       7.462   6.121  17.257  0.00  0.00    +0.000 C 
ENDBRANCH  13  15
BRANCH  13  16
ATOM     16  O   UNL     1       6.868   4.084  18.438  0.00  0.00    +0.000 OA
ATOM     17  H   UNL     1       7.623   4.341  18.996  0.00  0.00    +0.000 HD
ENDBRANCH  13  16
ENDBRANCH  12  13
ENDBRANCH   7  12
ENDBRANCH   1   9
BRANCH   4  18
ATOM     18  C   UNL     1       0.120  10.404  20.167  0.00  0.00    +0.000 C 
BRANCH  18  19
ATOM     19  C   UNL     1      -0.885  10.585  19.042  0.00  0.00    +0.000 A 
ATOM     20  C   UNL     1      -1.784   9.571  18.686  0.00  0.00    +0.000 A 
ATOM     21  C   UNL     1      -2.731   9.784  17.675  0.00  0.00    +0.000 A 
ATOM     22  C   UNL     1      -2.829  11.025  17.041  0.00  0.00    +0.000 A 
ATOM     23  C   UNL     1      -1.923  12.029  17.371  0.00  0.00    +0.000 A 
ATOM     24  C   UNL     1      -0.948  11.803  18.349  0.00  0.00    +0.000 A 
BRANCH  22  25
ATOM     25  O   UNL     1      -3.805  11.138  16.085  0.00  0.00    +0.000 OA
ATOM     26  C   UNL     1      -3.519  10.498  14.844  0.00  0.00    +0.000 C 
ENDBRANCH  22  25
ENDBRANCH  18  19
ENDBRANCH   4  18
TORSDOF 8
ENDMDL
