MODEL 1
REMARK VINA RESULT:      -6.6      0.000      0.000
REMARK  Name = 
REMARK  4 active torsions:
REMARK  status: ('A' for Active; 'I' for Inactive)
REMARK    1  A    between atoms: C_2  and  C_3
REMARK    2  A    between atoms: C_5  and  O_6
REMARK    3  A    between atoms: O_6  and  C_7
REMARK    4  A    between atoms: N_18  and  C_19
REMARK                            x       y       z     vdW  Elec       q    Type
REMARK                         _______ _______ _______ _____ _____    ______ ____
ROOT
ATOM      1  O   UNL     1       1.152   9.015  20.580  0.00  0.00    +0.000 OA
ATOM      2  C   UNL     1       1.472   8.838  19.404  0.00  0.00    +0.000 C 
ATOM      3  N   UNL     1       2.286   7.754  19.019  0.00  0.00    +0.000 N 
ATOM      4  C   UNL     1       2.676   7.552  17.627  0.00  0.00    +0.000 C 
ATOM      5  C   UNL     1       4.079   7.040  17.333  0.00  0.00    +0.000 C 
ATOM      6  C   UNL     1       4.728   5.989  18.222  0.00  0.00    +0.000 C 
ATOM      7  N   UNL     1       3.904   5.003  18.905  0.00  0.00    +0.000 NA
ATOM      8  C   UNL     1       3.214   5.582  20.057  0.00  0.00    +0.000 C 
ATOM      9  C   UNL     1       2.051   6.550  19.828  0.00  0.00    +0.000 C 
ENDROOT
BRANCH   2  10
ATOM     10  C   UNL     1       0.953   9.793  18.295  0.00  0.00    +0.000 C 
ATOM     11  C   UNL     1      -0.454  10.277  18.593  0.00  0.00    +0.000 C 
ATOM     12  C   UNL     1      -0.246  11.449  19.539  0.00  0.00    +0.000 C 
ATOM     13  C   UNL     1       1.109  12.018  19.095  0.00  0.00    +0.000 C 
ATOM     14  N   UNL     1       1.756  11.028  18.216  0.00  0.00    +0.000 NA
ATOM     15  H   UNL     1       2.714  10.859  18.523  0.00  0.00    +0.000 HD
BRANCH  12  16
ATOM     16  O   UNL     1      -1.276  12.419  19.390  0.00  0.00    +0.000 OA
BRANCH  16  17
ATOM     17  C   UNL     1      -2.155  12.499  20.424  0.00  0.00    +0.000 A 
ATOM     18  C   UNL     1      -1.925  12.385  21.828  0.00  0.00    +0.000 A 
ATOM     19  C   UNL     1      -3.085  12.543  22.554  0.00  0.00    +0.000 A 
ATOM     20  S   UNL     1      -4.444  12.814  21.552  0.00  0.00    +0.000 S 
ATOM     21  C   UNL     1      -3.482  12.727  20.140  0.00  0.00    +0.000 A 
ENDBRANCH  16  17
ENDBRANCH  12  16
ENDBRANCH   2  10
BRANCH   7  22
ATOM     22  C   UNL     1       3.058   4.207  18.013  0.00  0.00    +0.000 C 
ATOM     23  C   UNL     1       3.887   3.021  17.449  0.00  0.00    +0.000 C 
ATOM     24  C   UNL     1       2.678   2.115  17.747  0.00  0.00    +0.000 C 
ATOM     25  C   UNL     1       2.263   3.143  18.819  0.00  0.00    +0.000 C 
ENDBRANCH   7  22
TORSDOF 4
ENDMDL
MODEL 2
REMARK VINA RESULT:      -6.5      1.128      1.311
REMARK  Name = 
REMARK  4 active torsions:
REMARK  status: ('A' for Active; 'I' for Inactive)
REMARK    1  A    between atoms: C_2  and  C_3
REMARK    2  A    between atoms: C_5  and  O_6
REMARK    3  A    between atoms: O_6  and  C_7
REMARK    4  A    between atoms: N_18  and  C_19
REMARK                            x       y       z     vdW  Elec       q    Type
REMARK                         _______ _______ _______ _____ _____    ______ ____
ROOT
ATOM      1  O   UNL     1       1.103   9.276  20.567  0.00  0.00    +0.000 OA
ATOM      2  C   UNL     1       1.493   8.864  19.474  0.00  0.00    +0.000 C 
ATOM      3  N   UNL     1       2.127   7.612  19.343  0.00  0.00    +0.000 N 
ATOM      4  C   UNL     1       2.601   7.130  18.050  0.00  0.00    +0.000 C 
ATOM      5  C   UNL     1       3.907   6.350  18.000  0.00  0.00    +0.000 C 
ATOM      6  C   UNL     1       4.264   5.358  19.097  0.00  0.00    +0.000 C 
ATOM      7  N   UNL     1       3.213   4.645  19.806  0.00  0.00    +0.000 NA
ATOM      8  C   UNL     1       2.536   5.505  20.776  0.00  0.00    +0.000 C 
ATOM      9  C   UNL     1       1.599   6.607  20.277  0.00  0.00    +0.000 C 
ENDROOT
BRANCH   2  10
ATOM     10  C   UNL     1       1.266   9.706  18.190  0.00  0.00    +0.000 C 
ATOM     11  C   UNL     1      -0.206   9.783  17.830  0.00  0.00    +0.000 C 
ATOM     12  C   UNL     1      -0.737  10.915  18.695  0.00  0.00    +0.000 C 
ATOM     13  C   UNL     1       0.475  11.847  18.832  0.00  0.00    +0.000 C 
ATOM     14  N   UNL     1       1.671  11.113  18.378  0.00  0.00    +0.000 NA
ATOM     15  H   UNL     1       2.413  11.188  19.073  0.00  0.00    +0.000 HD
BRANCH  12  16
ATOM     16  O   UNL     1      -1.821  11.583  18.058  0.00  0.00    +0.000 OA
BRANCH  16  17
ATOM     17  C   UNL     1      -2.834  11.962  18.881  0.00  0.00    +0.000 A 
ATOM     18  C   UNL     1      -2.787  12.625  20.144  0.00  0.00    +0.000 A 
ATOM     19  C   UNL     1      -4.045  12.848  20.657  0.00  0.00    +0.000 A 
ATOM     20  S   UNL     1      -5.276  12.251  19.631  0.00  0.00    +0.000 S 
ATOM     21  C   UNL     1      -4.128  11.697  18.492  0.00  0.00    +0.000 A 
ENDBRANCH  16  17
ENDBRANCH  12  16
ENDBRANCH   2  10
BRANCH   7  22
ATOM     22  C   UNL     1       2.321   3.872  18.938  0.00  0.00    +0.000 C 
ATOM     23  C   UNL     1       2.896   2.440  18.763  0.00  0.00    +0.000 C 
ATOM     24  C   UNL     1       1.471   1.907  18.999  0.00  0.00    +0.000 C 
ATOM     25  C   UNL     1       1.185   3.212  19.767  0.00  0.00    +0.000 C 
ENDBRANCH   7  22
TORSDOF 4
ENDMDL
MODEL 3
REMARK VINA RESULT:      -6.4      1.725      2.254
REMARK  Name = 
REMARK  4 active torsions:
REMARK  status: ('A' for Active; 'I' for Inactive)
REMARK    1  A    between atoms: C_2  and  C_3
REMARK    2  A    between atoms: C_5  and  O_6
REMARK    3  A    between atoms: O_6  and  C_7
REMARK    4  A    between atoms: N_18  and  C_19
REMARK                            x       y       z     vdW  Elec       q    Type
REMARK                         _______ _______ _______ _____ _____    ______ ____
ROOT
ATOM      1  O   UNL     1       1.085   9.312  20.508  0.00  0.00    +0.000 OA
ATOM      2  C   UNL     1       1.504   8.852  19.446  0.00  0.00    +0.000 C 
ATOM      3  N   UNL     1       2.111   7.581  19.383  0.00  0.00    +0.000 N 
ATOM      4  C   UNL     1       2.620   7.042  18.126  0.00  0.00    +0.000 C 
ATOM      5  C   UNL     1       3.908   6.231  18.153  0.00  0.00    +0.000 C 
ATOM      6  C   UNL     1       4.203   5.273  19.297  0.00  0.00    +0.000 C 
ATOM      7  N   UNL     1       3.110   4.610  19.993  0.00  0.00    +0.000 NA
ATOM      8  C   UNL     1       2.420   5.521  20.906  0.00  0.00    +0.000 C 
ATOM      9  C   UNL     1       1.527   6.624  20.333  0.00  0.00    +0.000 C 
ENDROOT
BRANCH   2  10
ATOM     10  C   UNL     1       1.342   9.650  18.124  0.00  0.00    +0.000 C 
ATOM     11  C   UNL     1      -0.090  10.112  17.926  0.00  0.00    +0.000 C 
ATOM     12  C   UNL     1      -0.178  11.393  18.740  0.00  0.00    +0.000 C 
ATOM     13  C   UNL     1       1.247  11.958  18.655  0.00  0.00    +0.000 C 
ATOM     14  N   UNL     1       2.130  10.897  18.138  0.00  0.00    +0.000 NA
ATOM     15  H   UNL     1       2.951  10.802  18.735  0.00  0.00    +0.000 HD
BRANCH  12  16
ATOM     16  O   UNL     1      -1.117  12.299  18.171  0.00  0.00    +0.000 OA
BRANCH  16  17
ATOM     17  C   UNL     1      -2.283  11.742  17.750  0.00  0.00    +0.000 A 
ATOM     18  C   UNL     1      -2.627  11.198  16.477  0.00  0.00    +0.000 A 
ATOM     19  C   UNL     1      -3.915  10.709  16.456  0.00  0.00    +0.000 A 
ATOM     20  S   UNL     1      -4.708  10.915  17.957  0.00  0.00    +0.000 S 
ATOM     21  C   UNL     1      -3.327  11.654  18.642  0.00  0.00    +0.000 A 
ENDBRANCH  16  17
ENDBRANCH  12  16
ENDBRANCH   2  10
BRANCH   7  22
ATOM     22  C   UNL     1       2.232   3.826  19.121  0.00  0.00    +0.000 C 
ATOM     23  C   UNL     1       2.895   2.451  18.835  0.00  0.00    +0.000 C 
ATOM     24  C   UNL     1       1.524   1.804  19.102  0.00  0.00    +0.000 C 
ATOM     25  C   UNL     1       1.187   3.040  19.960  0.00  0.00    +0.000 C 
ENDBRANCH   7  22
TORSDOF 4
ENDMDL
MODEL 4
REMARK VINA RESULT:      -6.2      0.983      1.282
REMARK  Name = 
REMARK  4 active torsions:
REMARK  status: ('A' for Active; 'I' for Inactive)
REMARK    1  A    between atoms: C_2  and  C_3
REMARK    2  A    between atoms: C_5  and  O_6
REMARK    3  A    between atoms: O_6  and  C_7
REMARK    4  A    between atoms: N_18  and  C_19
REMARK                            x       y       z     vdW  Elec       q    Type
REMARK                         _______ _______ _______ _____ _____    ______ ____
ROOT
ATOM      1  O   UNL     1       1.048   9.485  21.185  0.00  0.00    +0.000 OA
ATOM      2  C   UNL     1       1.254   9.185  20.008  0.00  0.00    +0.000 C 
ATOM      3  N   UNL     1       1.825   7.946  19.653  0.00  0.00    +0.000 N 
ATOM      4  C   UNL     1       2.082   7.598  18.260  0.00  0.00    +0.000 C 
ATOM      5  C   UNL     1       3.343   6.812  17.928  0.00  0.00    +0.000 C 
ATOM      6  C   UNL     1       3.838   5.708  18.850  0.00  0.00    +0.000 C 
ATOM      7  N   UNL     1       2.890   4.936  19.638  0.00  0.00    +0.000 NA
ATOM      8  C   UNL     1       2.394   5.698  20.784  0.00  0.00    +0.000 C 
ATOM      9  C   UNL     1       1.421   6.856  20.551  0.00  0.00    +0.000 C 
ENDROOT
BRANCH   2  10
ATOM     10  C   UNL     1       0.854  10.159  18.867  0.00  0.00    +0.000 C 
ATOM     11  C   UNL     1      -0.529  10.743  19.094  0.00  0.00    +0.000 C 
ATOM     12  C   UNL     1      -0.284  11.910  20.036  0.00  0.00    +0.000 C 
ATOM     13  C   UNL     1       1.126  12.379  19.651  0.00  0.00    +0.000 C 
ATOM     14  N   UNL     1       1.743  11.335  18.813  0.00  0.00    +0.000 NA
ATOM     15  H   UNL     1       2.672  11.105  19.166  0.00  0.00    +0.000 HD
BRANCH  12  16
ATOM     16  O   UNL     1      -1.237  12.946  19.830  0.00  0.00    +0.000 OA
BRANCH  16  17
ATOM     17  C   UNL     1      -2.353  12.872  20.601  0.00  0.00    +0.000 A 
ATOM     18  C   UNL     1      -3.720  12.728  20.217  0.00  0.00    +0.000 A 
ATOM     19  C   UNL     1      -4.559  12.675  21.309  0.00  0.00    +0.000 A 
ATOM     20  S   UNL     1      -3.708  12.813  22.785  0.00  0.00    +0.000 S 
ATOM     21  C   UNL     1      -2.211  12.937  21.968  0.00  0.00    +0.000 A 
ENDBRANCH  16  17
ENDBRANCH  12  16
ENDBRANCH   2  10
BRANCH   7  22
ATOM     22  C   UNL     1       1.855   4.267  18.846  0.00  0.00    +0.000 C 
ATOM     23  C   UNL     1       2.420   2.932  18.293  0.00  0.00    +0.000 C 
ATOM     24  C   UNL     1       1.097   2.268  18.716  0.00  0.00    +0.000 C 
ATOM     25  C   UNL     1       0.946   3.396  19.756  0.00  0.00    +0.000 C 
ENDBRANCH   7  22
TORSDOF 4
ENDMDL
MODEL 5
REMARK VINA RESULT:      -6.2      2.029      2.162
REMARK  Name = 
REMARK  4 active torsions:
REMARK  status: ('A' for Active; 'I' for Inactive)
REMARK    1  A    between atoms: C_2  and  C_3
REMARK    2  A    between atoms: C_5  and  O_6
REMARK    3  A    between atoms: O_6  and  C_7
REMARK    4  A    between atoms: N_18  and  C_19
REMARK                            x       y       z     vdW  Elec       q    Type
REMARK                         _______ _______ _______ _____ _____    ______ ____
ROOT
ATOM      1  O   UNL     1       1.221   9.050  20.499  0.00  0.00    +0.000 OA
ATOM      2  C   UNL     1       1.537   8.818  19.332  0.00  0.00    +0.000 C 
ATOM      3  N   UNL     1       2.333   7.705  18.992  0.00  0.00    +0.000 N 
ATOM      4  C   UNL     1       2.719   7.439  17.610  0.00  0.00    +0.000 C 
ATOM      5  C   UNL     1       4.113   6.891  17.338  0.00  0.00    +0.000 C 
ATOM      6  C   UNL     1       4.744   5.868  18.270  0.00  0.00    +0.000 C 
ATOM      7  N   UNL     1       3.905   4.926  18.994  0.00  0.00    +0.000 NA
ATOM      8  C   UNL     1       3.225   5.564  20.121  0.00  0.00    +0.000 C 
ATOM      9  C   UNL     1       2.078   6.541  19.851  0.00  0.00    +0.000 C 
ENDROOT
BRANCH   2  10
ATOM     10  C   UNL     1       1.033   9.734  18.183  0.00  0.00    +0.000 C 
ATOM     11  C   UNL     1      -0.042  10.690  18.667  0.00  0.00    +0.000 C 
ATOM     12  C   UNL     1       0.739  11.842  19.277  0.00  0.00    +0.000 C 
ATOM     13  C   UNL     1       2.028  11.870  18.443  0.00  0.00    +0.000 C 
ATOM     14  N   UNL     1       2.104  10.614  17.675  0.00  0.00    +0.000 NA
ATOM     15  H   UNL     1       3.019  10.182  17.798  0.00  0.00    +0.000 HD
BRANCH  12  16
ATOM     16  O   UNL     1       0.028  13.069  19.150  0.00  0.00    +0.000 OA
BRANCH  16  17
ATOM     17  C   UNL     1       0.367  14.033  20.046  0.00  0.00    +0.000 A 
ATOM     18  C   UNL     1       0.683  13.921  21.433  0.00  0.00    +0.000 A 
ATOM     19  C   UNL     1       0.994  15.141  21.992  0.00  0.00    +0.000 A 
ATOM     20  S   UNL     1       0.893  16.416  20.857  0.00  0.00    +0.000 S 
ATOM     21  C   UNL     1       0.439  15.337  19.610  0.00  0.00    +0.000 A 
ENDBRANCH  16  17
ENDBRANCH  12  16
ENDBRANCH   2  10
BRANCH   7  22
ATOM     22  C   UNL     1       3.044   4.107  18.137  0.00  0.00    +0.000 C 
ATOM     23  C   UNL     1       3.909   3.030  17.428  0.00  0.00    +0.000 C 
ATOM     24  C   UNL     1       2.813   2.007  17.780  0.00  0.00    +0.000 C 
ATOM     25  C   UNL     1       2.420   2.937  18.945  0.00  0.00    +0.000 C 
ENDBRANCH   7  22
TORSDOF 4
ENDMDL
MODEL 6
REMARK VINA RESULT:      -6.2      1.177      1.330
REMARK  Name = 
REMARK  4 active torsions:
REMARK  status: ('A' for Active; 'I' for Inactive)
REMARK    1  A    between atoms: C_2  and  C_3
REMARK    2  A    between atoms: C_5  and  O_6
REMARK    3  A    between atoms: O_6  and  C_7
REMARK    4  A    between atoms: N_18  and  C_19
REMARK                            x       y       z     vdW  Elec       q    Type
REMARK                         _______ _______ _______ _____ _____    ______ ____
ROOT
ATOM      1  O   UNL     1       1.121   9.261  20.615  0.00  0.00    +0.000 OA
ATOM      2  C   UNL     1       1.455   8.843  19.506  0.00  0.00    +0.000 C 
ATOM      3  N   UNL     1       2.096   7.597  19.352  0.00  0.00    +0.000 N 
ATOM      4  C   UNL     1       2.504   7.108  18.039  0.00  0.00    +0.000 C 
ATOM      5  C   UNL     1       3.815   6.343  17.924  0.00  0.00    +0.000 C 
ATOM      6  C   UNL     1       4.245   5.367  19.009  0.00  0.00    +0.000 C 
ATOM      7  N   UNL     1       3.243   4.648  19.782  0.00  0.00    +0.000 NA
ATOM      8  C   UNL     1       2.610   5.511  20.780  0.00  0.00    +0.000 C 
ATOM      9  C   UNL     1       1.633   6.596  20.323  0.00  0.00    +0.000 C 
ENDROOT
BRANCH   2  10
ATOM     10  C   UNL     1       1.146   9.669  18.228  0.00  0.00    +0.000 C 
ATOM     11  C   UNL     1      -0.202  10.358  18.324  0.00  0.00    +0.000 C 
ATOM     12  C   UNL     1       0.090  11.629  19.104  0.00  0.00    +0.000 C 
ATOM     13  C   UNL     1       1.536  11.957  18.707  0.00  0.00    +0.000 C 
ATOM     14  N   UNL     1       2.109  10.772  18.043  0.00  0.00    +0.000 NA
ATOM     15  H   UNL     1       3.011  10.540  18.456  0.00  0.00    +0.000 HD
BRANCH  12  16
ATOM     16  O   UNL     1      -0.791  12.681  18.724  0.00  0.00    +0.000 OA
BRANCH  16  17
ATOM     17  C   UNL     1      -1.483  13.257  19.742  0.00  0.00    +0.000 A 
ATOM     18  C   UNL     1      -2.651  12.802  20.425  0.00  0.00    +0.000 A 
ATOM     19  C   UNL     1      -3.038  13.673  21.419  0.00  0.00    +0.000 A 
ATOM     20  S   UNL     1      -2.011  15.037  21.520  0.00  0.00    +0.000 S 
ATOM     21  C   UNL     1      -1.038  14.462  20.237  0.00  0.00    +0.000 A 
ENDBRANCH  16  17
ENDBRANCH  12  16
ENDBRANCH   2  10
BRANCH   7  22
ATOM     22  C   UNL     1       2.315   3.856  18.972  0.00  0.00    +0.000 C 
ATOM     23  C   UNL     1       2.984   2.504  18.607  0.00  0.00    +0.000 C 
ATOM     24  C   UNL     1       1.656   1.817  18.975  0.00  0.00    +0.000 C 
ATOM     25  C   UNL     1       1.363   3.031  19.880  0.00  0.00    +0.000 C 
ENDBRANCH   7  22
TORSDOF 4
ENDMDL
MODEL 7
REMARK VINA RESULT:      -6.1      1.228      1.337
REMARK  Name = 
REMARK  4 active torsions:
REMARK  status: ('A' for Active; 'I' for Inactive)
REMARK    1  A    between atoms: C_2  and  C_3
REMARK    2  A    between atoms: C_5  and  O_6
REMARK    3  A    between atoms: O_6  and  C_7
REMARK    4  A    between atoms: N_18  and  C_19
REMARK                            x       y       z     vdW  Elec       q    Type
REMARK                         _______ _______ _______ _____ _____    ______ ____
ROOT
ATOM      1  O   UNL     1       1.169   9.380  21.563  0.00  0.00    +0.000 OA
ATOM      2  C   UNL     1       1.306   9.151  20.361  0.00  0.00    +0.000 C 
ATOM      3  N   UNL     1       1.833   7.927  19.901  0.00  0.00    +0.000 N 
ATOM      4  C   UNL     1       2.008   7.661  18.476  0.00  0.00    +0.000 C 
ATOM      5  C   UNL     1       3.233   6.877  18.029  0.00  0.00    +0.000 C 
ATOM      6  C   UNL     1       3.756   5.710  18.853  0.00  0.00    +0.000 C 
ATOM      7  N   UNL     1       2.836   4.906  19.643  0.00  0.00    +0.000 NA
ATOM      8  C   UNL     1       2.417   5.603  20.859  0.00  0.00    +0.000 C 
ATOM      9  C   UNL     1       1.456   6.789  20.751  0.00  0.00    +0.000 C 
ENDROOT
BRANCH   2  10
ATOM     10  C   UNL     1       0.864  10.200  19.305  0.00  0.00    +0.000 C 
ATOM     11  C   UNL     1      -0.642  10.384  19.301  0.00  0.00    +0.000 C 
ATOM     12  C   UNL     1      -0.893  11.375  20.426  0.00  0.00    +0.000 C 
ATOM     13  C   UNL     1       0.382  12.230  20.428  0.00  0.00    +0.000 C 
ATOM     14  N   UNL     1       1.397  11.541  19.610  0.00  0.00    +0.000 NA
ATOM     15  H   UNL     1       2.275  11.476  20.123  0.00  0.00    +0.000 HD
BRANCH  12  16
ATOM     16  O   UNL     1      -2.040  12.175  20.160  0.00  0.00    +0.000 OA
BRANCH  16  17
ATOM     17  C   UNL     1      -2.600  12.769  21.247  0.00  0.00    +0.000 A 
ATOM     18  C   UNL     1      -2.713  12.297  22.589  0.00  0.00    +0.000 A 
ATOM     19  C   UNL     1      -3.338  13.212  23.406  0.00  0.00    +0.000 A 
ATOM     20  S   UNL     1      -3.799  14.625  22.560  0.00  0.00    +0.000 S 
ATOM     21  C   UNL     1      -3.156  14.019  21.096  0.00  0.00    +0.000 A 
ENDBRANCH  16  17
ENDBRANCH  12  16
ENDBRANCH   2  10
BRANCH   7  22
ATOM     22  C   UNL     1       1.747   4.305  18.870  0.00  0.00    +0.000 C 
ATOM     23  C   UNL     1       2.272   3.031  18.155  0.00  0.00    +0.000 C 
ATOM     24  C   UNL     1       0.985   2.320  18.609  0.00  0.00    +0.000 C 
ATOM     25  C   UNL     1       0.908   3.346  19.758  0.00  0.00    +0.000 C 
ENDBRANCH   7  22
TORSDOF 4
ENDMDL
MODEL 8
REMARK VINA RESULT:      -6.1      3.967      8.934
REMARK  Name = 
REMARK  4 active torsions:
REMARK  status: ('A' for Active; 'I' for Inactive)
REMARK    1  A    between atoms: C_2  and  C_3
REMARK    2  A    between atoms: C_5  and  O_6
REMARK    3  A    between atoms: O_6  and  C_7
REMARK    4  A    between atoms: N_18  and  C_19
REMARK                            x       y       z     vdW  Elec       q    Type
REMARK                         _______ _______ _______ _____ _____    ______ ____
ROOT
ATOM      1  O   UNL     1       2.940   8.350  17.566  0.00  0.00    +0.000 OA
ATOM      2  C   UNL     1       2.267   8.045  18.551  0.00  0.00    +0.000 C 
ATOM      3  N   UNL     1       1.588   9.020  19.309  0.00  0.00    +0.000 N 
ATOM      4  C   UNL     1       0.802   8.659  20.485  0.00  0.00    +0.000 C 
ATOM      5  C   UNL     1       0.819   9.595  21.685  0.00  0.00    +0.000 C 
ATOM      6  C   UNL     1       0.827  11.104  21.497  0.00  0.00    +0.000 C 
ATOM      7  N   UNL     1       0.182  11.698  20.335  0.00  0.00    +0.000 NA
ATOM      8  C   UNL     1       0.984  11.522  19.124  0.00  0.00    +0.000 C 
ATOM      9  C   UNL     1       1.091  10.133  18.489  0.00  0.00    +0.000 C 
ENDROOT
BRANCH   2  10
ATOM     10  C   UNL     1       2.116   6.557  18.970  0.00  0.00    +0.000 C 
ATOM     11  C   UNL     1       2.530   5.620  17.851  0.00  0.00    +0.000 C 
ATOM     12  C   UNL     1       4.041   5.531  17.988  0.00  0.00    +0.000 C 
ATOM     13  C   UNL     1       4.266   5.710  19.496  0.00  0.00    +0.000 C 
ATOM     14  N   UNL     1       3.013   6.211  20.089  0.00  0.00    +0.000 NA
ATOM     15  H   UNL     1       3.201   7.026  20.671  0.00  0.00    +0.000 HD
BRANCH  12  16
ATOM     16  O   UNL     1       4.524   4.265  17.550  0.00  0.00    +0.000 OA
BRANCH  16  17
ATOM     17  C   UNL     1       5.407   4.304  16.519  0.00  0.00    +0.000 A 
ATOM     18  C   UNL     1       6.787   4.669  16.511  0.00  0.00    +0.000 A 
ATOM     19  C   UNL     1       7.342   4.560  15.255  0.00  0.00    +0.000 A 
ATOM     20  S   UNL     1       6.206   4.034  14.090  0.00  0.00    +0.000 S 
ATOM     21  C   UNL     1       4.967   3.944  15.265  0.00  0.00    +0.000 A 
ENDBRANCH  16  17
ENDBRANCH  12  16
ENDBRANCH   2  10
BRANCH   7  22
ATOM     22  C   UNL     1      -1.235  11.352  20.193  0.00  0.00    +0.000 C 
ATOM     23  C   UNL     1      -2.074  12.244  21.148  0.00  0.00    +0.000 C 
ATOM     24  C   UNL     1      -3.054  12.463  19.981  0.00  0.00    +0.000 C 
ATOM     25  C   UNL     1      -1.880  12.154  19.031  0.00  0.00    +0.000 C 
ENDBRANCH   7  22
TORSDOF 4
ENDMDL
MODEL 9
REMARK VINA RESULT:      -6.0      1.501      1.944
REMARK  Name = 
REMARK  4 active torsions:
REMARK  status: ('A' for Active; 'I' for Inactive)
REMARK    1  A    between atoms: C_2  and  C_3
REMARK    2  A    between atoms: C_5  and  O_6
REMARK    3  A    between atoms: O_6  and  C_7
REMARK    4  A    between atoms: N_18  and  C_19
REMARK                            x       y       z     vdW  Elec       q    Type
REMARK                         _______ _______ _______ _____ _____    ______ ____
ROOT
ATOM      1  O   UNL     1       0.790   9.075  20.868  0.00  0.00    +0.000 OA
ATOM      2  C   UNL     1       1.393   8.835  19.822  0.00  0.00    +0.000 C 
ATOM      3  N   UNL     1       2.052   7.605  19.618  0.00  0.00    +0.000 N 
ATOM      4  C   UNL     1       2.779   7.326  18.384  0.00  0.00    +0.000 C 
ATOM      5  C   UNL     1       4.076   6.534  18.468  0.00  0.00    +0.000 C 
ATOM      6  C   UNL     1       4.218   5.372  19.440  0.00  0.00    +0.000 C 
ATOM      7  N   UNL     1       3.054   4.579  19.803  0.00  0.00    +0.000 NA
ATOM      8  C   UNL     1       2.190   5.288  20.746  0.00  0.00    +0.000 C 
ATOM      9  C   UNL     1       1.359   6.477  20.255  0.00  0.00    +0.000 C 
ENDROOT
BRANCH   2  10
ATOM     10  C   UNL     1       1.417   9.876  18.670  0.00  0.00    +0.000 C 
ATOM     11  C   UNL     1       0.195   9.746  17.779  0.00  0.00    +0.000 C 
ATOM     12  C   UNL     1      -0.876  10.541  18.508  0.00  0.00    +0.000 C 
ATOM     13  C   UNL     1      -0.071  11.635  19.225  0.00  0.00    +0.000 C 
ATOM     14  N   UNL     1       1.353  11.258  19.181  0.00  0.00    +0.000 NA
ATOM     15  H   UNL     1       1.762  11.322  20.112  0.00  0.00    +0.000 HD
BRANCH  12  16
ATOM     16  O   UNL     1      -1.805  11.113  17.593  0.00  0.00    +0.000 OA
BRANCH  16  17
ATOM     17  C   UNL     1      -3.087  11.187  18.036  0.00  0.00    +0.000 A 
ATOM     18  C   UNL     1      -4.221  10.392  17.689  0.00  0.00    +0.000 A 
ATOM     19  C   UNL     1      -5.350  10.777  18.377  0.00  0.00    +0.000 A 
ATOM     20  S   UNL     1      -5.051  12.095  19.425  0.00  0.00    +0.000 S 
ATOM     21  C   UNL     1      -3.405  12.151  18.966  0.00  0.00    +0.000 A 
ENDBRANCH  16  17
ENDBRANCH  12  16
ENDBRANCH   2  10
BRANCH   7  22
ATOM     22  C   UNL     1       2.360   3.975  18.663  0.00  0.00    +0.000 C 
ATOM     23  C   UNL     1       3.374   3.139  17.835  0.00  0.00    +0.000 C 
ATOM     24  C   UNL     1       2.312   2.026  17.774  0.00  0.00    +0.000 C 
ATOM     25  C   UNL     1       1.719   2.619  19.068  0.00  0.00    +0.000 C 
ENDBRANCH   7  22
TORSDOF 4
ENDMDL
