MODEL 1
REMARK VINA RESULT:      -7.8      0.000      0.000
REMARK  Name = 
REMARK  8 active torsions:
REMARK  status: ('A' for Active; 'I' for Inactive)
REMARK    1  A    between atoms: C_1  and  C_2
REMARK    2  A    between atoms: C_2  and  C_3
REMARK    3  A    between atoms: C_9  and  C_11
REMARK    4  A    between atoms: C_11  and  O_12
REMARK    5  A    between atoms: O_12  and  C_13
REMARK    6  A    between atoms: C_15  and  C_16
REMARK    7  A    between atoms: C_21  and  C_22
REMARK    8  A    between atoms: N_24  and  C_25
REMARK                            x       y       z     vdW  Elec       q    Type
REMARK                         _______ _______ _______ _____ _____    ______ ____
ROOT
ATOM      1  C   UNL     1       2.786   7.088  18.232  0.00  0.00    +0.000 A 
ATOM      2  C   UNL     1       2.041   6.224  19.031  0.00  0.00    +0.000 A 
ATOM      3  C   UNL     1       2.260   4.832  18.964  0.00  0.00    +0.000 A 
ATOM      4  C   UNL     1       3.274   4.398  18.077  0.00  0.00    +0.000 A 
ATOM      5  C   UNL     1       3.859   3.171  17.644  0.00  0.00    +0.000 A 
ATOM      6  C   UNL     1       3.555   1.771  18.038  0.00  0.00    +0.000 C 
ATOM      7  N   UNL     1       4.822   3.371  16.730  0.00  0.00    +0.000 NA
ATOM      8  N   UNL     1       4.855   4.707  16.579  0.00  0.00    +0.000 N 
ATOM      9  C   UNL     1       5.771   5.308  15.639  0.00  0.00    +0.000 C 
ATOM     10  C   UNL     1       3.949   5.373  17.351  0.00  0.00    +0.000 A 
ATOM     11  N   UNL     1       3.753   6.704  17.382  0.00  0.00    +0.000 NA
ENDROOT
BRANCH   3  12
ATOM     12  C   UNL     1       1.433   3.889  19.791  0.00  0.00    +0.000 C 
ATOM     13  F   UNL     1       2.171   3.101  20.621  0.00  0.00    +0.000 F 
ATOM     14  F   UNL     1       0.550   4.541  20.595  0.00  0.00    +0.000 F 
ATOM     15  F   UNL     1       0.694   3.036  19.031  0.00  0.00    +0.000 F 
ENDBRANCH   3  12
BRANCH   1  16
ATOM     16  O   UNL     1       2.506   8.437  18.358  0.00  0.00    +0.000 OA
BRANCH  16  17
ATOM     17  C   UNL     1       1.671   8.700  19.488  0.00  0.00    +0.000 C 
BRANCH  17  24
ATOM     18  C   UNL     1      -0.527  11.772  20.367  0.00  0.00    +0.000 C 
ATOM     19  C   UNL     1      -0.303  12.285  21.803  0.00  0.00    +0.000 C 
ATOM     20  C   UNL     1      -0.954  11.379  22.850  0.00  0.00    +0.000 C 
ATOM     21  C   UNL     1      -0.500   9.930  22.688  0.00  0.00    +0.000 C 
ATOM     22  C   UNL     1      -0.619   9.434  21.247  0.00  0.00    +0.000 C 
ATOM     23  N   UNL     1      -0.039  10.380  20.292  0.00  0.00    +0.000 N 
ATOM     24  C   UNL     1       1.052  10.105  19.463  0.00  0.00    +0.000 C 
ATOM     25  O   UNL     1       1.499  10.943  18.680  0.00  0.00    +0.000 OA
BRANCH  18  27
ATOM     26  C   UNL     1      -2.340  11.456  18.544  0.00  0.00    +0.000 C 
ATOM     27  C   UNL     1      -1.997  11.972  19.934  0.00  0.00    +0.000 C 
ENDBRANCH  18  27
ENDBRANCH  17  24
ENDBRANCH  16  17
ENDBRANCH   1  16
TORSDOF 5
ENDMDL
MODEL 2
REMARK VINA RESULT:      -7.8      1.684      2.553
REMARK  Name = 
REMARK  8 active torsions:
REMARK  status: ('A' for Active; 'I' for Inactive)
REMARK    1  A    between atoms: C_1  and  C_2
REMARK    2  A    between atoms: C_2  and  C_3
REMARK    3  A    between atoms: C_9  and  C_11
REMARK    4  A    between atoms: C_11  and  O_12
REMARK    5  A    between atoms: O_12  and  C_13
REMARK    6  A    between atoms: C_15  and  C_16
REMARK    7  A    between atoms: C_21  and  C_22
REMARK    8  A    between atoms: N_24  and  C_25
REMARK                            x       y       z     vdW  Elec       q    Type
REMARK                         _______ _______ _______ _____ _____    ______ ____
ROOT
ATOM      1  C   UNL     1       2.124   6.729  20.352  0.00  0.00    +0.000 A 
ATOM      2  C   UNL     1       1.598   5.497  20.734  0.00  0.00    +0.000 A 
ATOM      3  C   UNL     1       1.862   4.345  19.963  0.00  0.00    +0.000 A 
ATOM      4  C   UNL     1       2.691   4.525  18.831  0.00  0.00    +0.000 A 
ATOM      5  C   UNL     1       3.231   3.740  17.768  0.00  0.00    +0.000 A 
ATOM      6  C   UNL     1       3.078   2.292  17.472  0.00  0.00    +0.000 C 
ATOM      7  N   UNL     1       3.975   4.477  16.929  0.00  0.00    +0.000 NA
ATOM      8  N   UNL     1       3.916   5.718  17.445  0.00  0.00    +0.000 N 
ATOM      9  C   UNL     1       4.592   6.810  16.788  0.00  0.00    +0.000 C 
ATOM     10  C   UNL     1       3.158   5.810  18.576  0.00  0.00    +0.000 A 
ATOM     11  N   UNL     1       2.912   6.928  19.282  0.00  0.00    +0.000 NA
ENDROOT
BRANCH   3  12
ATOM     12  C   UNL     1       1.266   3.020  20.344  0.00  0.00    +0.000 C 
ATOM     13  F   UNL     1       0.268   2.612  19.512  0.00  0.00    +0.000 F 
ATOM     14  F   UNL     1       2.183   2.016  20.335  0.00  0.00    +0.000 F 
ATOM     15  F   UNL     1       0.726   3.028  21.593  0.00  0.00    +0.000 F 
ENDBRANCH   3  12
BRANCH   1  16
ATOM     16  O   UNL     1       1.814   7.807  21.162  0.00  0.00    +0.000 OA
BRANCH  16  17
ATOM     17  C   UNL     1       0.578   8.415  20.782  0.00  0.00    +0.000 C 
BRANCH  17  24
ATOM     18  C   UNL     1       0.282  12.108  19.637  0.00  0.00    +0.000 C 
ATOM     19  C   UNL     1      -1.162  12.522  19.293  0.00  0.00    +0.000 C 
ATOM     20  C   UNL     1      -1.624  11.952  17.951  0.00  0.00    +0.000 C 
ATOM     21  C   UNL     1      -1.440  10.437  17.899  0.00  0.00    +0.000 C 
ATOM     22  C   UNL     1      -0.041   9.999  18.335  0.00  0.00    +0.000 C 
ATOM     23  N   UNL     1       0.365  10.635  19.590  0.00  0.00    +0.000 N 
ATOM     24  C   UNL     1       0.640   9.950  20.777  0.00  0.00    +0.000 C 
ATOM     25  O   UNL     1       0.975  10.539  21.803  0.00  0.00    +0.000 OA
BRANCH  18  27
ATOM     26  C   UNL     1       1.241  14.367  18.804  0.00  0.00    +0.000 C 
ATOM     27  C   UNL     1       1.296  12.848  18.734  0.00  0.00    +0.000 C 
ENDBRANCH  18  27
ENDBRANCH  17  24
ENDBRANCH  16  17
ENDBRANCH   1  16
TORSDOF 5
ENDMDL
MODEL 3
REMARK VINA RESULT:      -7.8      1.188      1.936
REMARK  Name = 
REMARK  8 active torsions:
REMARK  status: ('A' for Active; 'I' for Inactive)
REMARK    1  A    between atoms: C_1  and  C_2
REMARK    2  A    between atoms: C_2  and  C_3
REMARK    3  A    between atoms: C_9  and  C_11
REMARK    4  A    between atoms: C_11  and  O_12
REMARK    5  A    between atoms: O_12  and  C_13
REMARK    6  A    between atoms: C_15  and  C_16
REMARK    7  A    between atoms: C_21  and  C_22
REMARK    8  A    between atoms: N_24  and  C_25
REMARK                            x       y       z     vdW  Elec       q    Type
REMARK                         _______ _______ _______ _____ _____    ______ ____
ROOT
ATOM      1  C   UNL     1       2.573   7.246  18.735  0.00  0.00    +0.000 A 
ATOM      2  C   UNL     1       1.892   6.270  19.458  0.00  0.00    +0.000 A 
ATOM      3  C   UNL     1       2.148   4.904  19.220  0.00  0.00    +0.000 A 
ATOM      4  C   UNL     1       3.133   4.611  18.246  0.00  0.00    +0.000 A 
ATOM      5  C   UNL     1       3.734   3.464  17.648  0.00  0.00    +0.000 A 
ATOM      6  C   UNL     1       3.491   2.018  17.889  0.00  0.00    +0.000 C 
ATOM      7  N   UNL     1       4.648   3.801  16.724  0.00  0.00    +0.000 NA
ATOM      8  N   UNL     1       4.634   5.147  16.728  0.00  0.00    +0.000 N 
ATOM      9  C   UNL     1       5.487   5.884  15.828  0.00  0.00    +0.000 C 
ATOM     10  C   UNL     1       3.745   5.687  17.611  0.00  0.00    +0.000 A 
ATOM     11  N   UNL     1       3.510   6.997  17.805  0.00  0.00    +0.000 NA
ENDROOT
BRANCH   3  12
ATOM     12  C   UNL     1       1.389   3.844  19.965  0.00  0.00    +0.000 C 
ATOM     13  F   UNL     1       2.184   3.024  20.708  0.00  0.00    +0.000 F 
ATOM     14  F   UNL     1       0.486   4.367  20.837  0.00  0.00    +0.000 F 
ATOM     15  F   UNL     1       0.684   3.024  19.138  0.00  0.00    +0.000 F 
ENDBRANCH   3  12
BRANCH   1  16
ATOM     16  O   UNL     1       2.258   8.561  19.029  0.00  0.00    +0.000 OA
BRANCH  16  17
ATOM     17  C   UNL     1       1.230   8.650  20.018  0.00  0.00    +0.000 C 
BRANCH  17  24
ATOM     18  C   UNL     1      -0.515  12.099  19.711  0.00  0.00    +0.000 C 
ATOM     19  C   UNL     1      -2.052  12.007  19.758  0.00  0.00    +0.000 C 
ATOM     20  C   UNL     1      -2.640  11.468  18.453  0.00  0.00    +0.000 C 
ATOM     21  C   UNL     1      -2.002  10.136  18.065  0.00  0.00    +0.000 C 
ATOM     22  C   UNL     1      -0.475  10.180  18.112  0.00  0.00    +0.000 C 
ATOM     23  N   UNL     1       0.019  10.769  19.358  0.00  0.00    +0.000 N 
ATOM     24  C   UNL     1       0.796  10.095  20.304  0.00  0.00    +0.000 C 
ATOM     25  O   UNL     1       1.180  10.643  21.337  0.00  0.00    +0.000 OA
BRANCH  18  27
ATOM     26  C   UNL     1       1.439  13.338  18.544  0.00  0.00    +0.000 C 
ATOM     27  C   UNL     1      -0.061  13.251  18.786  0.00  0.00    +0.000 C 
ENDBRANCH  18  27
ENDBRANCH  17  24
ENDBRANCH  16  17
ENDBRANCH   1  16
TORSDOF 5
ENDMDL
MODEL 4
REMARK VINA RESULT:      -7.8      1.362      2.140
REMARK  Name = 
REMARK  8 active torsions:
REMARK  status: ('A' for Active; 'I' for Inactive)
REMARK    1  A    between atoms: C_1  and  C_2
REMARK    2  A    between atoms: C_2  and  C_3
REMARK    3  A    between atoms: C_9  and  C_11
REMARK    4  A    between atoms: C_11  and  O_12
REMARK    5  A    between atoms: O_12  and  C_13
REMARK    6  A    between atoms: C_15  and  C_16
REMARK    7  A    between atoms: C_21  and  C_22
REMARK    8  A    between atoms: N_24  and  C_25
REMARK                            x       y       z     vdW  Elec       q    Type
REMARK                         _______ _______ _______ _____ _____    ______ ____
ROOT
ATOM      1  C   UNL     1       2.557   6.738  19.403  0.00  0.00    +0.000 A 
ATOM      2  C   UNL     1       2.001   5.671  20.105  0.00  0.00    +0.000 A 
ATOM      3  C   UNL     1       2.282   4.345  19.714  0.00  0.00    +0.000 A 
ATOM      4  C   UNL     1       3.159   4.187  18.615  0.00  0.00    +0.000 A 
ATOM      5  C   UNL     1       3.731   3.127  17.851  0.00  0.00    +0.000 A 
ATOM      6  C   UNL     1       3.573   1.655  17.982  0.00  0.00    +0.000 C 
ATOM      7  N   UNL     1       4.519   3.587  16.866  0.00  0.00    +0.000 NA
ATOM      8  N   UNL     1       4.453   4.925  16.996  0.00  0.00    +0.000 N 
ATOM      9  C   UNL     1       5.169   5.779  16.078  0.00  0.00    +0.000 C 
ATOM     10  C   UNL     1       3.652   5.342  18.017  0.00  0.00    +0.000 A 
ATOM     11  N   UNL     1       3.390   6.618  18.356  0.00  0.00    +0.000 NA
ENDROOT
BRANCH   3  12
ATOM     12  C   UNL     1       1.655   3.188  20.438  0.00  0.00    +0.000 C 
ATOM     13  F   UNL     1       0.887   3.560  21.500  0.00  0.00    +0.000 F 
ATOM     14  F   UNL     1       0.838   2.454  19.636  0.00  0.00    +0.000 F 
ATOM     15  F   UNL     1       2.577   2.319  20.936  0.00  0.00    +0.000 F 
ENDBRANCH   3  12
BRANCH   1  16
ATOM     16  O   UNL     1       2.227   8.005  19.851  0.00  0.00    +0.000 OA
BRANCH  16  17
ATOM     17  C   UNL     1       1.253   7.961  20.895  0.00  0.00    +0.000 C 
BRANCH  17  24
ATOM     18  C   UNL     1       0.136  11.646  21.355  0.00  0.00    +0.000 C 
ATOM     19  C   UNL     1      -1.374  11.854  21.127  0.00  0.00    +0.000 C 
ATOM     20  C   UNL     1      -1.747  11.809  19.644  0.00  0.00    +0.000 C 
ATOM     21  C   UNL     1      -1.243  10.526  18.984  0.00  0.00    +0.000 C 
ATOM     22  C   UNL     1       0.229  10.249  19.285  0.00  0.00    +0.000 C 
ATOM     23  N   UNL     1       0.531  10.377  20.712  0.00  0.00    +0.000 N 
ATOM     24  C   UNL     1       0.985   9.335  21.526  0.00  0.00    +0.000 C 
ATOM     25  O   UNL     1       1.220   9.502  22.722  0.00  0.00    +0.000 OA
BRANCH  18  27
ATOM     26  C   UNL     1       0.670  14.159  21.689  0.00  0.00    +0.000 C 
ATOM     27  C   UNL     1       0.938  12.886  20.900  0.00  0.00    +0.000 C 
ENDBRANCH  18  27
ENDBRANCH  17  24
ENDBRANCH  16  17
ENDBRANCH   1  16
TORSDOF 5
ENDMDL
MODEL 5
REMARK VINA RESULT:      -7.7      3.208      8.258
REMARK  Name = 
REMARK  8 active torsions:
REMARK  status: ('A' for Active; 'I' for Inactive)
REMARK    1  A    between atoms: C_1  and  C_2
REMARK    2  A    between atoms: C_2  and  C_3
REMARK    3  A    between atoms: C_9  and  C_11
REMARK    4  A    between atoms: C_11  and  O_12
REMARK    5  A    between atoms: O_12  and  C_13
REMARK    6  A    between atoms: C_15  and  C_16
REMARK    7  A    between atoms: C_21  and  C_22
REMARK    8  A    between atoms: N_24  and  C_25
REMARK                            x       y       z     vdW  Elec       q    Type
REMARK                         _______ _______ _______ _____ _____    ______ ____
ROOT
ATOM      1  C   UNL     1       0.575  10.072  18.833  0.00  0.00    +0.000 A 
ATOM      2  C   UNL     1      -0.418   9.822  17.891  0.00  0.00    +0.000 A 
ATOM      3  C   UNL     1      -1.685  10.429  18.019  0.00  0.00    +0.000 A 
ATOM      4  C   UNL     1      -1.854  11.301  19.121  0.00  0.00    +0.000 A 
ATOM      5  C   UNL     1      -2.877  12.117  19.689  0.00  0.00    +0.000 A 
ATOM      6  C   UNL     1      -4.277  12.346  19.248  0.00  0.00    +0.000 C 
ATOM      7  N   UNL     1      -2.459  12.744  20.800  0.00  0.00    +0.000 NA
ATOM      8  N   UNL     1      -1.184  12.338  20.943  0.00  0.00    +0.000 N 
ATOM      9  C   UNL     1      -0.399  12.795  22.064  0.00  0.00    +0.000 C 
ATOM     10  C   UNL     1      -0.769  11.470  19.976  0.00  0.00    +0.000 A 
ATOM     11  N   UNL     1       0.443  10.894  19.889  0.00  0.00    +0.000 NA
ENDROOT
BRANCH   3  12
ATOM     12  C   UNL     1      -2.777  10.133  17.031  0.00  0.00    +0.000 C 
ATOM     13  F   UNL     1      -2.382   9.326  16.007  0.00  0.00    +0.000 F 
ATOM     14  F   UNL     1      -3.839   9.504  17.603  0.00  0.00    +0.000 F 
ATOM     15  F   UNL     1      -3.273  11.257  16.446  0.00  0.00    +0.000 F 
ENDBRANCH   3  12
BRANCH   1  16
ATOM     16  O   UNL     1       1.786   9.434  18.634  0.00  0.00    +0.000 OA
BRANCH  16  17
ATOM     17  C   UNL     1       1.869   8.214  19.374  0.00  0.00    +0.000 C 
BRANCH  17  24
ATOM     18  C   UNL     1       3.310   4.747  18.406  0.00  0.00    +0.000 C 
ATOM     19  C   UNL     1       2.220   3.693  18.131  0.00  0.00    +0.000 C 
ATOM     20  C   UNL     1       1.566   3.186  19.418  0.00  0.00    +0.000 C 
ATOM     21  C   UNL     1       1.039   4.343  20.265  0.00  0.00    +0.000 C 
ATOM     22  C   UNL     1       2.076   5.448  20.463  0.00  0.00    +0.000 C 
ATOM     23  N   UNL     1       2.711   5.836  19.202  0.00  0.00    +0.000 N 
ATOM     24  C   UNL     1       2.625   7.107  18.626  0.00  0.00    +0.000 C 
ATOM     25  O   UNL     1       3.179   7.375  17.560  0.00  0.00    +0.000 OA
BRANCH  18  27
ATOM     26  C   UNL     1       5.772   5.005  19.171  0.00  0.00    +0.000 C 
ATOM     27  C   UNL     1       4.562   4.093  19.033  0.00  0.00    +0.000 C 
ENDBRANCH  18  27
ENDBRANCH  17  24
ENDBRANCH  16  17
ENDBRANCH   1  16
TORSDOF 5
ENDMDL
MODEL 6
REMARK VINA RESULT:      -7.6      1.585      2.430
REMARK  Name = 
REMARK  8 active torsions:
REMARK  status: ('A' for Active; 'I' for Inactive)
REMARK    1  A    between atoms: C_1  and  C_2
REMARK    2  A    between atoms: C_2  and  C_3
REMARK    3  A    between atoms: C_9  and  C_11
REMARK    4  A    between atoms: C_11  and  O_12
REMARK    5  A    between atoms: O_12  and  C_13
REMARK    6  A    between atoms: C_15  and  C_16
REMARK    7  A    between atoms: C_21  and  C_22
REMARK    8  A    between atoms: N_24  and  C_25
REMARK                            x       y       z     vdW  Elec       q    Type
REMARK                         _______ _______ _______ _____ _____    ______ ____
ROOT
ATOM      1  C   UNL     1       1.895   6.599  20.309  0.00  0.00    +0.000 A 
ATOM      2  C   UNL     1       1.491   5.323  20.693  0.00  0.00    +0.000 A 
ATOM      3  C   UNL     1       1.939   4.193  19.978  0.00  0.00    +0.000 A 
ATOM      4  C   UNL     1       2.819   4.442  18.898  0.00  0.00    +0.000 A 
ATOM      5  C   UNL     1       3.519   3.702  17.899  0.00  0.00    +0.000 A 
ATOM      6  C   UNL     1       3.556   2.240  17.638  0.00  0.00    +0.000 C 
ATOM      7  N   UNL     1       4.229   4.502  17.088  0.00  0.00    +0.000 NA
ATOM      8  N   UNL     1       3.990   5.739  17.561  0.00  0.00    +0.000 N 
ATOM      9  C   UNL     1       4.579   6.888  16.916  0.00  0.00    +0.000 C 
ATOM     10  C   UNL     1       3.150   5.768  18.635  0.00  0.00    +0.000 A 
ATOM     11  N   UNL     1       2.727   6.865  19.288  0.00  0.00    +0.000 NA
ENDROOT
BRANCH   3  12
ATOM     12  C   UNL     1       1.476   2.816  20.359  0.00  0.00    +0.000 C 
ATOM     13  F   UNL     1       0.730   2.205  19.396  0.00  0.00    +0.000 F 
ATOM     14  F   UNL     1       2.511   1.970  20.611  0.00  0.00    +0.000 F 
ATOM     15  F   UNL     1       0.704   2.814  21.480  0.00  0.00    +0.000 F 
ENDBRANCH   3  12
BRANCH   1  16
ATOM     16  O   UNL     1       1.406   7.651  21.062  0.00  0.00    +0.000 OA
BRANCH  16  17
ATOM     17  C   UNL     1       1.200   8.820  20.266  0.00  0.00    +0.000 C 
BRANCH  17  24
ATOM     18  C   UNL     1      -0.157  12.295  21.326  0.00  0.00    +0.000 C 
ATOM     19  C   UNL     1      -1.693  12.395  21.249  0.00  0.00    +0.000 C 
ATOM     20  C   UNL     1      -2.193  12.515  19.808  0.00  0.00    +0.000 C 
ATOM     21  C   UNL     1      -1.652  11.382  18.937  0.00  0.00    +0.000 C 
ATOM     22  C   UNL     1      -0.141  11.202  19.079  0.00  0.00    +0.000 C 
ATOM     23  N   UNL     1       0.277  11.164  20.482  0.00  0.00    +0.000 N 
ATOM     24  C   UNL     1       0.882  10.068  21.103  0.00  0.00    +0.000 C 
ATOM     25  O   UNL     1       1.210  10.094  22.288  0.00  0.00    +0.000 OA
BRANCH  18  27
ATOM     26  C   UNL     1       2.010  13.614  20.804  0.00  0.00    +0.000 C 
ATOM     27  C   UNL     1       0.501  13.652  20.988  0.00  0.00    +0.000 C 
ENDBRANCH  18  27
ENDBRANCH  17  24
ENDBRANCH  16  17
ENDBRANCH   1  16
TORSDOF 5
ENDMDL
MODEL 7
REMARK VINA RESULT:      -7.6      1.264      1.598
REMARK  Name = 
REMARK  8 active torsions:
REMARK  status: ('A' for Active; 'I' for Inactive)
REMARK    1  A    between atoms: C_1  and  C_2
REMARK    2  A    between atoms: C_2  and  C_3
REMARK    3  A    between atoms: C_9  and  C_11
REMARK    4  A    between atoms: C_11  and  O_12
REMARK    5  A    between atoms: O_12  and  C_13
REMARK    6  A    between atoms: C_15  and  C_16
REMARK    7  A    between atoms: C_21  and  C_22
REMARK    8  A    between atoms: N_24  and  C_25
REMARK                            x       y       z     vdW  Elec       q    Type
REMARK                         _______ _______ _______ _____ _____    ______ ____
ROOT
ATOM      1  C   UNL     1       2.570   6.888  18.845  0.00  0.00    +0.000 A 
ATOM      2  C   UNL     1       1.952   5.880  19.581  0.00  0.00    +0.000 A 
ATOM      3  C   UNL     1       2.243   4.526  19.312  0.00  0.00    +0.000 A 
ATOM      4  C   UNL     1       3.194   4.280  18.294  0.00  0.00    +0.000 A 
ATOM      5  C   UNL     1       3.808   3.162  17.654  0.00  0.00    +0.000 A 
ATOM      6  C   UNL     1       3.622   1.705  17.883  0.00  0.00    +0.000 C 
ATOM      7  N   UNL     1       4.669   3.542  16.698  0.00  0.00    +0.000 NA
ATOM      8  N   UNL     1       4.612   4.886  16.723  0.00  0.00    +0.000 N 
ATOM      9  C   UNL     1       5.402   5.663  15.799  0.00  0.00    +0.000 C 
ATOM     10  C   UNL     1       3.744   5.384  17.650  0.00  0.00    +0.000 A 
ATOM     11  N   UNL     1       3.475   6.683  17.874  0.00  0.00    +0.000 NA
ENDROOT
BRANCH   3  12
ATOM     12  C   UNL     1       1.550   3.431  20.072  0.00  0.00    +0.000 C 
ATOM     13  F   UNL     1       0.787   2.621  19.287  0.00  0.00    +0.000 F 
ATOM     14  F   UNL     1       2.426   2.606  20.707  0.00  0.00    +0.000 F 
ATOM     15  F   UNL     1       0.715   3.909  21.034  0.00  0.00    +0.000 F 
ENDBRANCH   3  12
BRANCH   1  16
ATOM     16  O   UNL     1       2.225   8.187  19.172  0.00  0.00    +0.000 OA
BRANCH  16  17
ATOM     17  C   UNL     1       1.596   8.858  18.079  0.00  0.00    +0.000 C 
BRANCH  17  24
ATOM     18  C   UNL     1       0.833  12.513  19.128  0.00  0.00    +0.000 C 
ATOM     19  C   UNL     1       0.984  12.752  20.643  0.00  0.00    +0.000 C 
ATOM     20  C   UNL     1      -0.180  12.161  21.441  0.00  0.00    +0.000 C 
ATOM     21  C   UNL     1      -0.382  10.683  21.116  0.00  0.00    +0.000 C 
ATOM     22  C   UNL     1      -0.432  10.412  19.613  0.00  0.00    +0.000 C 
ATOM     23  N   UNL     1       0.671  11.063  18.902  0.00  0.00    +0.000 N 
ATOM     24  C   UNL     1       1.668  10.388  18.191  0.00  0.00    +0.000 C 
ATOM     25  O   UNL     1       2.573  10.990  17.614  0.00  0.00    +0.000 OA
BRANCH  18  27
ATOM     26  C   UNL     1      -0.176  14.882  18.840  0.00  0.00    +0.000 C 
ATOM     27  C   UNL     1      -0.292  13.394  18.541  0.00  0.00    +0.000 C 
ENDBRANCH  18  27
ENDBRANCH  17  24
ENDBRANCH  16  17
ENDBRANCH   1  16
TORSDOF 5
ENDMDL
MODEL 8
REMARK VINA RESULT:      -7.6      1.584      1.828
REMARK  Name = 
REMARK  8 active torsions:
REMARK  status: ('A' for Active; 'I' for Inactive)
REMARK    1  A    between atoms: C_1  and  C_2
REMARK    2  A    between atoms: C_2  and  C_3
REMARK    3  A    between atoms: C_9  and  C_11
REMARK    4  A    between atoms: C_11  and  O_12
REMARK    5  A    between atoms: O_12  and  C_13
REMARK    6  A    between atoms: C_15  and  C_16
REMARK    7  A    between atoms: C_21  and  C_22
REMARK    8  A    between atoms: N_24  and  C_25
REMARK                            x       y       z     vdW  Elec       q    Type
REMARK                         _______ _______ _______ _____ _____    ______ ____
ROOT
ATOM      1  C   UNL     1       3.060   7.514  17.889  0.00  0.00    +0.000 A 
ATOM      2  C   UNL     1       2.265   6.875  18.836  0.00  0.00    +0.000 A 
ATOM      3  C   UNL     1       2.661   5.630  19.369  0.00  0.00    +0.000 A 
ATOM      4  C   UNL     1       3.894   5.113  18.906  0.00  0.00    +0.000 A 
ATOM      5  C   UNL     1       4.708   3.957  19.101  0.00  0.00    +0.000 A 
ATOM      6  C   UNL     1       4.496   2.770  19.970  0.00  0.00    +0.000 C 
ATOM      7  N   UNL     1       5.820   3.995  18.351  0.00  0.00    +0.000 NA
ATOM      8  N   UNL     1       5.724   5.159  17.683  0.00  0.00    +0.000 N 
ATOM      9  C   UNL     1       6.748   5.542  16.742  0.00  0.00    +0.000 C 
ATOM     10  C   UNL     1       4.593   5.866  17.968  0.00  0.00    +0.000 A 
ATOM     11  N   UNL     1       4.234   7.046  17.430  0.00  0.00    +0.000 NA
ENDROOT
BRANCH   3  12
ATOM     12  C   UNL     1       1.790   4.913  20.361  0.00  0.00    +0.000 C 
ATOM     13  F   UNL     1       1.297   3.730  19.898  0.00  0.00    +0.000 F 
ATOM     14  F   UNL     1       2.452   4.609  21.510  0.00  0.00    +0.000 F 
ATOM     15  F   UNL     1       0.705   5.646  20.731  0.00  0.00    +0.000 F 
ENDBRANCH   3  12
BRANCH   1  16
ATOM     16  O   UNL     1       2.597   8.728  17.416  0.00  0.00    +0.000 OA
BRANCH  16  17
ATOM     17  C   UNL     1       1.526   9.234  18.216  0.00  0.00    +0.000 C 
BRANCH  17  24
ATOM     18  C   UNL     1       0.706  12.828  19.420  0.00  0.00    +0.000 C 
ATOM     19  C   UNL     1       0.794  12.989  20.950  0.00  0.00    +0.000 C 
ATOM     20  C   UNL     1      -0.399  12.356  21.669  0.00  0.00    +0.000 C 
ATOM     21  C   UNL     1      -0.581  10.895  21.260  0.00  0.00    +0.000 C 
ATOM     22  C   UNL     1      -0.569  10.702  19.744  0.00  0.00    +0.000 C 
ATOM     23  N   UNL     1       0.559  11.391  19.114  0.00  0.00    +0.000 N 
ATOM     24  C   UNL     1       1.587  10.756  18.410  0.00  0.00    +0.000 C 
ATOM     25  O   UNL     1       2.512  11.388  17.902  0.00  0.00    +0.000 OA
BRANCH  18  27
ATOM     26  C   UNL     1      -0.235  15.222  19.115  0.00  0.00    +0.000 C 
ATOM     27  C   UNL     1      -0.398  13.736  18.833  0.00  0.00    +0.000 C 
ENDBRANCH  18  27
ENDBRANCH  17  24
ENDBRANCH  16  17
ENDBRANCH   1  16
TORSDOF 5
ENDMDL
MODEL 9
REMARK VINA RESULT:      -7.6      1.526      2.376
REMARK  Name = 
REMARK  8 active torsions:
REMARK  status: ('A' for Active; 'I' for Inactive)
REMARK    1  A    between atoms: C_1  and  C_2
REMARK    2  A    between atoms: C_2  and  C_3
REMARK    3  A    between atoms: C_9  and  C_11
REMARK    4  A    between atoms: C_11  and  O_12
REMARK    5  A    between atoms: O_12  and  C_13
REMARK    6  A    between atoms: C_15  and  C_16
REMARK    7  A    between atoms: C_21  and  C_22
REMARK    8  A    between atoms: N_24  and  C_25
REMARK                            x       y       z     vdW  Elec       q    Type
REMARK                         _______ _______ _______ _____ _____    ______ ____
ROOT
ATOM      1  C   UNL     1       2.198   6.658  20.097  0.00  0.00    +0.000 A 
ATOM      2  C   UNL     1       1.655   5.451  20.528  0.00  0.00    +0.000 A 
ATOM      3  C   UNL     1       1.928   4.260  19.824  0.00  0.00    +0.000 A 
ATOM      4  C   UNL     1       2.784   4.376  18.703  0.00  0.00    +0.000 A 
ATOM      5  C   UNL     1       3.343   3.535  17.695  0.00  0.00    +0.000 A 
ATOM      6  C   UNL     1       3.186   2.075  17.468  0.00  0.00    +0.000 C 
ATOM      7  N   UNL     1       4.112   4.224  16.837  0.00  0.00    +0.000 NA
ATOM      8  N   UNL     1       4.050   5.490  17.289  0.00  0.00    +0.000 N 
ATOM      9  C   UNL     1       4.749   6.543  16.593  0.00  0.00    +0.000 C 
ATOM     10  C   UNL     1       3.267   5.644  18.395  0.00  0.00    +0.000 A 
ATOM     11  N   UNL     1       3.013   6.798  19.038  0.00  0.00    +0.000 NA
ENDROOT
BRANCH   3  12
ATOM     12  C   UNL     1       1.313   2.959  20.256  0.00  0.00    +0.000 C 
ATOM     13  F   UNL     1       0.712   3.020  21.478  0.00  0.00    +0.000 F 
ATOM     14  F   UNL     1       0.351   2.528  19.397  0.00  0.00    +0.000 F 
ATOM     15  F   UNL     1       2.224   1.952  20.342  0.00  0.00    +0.000 F 
ENDBRANCH   3  12
BRANCH   1  16
ATOM     16  O   UNL     1       1.878   7.778  20.844  0.00  0.00    +0.000 OA
BRANCH  16  17
ATOM     17  C   UNL     1       1.308   8.808  20.034  0.00  0.00    +0.000 C 
BRANCH  17  24
ATOM     18  C   UNL     1      -1.002  11.698  21.195  0.00  0.00    +0.000 C 
ATOM     19  C   UNL     1      -1.772  12.361  20.037  0.00  0.00    +0.000 C 
ATOM     20  C   UNL     1      -0.876  13.268  19.190  0.00  0.00    +0.000 C 
ATOM     21  C   UNL     1       0.361  12.520  18.696  0.00  0.00    +0.000 C 
ATOM     22  C   UNL     1       1.082  11.771  19.817  0.00  0.00    +0.000 C 
ATOM     23  N   UNL     1       0.157  10.979  20.630  0.00  0.00    +0.000 N 
ATOM     24  C   UNL     1       0.194   9.587  20.748  0.00  0.00    +0.000 C 
ATOM     25  O   UNL     1      -0.613   8.974  21.446  0.00  0.00    +0.000 OA
BRANCH  18  27
ATOM     26  C   UNL     1      -1.793  13.078  23.241  0.00  0.00    +0.000 C 
ATOM     27  C   UNL     1      -0.656  12.734  22.290  0.00  0.00    +0.000 C 
ENDBRANCH  18  27
ENDBRANCH  17  24
ENDBRANCH  16  17
ENDBRANCH   1  16
TORSDOF 5
ENDMDL
