MODEL 1
REMARK VINA RESULT:      -8.9      0.000      0.000
REMARK  Name = 
REMARK  6 active torsions:
REMARK  status: ('A' for Active; 'I' for Inactive)
REMARK    1  A    between atoms: C_2  and  C_11
REMARK    2  A    between atoms: N_3  and  C_4
REMARK    3  A    between atoms: C_4  and  C_5
REMARK    4  A    between atoms: C_14  and  C_15
REMARK    5  A    between atoms: C_20  and  O_21
REMARK    6  A    between atoms: O_21  and  C_22
REMARK                            x       y       z     vdW  Elec       q    Type
REMARK                         _______ _______ _______ _____ _____    ______ ____
ROOT
ATOM      1  C   UNL     1       2.111   6.645  20.102  0.00  0.00    +0.000 C 
ATOM      2  C   UNL     1       2.658   6.788  18.686  0.00  0.00    +0.000 C 
ATOM      3  C   UNL     1       3.069   5.378  18.485  0.00  0.00    +0.000 A 
ATOM      4  C   UNL     1       4.222   4.778  17.950  0.00  0.00    +0.000 A 
ATOM      5  C   UNL     1       4.134   3.397  17.770  0.00  0.00    +0.000 A 
ATOM      6  C   UNL     1       3.074   2.711  18.379  0.00  0.00    +0.000 A 
ATOM      7  N   UNL     1       2.116   3.281  19.164  0.00  0.00    +0.000 NA
ATOM      8  C   UNL     1       2.142   4.612  19.174  0.00  0.00    +0.000 A 
ATOM      9  O   UNL     1       1.380   5.393  20.082  0.00  0.00    +0.000 OA
ENDROOT
BRANCH   4  10
ATOM     10  C   UNL     1       5.540   5.486  18.000  0.00  0.00    +0.000 A 
ATOM     11  C   UNL     1       6.298   5.218  19.179  0.00  0.00    +0.000 A 
ATOM     12  C   UNL     1       7.533   5.760  19.464  0.00  0.00    +0.000 A 
ATOM     13  C   UNL     1       8.112   6.605  18.547  0.00  0.00    +0.000 A 
ATOM     14  C   UNL     1       7.457   6.856  17.339  0.00  0.00    +0.000 A 
ATOM     15  C   UNL     1       6.219   6.242  17.013  0.00  0.00    +0.000 A 
BRANCH  15  16
ATOM     16  O   UNL     1       5.686   6.391  15.735  0.00  0.00    +0.000 OA
BRANCH  16  17
ATOM     17  C   UNL     1       6.037   5.481  14.741  0.00  0.00    +0.000 A 
ATOM     18  C   UNL     1       7.282   5.469  14.099  0.00  0.00    +0.000 A 
ATOM     19  C   UNL     1       7.549   4.539  13.077  0.00  0.00    +0.000 A 
ATOM     20  C   UNL     1       6.590   3.593  12.719  0.00  0.00    +0.000 A 
ATOM     21  C   UNL     1       5.365   3.574  13.390  0.00  0.00    +0.000 A 
ATOM     22  C   UNL     1       5.092   4.513  14.400  0.00  0.00    +0.000 A 
ENDBRANCH  16  17
ENDBRANCH  15  16
ENDBRANCH   4  10
BRANCH   1  24
ATOM     23  O   UNL     1       1.017   8.182  21.626  0.00  0.00    +0.000 OA
ATOM     24  C   UNL     1       1.479   8.005  20.494  0.00  0.00    +0.000 C 
ATOM     25  N   UNL     1       1.325   8.959  19.516  0.00  0.00    +0.000 N 
ATOM     26  H   UNL     1       1.734   8.809  18.601  0.00  0.00    +0.000 HD
BRANCH  25  27
ATOM     27  C   UNL     1       0.830  10.290  19.866  0.00  0.00    +0.000 C 
BRANCH  27  28
ATOM     28  C   UNL     1      -0.403  10.629  19.075  0.00  0.00    +0.000 A 
ATOM     29  C   UNL     1      -1.286  11.624  19.502  0.00  0.00    +0.000 A 
ATOM     30  C   UNL     1      -2.429  11.859  18.764  0.00  0.00    +0.000 A 
ATOM     31  N   UNL     1      -2.763  11.184  17.645  0.00  0.00    +0.000 NA
ATOM     32  C   UNL     1      -1.895  10.225  17.238  0.00  0.00    +0.000 A 
ATOM     33  C   UNL     1      -0.729   9.913  17.912  0.00  0.00    +0.000 A 
ENDBRANCH  27  28
ENDBRANCH  25  27
ENDBRANCH   1  24
TORSDOF 6
ENDMDL
MODEL 2
REMARK VINA RESULT:      -8.5      0.466      1.213
REMARK  Name = 
REMARK  6 active torsions:
REMARK  status: ('A' for Active; 'I' for Inactive)
REMARK    1  A    between atoms: C_2  and  C_11
REMARK    2  A    between atoms: N_3  and  C_4
REMARK    3  A    between atoms: C_4  and  C_5
REMARK    4  A    between atoms: C_14  and  C_15
REMARK    5  A    between atoms: C_20  and  O_21
REMARK    6  A    between atoms: O_21  and  C_22
REMARK                            x       y       z     vdW  Elec       q    Type
REMARK                         _______ _______ _______ _____ _____    ______ ____
ROOT
ATOM      1  C   UNL     1       2.012   6.448  20.089  0.00  0.00    +0.000 C 
ATOM      2  C   UNL     1       2.547   6.681  18.680  0.00  0.00    +0.000 C 
ATOM      3  C   UNL     1       2.961   5.288  18.388  0.00  0.00    +0.000 A 
ATOM      4  C   UNL     1       4.111   4.728  17.807  0.00  0.00    +0.000 A 
ATOM      5  C   UNL     1       4.026   3.361  17.541  0.00  0.00    +0.000 A 
ATOM      6  C   UNL     1       2.974   2.634  18.115  0.00  0.00    +0.000 A 
ATOM      7  N   UNL     1       2.021   3.149  18.941  0.00  0.00    +0.000 NA
ATOM      8  C   UNL     1       2.043   4.477  19.035  0.00  0.00    +0.000 A 
ATOM      9  O   UNL     1       1.285   5.197  19.997  0.00  0.00    +0.000 OA
ENDROOT
BRANCH   4  10
ATOM     10  C   UNL     1       5.428   5.437  17.890  0.00  0.00    +0.000 A 
ATOM     11  C   UNL     1       6.166   5.151  19.077  0.00  0.00    +0.000 A 
ATOM     12  C   UNL     1       7.395   5.690  19.391  0.00  0.00    +0.000 A 
ATOM     13  C   UNL     1       7.988   6.550  18.498  0.00  0.00    +0.000 A 
ATOM     14  C   UNL     1       7.353   6.819  17.283  0.00  0.00    +0.000 A 
ATOM     15  C   UNL     1       6.122   6.208  16.927  0.00  0.00    +0.000 A 
BRANCH  15  16
ATOM     16  O   UNL     1       5.610   6.377  15.642  0.00  0.00    +0.000 OA
BRANCH  16  17
ATOM     17  C   UNL     1       5.951   5.461  14.649  0.00  0.00    +0.000 A 
ATOM     18  C   UNL     1       5.107   4.433  14.213  0.00  0.00    +0.000 A 
ATOM     19  C   UNL     1       5.538   3.523  13.230  0.00  0.00    +0.000 A 
ATOM     20  C   UNL     1       6.799   3.658  12.651  0.00  0.00    +0.000 A 
ATOM     21  C   UNL     1       7.626   4.712  13.053  0.00  0.00    +0.000 A 
ATOM     22  C   UNL     1       7.201   5.611  14.046  0.00  0.00    +0.000 A 
ENDBRANCH  16  17
ENDBRANCH  15  16
ENDBRANCH   4  10
BRANCH   1  24
ATOM     23  O   UNL     1       0.744   7.827  21.629  0.00  0.00    +0.000 OA
ATOM     24  C   UNL     1       1.379   7.779  20.571  0.00  0.00    +0.000 C 
ATOM     25  N   UNL     1       1.427   8.866  19.730  0.00  0.00    +0.000 N 
ATOM     26  H   UNL     1       1.975   8.817  18.879  0.00  0.00    +0.000 HD
BRANCH  25  27
ATOM     27  C   UNL     1       0.935  10.164  20.189  0.00  0.00    +0.000 C 
BRANCH  27  28
ATOM     28  C   UNL     1      -0.091  10.715  19.237  0.00  0.00    +0.000 A 
ATOM     29  C   UNL     1      -0.877   9.870  18.450  0.00  0.00    +0.000 A 
ATOM     30  C   UNL     1      -1.768  10.431  17.557  0.00  0.00    +0.000 A 
ATOM     31  N   UNL     1      -1.934  11.758  17.383  0.00  0.00    +0.000 NA
ATOM     32  C   UNL     1      -1.171  12.568  18.156  0.00  0.00    +0.000 A 
ATOM     33  C   UNL     1      -0.247  12.101  19.074  0.00  0.00    +0.000 A 
ENDBRANCH  27  28
ENDBRANCH  25  27
ENDBRANCH   1  24
TORSDOF 6
ENDMDL
MODEL 3
REMARK VINA RESULT:      -8.4      3.676      7.572
REMARK  Name = 
REMARK  6 active torsions:
REMARK  status: ('A' for Active; 'I' for Inactive)
REMARK    1  A    between atoms: C_2  and  C_11
REMARK    2  A    between atoms: N_3  and  C_4
REMARK    3  A    between atoms: C_4  and  C_5
REMARK    4  A    between atoms: C_14  and  C_15
REMARK    5  A    between atoms: C_20  and  O_21
REMARK    6  A    between atoms: O_21  and  C_22
REMARK                            x       y       z     vdW  Elec       q    Type
REMARK                         _______ _______ _______ _____ _____    ______ ____
ROOT
ATOM      1  C   UNL     1       7.214   6.659  17.174  0.00  0.00    +0.000 C 
ATOM      2  C   UNL     1       7.050   5.228  17.677  0.00  0.00    +0.000 C 
ATOM      3  C   UNL     1       6.419   4.658  16.462  0.00  0.00    +0.000 A 
ATOM      4  C   UNL     1       5.324   3.802  16.259  0.00  0.00    +0.000 A 
ATOM      5  C   UNL     1       5.170   3.352  14.946  0.00  0.00    +0.000 A 
ATOM      6  C   UNL     1       5.898   3.988  13.932  0.00  0.00    +0.000 A 
ATOM      7  N   UNL     1       6.743   5.041  14.114  0.00  0.00    +0.000 NA
ATOM      8  C   UNL     1       6.986   5.330  15.391  0.00  0.00    +0.000 A 
ATOM      9  O   UNL     1       7.661   6.510  15.803  0.00  0.00    +0.000 OA
ENDROOT
BRANCH   4  10
ATOM     10  C   UNL     1       4.202   3.753  17.248  0.00  0.00    +0.000 A 
ATOM     11  C   UNL     1       3.983   2.460  17.813  0.00  0.00    +0.000 A 
ATOM     12  C   UNL     1       3.003   2.157  18.733  0.00  0.00    +0.000 A 
ATOM     13  C   UNL     1       2.178   3.163  19.177  0.00  0.00    +0.000 A 
ATOM     14  C   UNL     1       2.382   4.467  18.719  0.00  0.00    +0.000 A 
ATOM     15  C   UNL     1       3.437   4.794  17.827  0.00  0.00    +0.000 A 
BRANCH  15  16
ATOM     16  O   UNL     1       3.704   6.128  17.528  0.00  0.00    +0.000 OA
BRANCH  16  17
ATOM     17  C   UNL     1       2.919   7.124  18.105  0.00  0.00    +0.000 A 
ATOM     18  C   UNL     1       2.413   8.224  17.402  0.00  0.00    +0.000 A 
ATOM     19  C   UNL     1       1.657   9.209  18.065  0.00  0.00    +0.000 A 
ATOM     20  C   UNL     1       1.372   9.081  19.423  0.00  0.00    +0.000 A 
ATOM     21  C   UNL     1       1.838   7.960  20.116  0.00  0.00    +0.000 A 
ATOM     22  C   UNL     1       2.606   6.984  19.458  0.00  0.00    +0.000 A 
ENDBRANCH  16  17
ENDBRANCH  15  16
ENDBRANCH   4  10
BRANCH   1  24
ATOM     23  O   UNL     1       8.360   6.889  19.298  0.00  0.00    +0.000 OA
ATOM     24  C   UNL     1       8.001   7.443  18.255  0.00  0.00    +0.000 C 
ATOM     25  N   UNL     1       8.172   8.796  18.084  0.00  0.00    +0.000 N 
ATOM     26  H   UNL     1       7.897   9.230  17.210  0.00  0.00    +0.000 HD
BRANCH  25  27
ATOM     27  C   UNL     1       8.996   9.552  19.026  0.00  0.00    +0.000 C 
BRANCH  27  28
ATOM     28  C   UNL     1       9.472  10.839  18.411  0.00  0.00    +0.000 A 
ATOM     29  C   UNL     1      10.835  11.114  18.270  0.00  0.00    +0.000 A 
ATOM     30  C   UNL     1      11.217  12.332  17.744  0.00  0.00    +0.000 A 
ATOM     31  N   UNL     1      10.356  13.295  17.355  0.00  0.00    +0.000 NA
ATOM     32  C   UNL     1       9.036  13.014  17.491  0.00  0.00    +0.000 A 
ATOM     33  C   UNL     1       8.556  11.826  18.012  0.00  0.00    +0.000 A 
ENDBRANCH  27  28
ENDBRANCH  25  27
ENDBRANCH   1  24
TORSDOF 6
ENDMDL
MODEL 4
REMARK VINA RESULT:      -8.4      0.848      1.030
REMARK  Name = 
REMARK  6 active torsions:
REMARK  status: ('A' for Active; 'I' for Inactive)
REMARK    1  A    between atoms: C_2  and  C_11
REMARK    2  A    between atoms: N_3  and  C_4
REMARK    3  A    between atoms: C_4  and  C_5
REMARK    4  A    between atoms: C_14  and  C_15
REMARK    5  A    between atoms: C_20  and  O_21
REMARK    6  A    between atoms: O_21  and  C_22
REMARK                            x       y       z     vdW  Elec       q    Type
REMARK                         _______ _______ _______ _____ _____    ______ ____
ROOT
ATOM      1  C   UNL     1       2.018   6.442  20.269  0.00  0.00    +0.000 C 
ATOM      2  C   UNL     1       2.389   6.341  18.793  0.00  0.00    +0.000 C 
ATOM      3  C   UNL     1       2.580   4.872  18.733  0.00  0.00    +0.000 A 
ATOM      4  C   UNL     1       3.564   4.053  18.153  0.00  0.00    +0.000 A 
ATOM      5  C   UNL     1       3.272   2.688  18.167  0.00  0.00    +0.000 A 
ATOM      6  C   UNL     1       2.220   2.239  18.977  0.00  0.00    +0.000 A 
ATOM      7  N   UNL     1       1.457   3.028  19.784  0.00  0.00    +0.000 NA
ATOM      8  C   UNL     1       1.659   4.333  19.617  0.00  0.00    +0.000 A 
ATOM      9  O   UNL     1       1.131   5.317  20.496  0.00  0.00    +0.000 OA
ENDROOT
BRANCH   4  10
ATOM     10  C   UNL     1       4.959   4.561  17.960  0.00  0.00    +0.000 A 
ATOM     11  C   UNL     1       5.579   5.023  19.159  0.00  0.00    +0.000 A 
ATOM     12  C   UNL     1       6.851   5.549  19.238  0.00  0.00    +0.000 A 
ATOM     13  C   UNL     1       7.610   5.619  18.094  0.00  0.00    +0.000 A 
ATOM     14  C   UNL     1       7.092   5.119  16.897  0.00  0.00    +0.000 A 
ATOM     15  C   UNL     1       5.810   4.512  16.829  0.00  0.00    +0.000 A 
BRANCH  15  16
ATOM     16  O   UNL     1       5.403   3.881  15.655  0.00  0.00    +0.000 OA
BRANCH  16  17
ATOM     17  C   UNL     1       6.100   4.127  14.475  0.00  0.00    +0.000 A 
ATOM     18  C   UNL     1       7.129   5.071  14.359  0.00  0.00    +0.000 A 
ATOM     19  C   UNL     1       7.761   5.288  13.121  0.00  0.00    +0.000 A 
ATOM     20  C   UNL     1       7.397   4.540  12.003  0.00  0.00    +0.000 A 
ATOM     21  C   UNL     1       6.402   3.565  12.128  0.00  0.00    +0.000 A 
ATOM     22  C   UNL     1       5.759   3.359  13.361  0.00  0.00    +0.000 A 
ENDBRANCH  16  17
ENDBRANCH  15  16
ENDBRANCH   4  10
BRANCH   1  24
ATOM     23  O   UNL     1       1.600   8.351  21.704  0.00  0.00    +0.000 OA
ATOM     24  C   UNL     1       1.627   7.916  20.549  0.00  0.00    +0.000 C 
ATOM     25  N   UNL     1       1.184   8.684  19.498  0.00  0.00    +0.000 N 
ATOM     26  H   UNL     1       1.239   8.320  18.553  0.00  0.00    +0.000 HD
BRANCH  25  27
ATOM     27  C   UNL     1       0.906  10.105  19.700  0.00  0.00    +0.000 C 
BRANCH  27  28
ATOM     28  C   UNL     1      -0.343  10.516  18.971  0.00  0.00    +0.000 A 
ATOM     29  C   UNL     1      -1.166  11.534  19.460  0.00  0.00    +0.000 A 
ATOM     30  C   UNL     1      -2.326  11.837  18.776  0.00  0.00    +0.000 A 
ATOM     31  N   UNL     1      -2.734  11.207  17.655  0.00  0.00    +0.000 NA
ATOM     32  C   UNL     1      -1.925  10.225  17.187  0.00  0.00    +0.000 A 
ATOM     33  C   UNL     1      -0.746   9.846  17.804  0.00  0.00    +0.000 A 
ENDBRANCH  27  28
ENDBRANCH  25  27
ENDBRANCH   1  24
TORSDOF 6
ENDMDL
MODEL 5
REMARK VINA RESULT:      -8.3      1.463      1.991
REMARK  Name = 
REMARK  6 active torsions:
REMARK  status: ('A' for Active; 'I' for Inactive)
REMARK    1  A    between atoms: C_2  and  C_11
REMARK    2  A    between atoms: N_3  and  C_4
REMARK    3  A    between atoms: C_4  and  C_5
REMARK    4  A    between atoms: C_14  and  C_15
REMARK    5  A    between atoms: C_20  and  O_21
REMARK    6  A    between atoms: O_21  and  C_22
REMARK                            x       y       z     vdW  Elec       q    Type
REMARK                         _______ _______ _______ _____ _____    ______ ____
ROOT
ATOM      1  C   UNL     1       2.050   6.624  20.296  0.00  0.00    +0.000 C 
ATOM      2  C   UNL     1       2.567   6.857  18.879  0.00  0.00    +0.000 C 
ATOM      3  C   UNL     1       2.933   5.456  18.565  0.00  0.00    +0.000 A 
ATOM      4  C   UNL     1       4.055   4.867  17.958  0.00  0.00    +0.000 A 
ATOM      5  C   UNL     1       3.924   3.506  17.679  0.00  0.00    +0.000 A 
ATOM      6  C   UNL     1       2.860   2.805  18.264  0.00  0.00    +0.000 A 
ATOM      7  N   UNL     1       1.938   3.340  19.113  0.00  0.00    +0.000 NA
ATOM      8  C   UNL     1       2.002   4.665  19.220  0.00  0.00    +0.000 A 
ATOM      9  O   UNL     1       1.283   5.397  20.203  0.00  0.00    +0.000 OA
ENDROOT
BRANCH   4  10
ATOM     10  C   UNL     1       5.394   5.535  18.025  0.00  0.00    +0.000 A 
ATOM     11  C   UNL     1       6.125   5.247  19.216  0.00  0.00    +0.000 A 
ATOM     12  C   UNL     1       7.372   5.753  19.517  0.00  0.00    +0.000 A 
ATOM     13  C   UNL     1       7.990   6.576  18.607  0.00  0.00    +0.000 A 
ATOM     14  C   UNL     1       7.361   6.843  17.388  0.00  0.00    +0.000 A 
ATOM     15  C   UNL     1       6.110   6.265  17.046  0.00  0.00    +0.000 A 
BRANCH  15  16
ATOM     16  O   UNL     1       5.600   6.426  15.759  0.00  0.00    +0.000 OA
BRANCH  16  17
ATOM     17  C   UNL     1       5.944   5.505  14.773  0.00  0.00    +0.000 A 
ATOM     18  C   UNL     1       7.206   5.442  14.169  0.00  0.00    +0.000 A 
ATOM     19  C   UNL     1       7.465   4.505  13.151  0.00  0.00    +0.000 A 
ATOM     20  C   UNL     1       6.479   3.602  12.759  0.00  0.00    +0.000 A 
ATOM     21  C   UNL     1       5.233   3.633  13.393  0.00  0.00    +0.000 A 
ATOM     22  C   UNL     1       4.969   4.579  14.398  0.00  0.00    +0.000 A 
ENDBRANCH  16  17
ENDBRANCH  15  16
ENDBRANCH   4  10
BRANCH   1  24
ATOM     23  O   UNL     1       1.472   8.242  22.007  0.00  0.00    +0.000 OA
ATOM     24  C   UNL     1       1.466   7.968  20.803  0.00  0.00    +0.000 C 
ATOM     25  N   UNL     1       0.825   8.783  19.900  0.00  0.00    +0.000 N 
ATOM     26  H   UNL     1       0.854   8.556  18.912  0.00  0.00    +0.000 HD
BRANCH  25  27
ATOM     27  C   UNL     1       0.353  10.103  20.316  0.00  0.00    +0.000 C 
BRANCH  27  28
ATOM     28  C   UNL     1       1.171  11.191  19.678  0.00  0.00    +0.000 A 
ATOM     29  C   UNL     1       1.790  11.001  18.440  0.00  0.00    +0.000 A 
ATOM     30  C   UNL     1       2.570  12.016  17.924  0.00  0.00    +0.000 A 
ATOM     31  N   UNL     1       2.788  13.196  18.541  0.00  0.00    +0.000 NA
ATOM     32  C   UNL     1       2.178  13.371  19.739  0.00  0.00    +0.000 A 
ATOM     33  C   UNL     1       1.382  12.412  20.340  0.00  0.00    +0.000 A 
ENDBRANCH  27  28
ENDBRANCH  25  27
ENDBRANCH   1  24
TORSDOF 6
ENDMDL
MODEL 6
REMARK VINA RESULT:      -8.3      4.732     10.589
REMARK  Name = 
REMARK  6 active torsions:
REMARK  status: ('A' for Active; 'I' for Inactive)
REMARK    1  A    between atoms: C_2  and  C_11
REMARK    2  A    between atoms: N_3  and  C_4
REMARK    3  A    between atoms: C_4  and  C_5
REMARK    4  A    between atoms: C_14  and  C_15
REMARK    5  A    between atoms: C_20  and  O_21
REMARK    6  A    between atoms: O_21  and  C_22
REMARK                            x       y       z     vdW  Elec       q    Type
REMARK                         _______ _______ _______ _____ _____    ______ ____
ROOT
ATOM      1  C   UNL     1      -1.568  11.534  22.909  0.00  0.00    +0.000 C 
ATOM      2  C   UNL     1      -1.920  12.013  21.505  0.00  0.00    +0.000 C 
ATOM      3  C   UNL     1      -2.739  13.187  21.891  0.00  0.00    +0.000 A 
ATOM      4  C   UNL     1      -3.973  13.688  21.444  0.00  0.00    +0.000 A 
ATOM      5  C   UNL     1      -4.314  14.943  21.950  0.00  0.00    +0.000 A 
ATOM      6  C   UNL     1      -3.582  15.445  23.035  0.00  0.00    +0.000 A 
ATOM      7  N   UNL     1      -2.563  14.796  23.664  0.00  0.00    +0.000 NA
ATOM      8  C   UNL     1      -2.165  13.684  23.050  0.00  0.00    +0.000 A 
ATOM      9  O   UNL     1      -1.273  12.750  23.642  0.00  0.00    +0.000 OA
ENDROOT
BRANCH   4  10
ATOM     10  C   UNL     1      -4.998  12.770  20.852  0.00  0.00    +0.000 A 
ATOM     11  C   UNL     1      -6.112  12.518  21.707  0.00  0.00    +0.000 A 
ATOM     12  C   UNL     1      -7.175  11.697  21.396  0.00  0.00    +0.000 A 
ATOM     13  C   UNL     1      -7.201  11.085  20.165  0.00  0.00    +0.000 A 
ATOM     14  C   UNL     1      -6.177  11.344  19.251  0.00  0.00    +0.000 A 
ATOM     15  C   UNL     1      -5.119  12.245  19.543  0.00  0.00    +0.000 A 
BRANCH  15  16
ATOM     16  O   UNL     1      -4.213  12.598  18.544  0.00  0.00    +0.000 OA
BRANCH  16  17
ATOM     17  C   UNL     1      -3.684  11.604  17.725  0.00  0.00    +0.000 A 
ATOM     18  C   UNL     1      -2.676  10.718  18.126  0.00  0.00    +0.000 A 
ATOM     19  C   UNL     1      -2.166   9.763  17.227  0.00  0.00    +0.000 A 
ATOM     20  C   UNL     1      -2.685   9.663  15.938  0.00  0.00    +0.000 A 
ATOM     21  C   UNL     1      -3.722  10.516  15.551  0.00  0.00    +0.000 A 
ATOM     22  C   UNL     1      -4.221  11.480  16.443  0.00  0.00    +0.000 A 
ENDBRANCH  16  17
ENDBRANCH  15  16
ENDBRANCH   4  10
BRANCH   1  24
ATOM     23  O   UNL     1       0.107   9.981  23.722  0.00  0.00    +0.000 OA
ATOM     24  C   UNL     1      -0.572  10.355  22.761  0.00  0.00    +0.000 C 
ATOM     25  N   UNL     1      -0.367   9.828  21.508  0.00  0.00    +0.000 N 
ATOM     26  H   UNL     1      -0.953  10.127  20.737  0.00  0.00    +0.000 HD
BRANCH  25  27
ATOM     27  C   UNL     1       0.483   8.650  21.342  0.00  0.00    +0.000 C 
BRANCH  27  28
ATOM     28  C   UNL     1       1.203   8.689  20.023  0.00  0.00    +0.000 A 
ATOM     29  C   UNL     1       1.011   9.741  19.124  0.00  0.00    +0.000 A 
ATOM     30  C   UNL     1       1.659   9.701  17.905  0.00  0.00    +0.000 A 
ATOM     31  N   UNL     1       2.473   8.700  17.510  0.00  0.00    +0.000 NA
ATOM     32  C   UNL     1       2.656   7.688  18.393  0.00  0.00    +0.000 A 
ATOM     33  C   UNL     1       2.047   7.636  19.634  0.00  0.00    +0.000 A 
ENDBRANCH  27  28
ENDBRANCH  25  27
ENDBRANCH   1  24
TORSDOF 6
ENDMDL
MODEL 7
REMARK VINA RESULT:      -8.3      0.931      1.554
REMARK  Name = 
REMARK  6 active torsions:
REMARK  status: ('A' for Active; 'I' for Inactive)
REMARK    1  A    between atoms: C_2  and  C_11
REMARK    2  A    between atoms: N_3  and  C_4
REMARK    3  A    between atoms: C_4  and  C_5
REMARK    4  A    between atoms: C_14  and  C_15
REMARK    5  A    between atoms: C_20  and  O_21
REMARK    6  A    between atoms: O_21  and  C_22
REMARK                            x       y       z     vdW  Elec       q    Type
REMARK                         _______ _______ _______ _____ _____    ______ ____
ROOT
ATOM      1  C   UNL     1       2.050   6.481  20.070  0.00  0.00    +0.000 C 
ATOM      2  C   UNL     1       2.472   6.289  18.616  0.00  0.00    +0.000 C 
ATOM      3  C   UNL     1       2.647   4.817  18.649  0.00  0.00    +0.000 A 
ATOM      4  C   UNL     1       3.640   3.955  18.154  0.00  0.00    +0.000 A 
ATOM      5  C   UNL     1       3.331   2.597  18.238  0.00  0.00    +0.000 A 
ATOM      6  C   UNL     1       2.245   2.207  19.035  0.00  0.00    +0.000 A 
ATOM      7  N   UNL     1       1.465   3.051  19.766  0.00  0.00    +0.000 NA
ATOM      8  C   UNL     1       1.689   4.341  19.530  0.00  0.00    +0.000 A 
ATOM      9  O   UNL     1       1.143   5.381  20.331  0.00  0.00    +0.000 OA
ENDROOT
BRANCH   4  10
ATOM     10  C   UNL     1       5.047   4.436  17.981  0.00  0.00    +0.000 A 
ATOM     11  C   UNL     1       5.626   4.974  19.169  0.00  0.00    +0.000 A 
ATOM     12  C   UNL     1       6.900   5.493  19.262  0.00  0.00    +0.000 A 
ATOM     13  C   UNL     1       7.703   5.478  18.146  0.00  0.00    +0.000 A 
ATOM     14  C   UNL     1       7.225   4.901  16.967  0.00  0.00    +0.000 A 
ATOM     15  C   UNL     1       5.940   4.302  16.890  0.00  0.00    +0.000 A 
BRANCH  15  16
ATOM     16  O   UNL     1       5.571   3.595  15.747  0.00  0.00    +0.000 OA
BRANCH  16  17
ATOM     17  C   UNL     1       6.146   3.933  14.525  0.00  0.00    +0.000 A 
ATOM     18  C   UNL     1       5.816   3.318  13.311  0.00  0.00    +0.000 A 
ATOM     19  C   UNL     1       6.469   3.690  12.121  0.00  0.00    +0.000 A 
ATOM     20  C   UNL     1       7.427   4.702  12.131  0.00  0.00    +0.000 A 
ATOM     21  C   UNL     1       7.725   5.349  13.334  0.00  0.00    +0.000 A 
ATOM     22  C   UNL     1       7.084   4.967  14.525  0.00  0.00    +0.000 A 
ENDBRANCH  16  17
ENDBRANCH  15  16
ENDBRANCH   4  10
BRANCH   1  24
ATOM     23  O   UNL     1       1.395   8.422  21.366  0.00  0.00    +0.000 OA
ATOM     24  C   UNL     1       1.669   7.973  20.249  0.00  0.00    +0.000 C 
ATOM     25  N   UNL     1       1.514   8.746  19.122  0.00  0.00    +0.000 N 
ATOM     26  H   UNL     1       1.770   8.369  18.217  0.00  0.00    +0.000 HD
BRANCH  25  27
ATOM     27  C   UNL     1       1.257  10.179  19.252  0.00  0.00    +0.000 C 
BRANCH  27  28
ATOM     28  C   UNL     1      -0.160  10.507  18.871  0.00  0.00    +0.000 A 
ATOM     29  C   UNL     1      -0.802   9.840  17.824  0.00  0.00    +0.000 A 
ATOM     30  C   UNL     1      -2.086  10.216  17.484  0.00  0.00    +0.000 A 
ATOM     31  N   UNL     1      -2.776  11.201  18.095  0.00  0.00    +0.000 NA
ATOM     32  C   UNL     1      -2.146  11.837  19.113  0.00  0.00    +0.000 A 
ATOM     33  C   UNL     1      -0.859  11.536  19.523  0.00  0.00    +0.000 A 
ENDBRANCH  27  28
ENDBRANCH  25  27
ENDBRANCH   1  24
TORSDOF 6
ENDMDL
MODEL 8
REMARK VINA RESULT:      -8.2      3.537      7.377
REMARK  Name = 
REMARK  6 active torsions:
REMARK  status: ('A' for Active; 'I' for Inactive)
REMARK    1  A    between atoms: C_2  and  C_11
REMARK    2  A    between atoms: N_3  and  C_4
REMARK    3  A    between atoms: C_4  and  C_5
REMARK    4  A    between atoms: C_14  and  C_15
REMARK    5  A    between atoms: C_20  and  O_21
REMARK    6  A    between atoms: O_21  and  C_22
REMARK                            x       y       z     vdW  Elec       q    Type
REMARK                         _______ _______ _______ _____ _____    ______ ____
ROOT
ATOM      1  C   UNL     1       7.207   6.518  17.269  0.00  0.00    +0.000 C 
ATOM      2  C   UNL     1       7.003   5.067  17.692  0.00  0.00    +0.000 C 
ATOM      3  C   UNL     1       6.361   4.582  16.447  0.00  0.00    +0.000 A 
ATOM      4  C   UNL     1       5.245   3.767  16.195  0.00  0.00    +0.000 A 
ATOM      5  C   UNL     1       5.083   3.394  14.859  0.00  0.00    +0.000 A 
ATOM      6  C   UNL     1       5.831   4.066  13.883  0.00  0.00    +0.000 A 
ATOM      7  N   UNL     1       6.703   5.084  14.125  0.00  0.00    +0.000 NA
ATOM      8  C   UNL     1       6.950   5.296  15.415  0.00  0.00    +0.000 A 
ATOM      9  O   UNL     1       7.654   6.433  15.893  0.00  0.00    +0.000 OA
ENDROOT
BRANCH   4  10
ATOM     10  C   UNL     1       4.118   3.694  17.178  0.00  0.00    +0.000 A 
ATOM     11  C   UNL     1       3.890   2.386  17.701  0.00  0.00    +0.000 A 
ATOM     12  C   UNL     1       2.904   2.060  18.608  0.00  0.00    +0.000 A 
ATOM     13  C   UNL     1       2.083   3.056  19.080  0.00  0.00    +0.000 A 
ATOM     14  C   UNL     1       2.296   4.372  18.663  0.00  0.00    +0.000 A 
ATOM     15  C   UNL     1       3.356   4.721  17.785  0.00  0.00    +0.000 A 
BRANCH  15  16
ATOM     16  O   UNL     1       3.631   6.062  17.528  0.00  0.00    +0.000 OA
BRANCH  16  17
ATOM     17  C   UNL     1       2.902   7.045  18.193  0.00  0.00    +0.000 A 
ATOM     18  C   UNL     1       2.555   6.975  19.549  0.00  0.00    +0.000 A 
ATOM     19  C   UNL     1       1.783   7.992  20.141  0.00  0.00    +0.000 A 
ATOM     20  C   UNL     1       1.386   9.100  19.394  0.00  0.00    +0.000 A 
ATOM     21  C   UNL     1       1.770   9.193  18.053  0.00  0.00    +0.000 A 
ATOM     22  C   UNL     1       2.528   8.170  17.457  0.00  0.00    +0.000 A 
ENDBRANCH  16  17
ENDBRANCH  15  16
ENDBRANCH   4  10
BRANCH   1  24
ATOM     23  O   UNL     1       8.279   6.625  19.441  0.00  0.00    +0.000 OA
ATOM     24  C   UNL     1       8.010   7.221  18.394  0.00  0.00    +0.000 C 
ATOM     25  N   UNL     1       8.299   8.558  18.251  0.00  0.00    +0.000 N 
ATOM     26  H   UNL     1       8.096   9.023  17.374  0.00  0.00    +0.000 HD
BRANCH  25  27
ATOM     27  C   UNL     1       9.143   9.231  19.238  0.00  0.00    +0.000 C 
BRANCH  27  28
ATOM     28  C   UNL     1       9.081  10.723  19.068  0.00  0.00    +0.000 A 
ATOM     29  C   UNL     1       8.803  11.300  17.826  0.00  0.00    +0.000 A 
ATOM     30  C   UNL     1       8.808  12.677  17.717  0.00  0.00    +0.000 A 
ATOM     31  N   UNL     1       9.072  13.519  18.737  0.00  0.00    +0.000 NA
ATOM     32  C   UNL     1       9.334  12.947  19.938  0.00  0.00    +0.000 A 
ATOM     33  C   UNL     1       9.358  11.580  20.146  0.00  0.00    +0.000 A 
ENDBRANCH  27  28
ENDBRANCH  25  27
ENDBRANCH   1  24
TORSDOF 6
ENDMDL
MODEL 9
REMARK VINA RESULT:      -8.2      1.941      3.867
REMARK  Name = 
REMARK  6 active torsions:
REMARK  status: ('A' for Active; 'I' for Inactive)
REMARK    1  A    between atoms: C_2  and  C_11
REMARK    2  A    between atoms: N_3  and  C_4
REMARK    3  A    between atoms: C_4  and  C_5
REMARK    4  A    between atoms: C_14  and  C_15
REMARK    5  A    between atoms: C_20  and  O_21
REMARK    6  A    between atoms: O_21  and  C_22
REMARK                            x       y       z     vdW  Elec       q    Type
REMARK                         _______ _______ _______ _____ _____    ______ ____
ROOT
ATOM      1  C   UNL     1       2.903   6.484  18.888  0.00  0.00    +0.000 C 
ATOM      2  C   UNL     1       2.675   5.767  17.562  0.00  0.00    +0.000 C 
ATOM      3  C   UNL     1       3.147   4.423  17.974  0.00  0.00    +0.000 A 
ATOM      4  C   UNL     1       3.978   3.467  17.367  0.00  0.00    +0.000 A 
ATOM      5  C   UNL     1       4.023   2.233  18.018  0.00  0.00    +0.000 A 
ATOM      6  C   UNL     1       3.503   2.144  19.317  0.00  0.00    +0.000 A 
ATOM      7  N   UNL     1       2.965   3.180  20.020  0.00  0.00    +0.000 NA
ATOM      8  C   UNL     1       2.792   4.290  19.307  0.00  0.00    +0.000 A 
ATOM      9  O   UNL     1       2.450   5.539  19.891  0.00  0.00    +0.000 OA
ENDROOT
BRANCH   4  10
ATOM     10  C   UNL     1       5.034   3.886  16.392  0.00  0.00    +0.000 A 
ATOM     11  C   UNL     1       4.689   3.653  15.028  0.00  0.00    +0.000 A 
ATOM     12  C   UNL     1       5.499   3.939  13.949  0.00  0.00    +0.000 A 
ATOM     13  C   UNL     1       6.725   4.517  14.177  0.00  0.00    +0.000 A 
ATOM     14  C   UNL     1       7.098   4.837  15.485  0.00  0.00    +0.000 A 
ATOM     15  C   UNL     1       6.235   4.609  16.589  0.00  0.00    +0.000 A 
BRANCH  15  16
ATOM     16  O   UNL     1       6.580   5.094  17.849  0.00  0.00    +0.000 OA
BRANCH  16  17
ATOM     17  C   UNL     1       7.092   6.383  17.964  0.00  0.00    +0.000 A 
ATOM     18  C   UNL     1       6.608   7.482  17.243  0.00  0.00    +0.000 A 
ATOM     19  C   UNL     1       7.204   8.749  17.387  0.00  0.00    +0.000 A 
ATOM     20  C   UNL     1       8.260   8.933  18.278  0.00  0.00    +0.000 A 
ATOM     21  C   UNL     1       8.714   7.847  19.032  0.00  0.00    +0.000 A 
ATOM     22  C   UNL     1       8.129   6.579  18.878  0.00  0.00    +0.000 A 
ENDBRANCH  16  17
ENDBRANCH  15  16
ENDBRANCH   4  10
BRANCH   1  24
ATOM     23  O   UNL     1       2.618   8.609  17.756  0.00  0.00    +0.000 OA
ATOM     24  C   UNL     1       2.339   7.921  18.742  0.00  0.00    +0.000 C 
ATOM     25  N   UNL     1       1.633   8.454  19.795  0.00  0.00    +0.000 N 
ATOM     26  H   UNL     1       1.389   7.867  20.584  0.00  0.00    +0.000 HD
BRANCH  25  27
ATOM     27  C   UNL     1       0.998   9.764  19.656  0.00  0.00    +0.000 C 
BRANCH  27  28
ATOM     28  C   UNL     1       0.282  10.149  20.921  0.00  0.00    +0.000 A 
ATOM     29  C   UNL     1      -0.334  11.396  21.054  0.00  0.00    +0.000 A 
ATOM     30  C   UNL     1      -0.934  11.716  22.256  0.00  0.00    +0.000 A 
ATOM     31  N   UNL     1      -0.964  10.902  23.331  0.00  0.00    +0.000 NA
ATOM     32  C   UNL     1      -0.368   9.693  23.188  0.00  0.00    +0.000 A 
ATOM     33  C   UNL     1       0.263   9.283  22.027  0.00  0.00    +0.000 A 
ENDBRANCH  27  28
ENDBRANCH  25  27
ENDBRANCH   1  24
TORSDOF 6
ENDMDL
