MODEL 1
REMARK VINA RESULT:      -8.2      0.000      0.000
REMARK  Name = 
REMARK  9 active torsions:
REMARK  status: ('A' for Active; 'I' for Inactive)
REMARK    1  A    between atoms: C_1  and  C_2
REMARK    2  A    between atoms: C_2  and  O_4
REMARK    3  A    between atoms: O_4  and  C_5
REMARK    4  A    between atoms: C_7  and  C_8
REMARK    5  A    between atoms: C_13  and  C_14
REMARK    6  A    between atoms: C_15  and  C_16
REMARK    7  A    between atoms: C_16  and  C_17
REMARK    8  A    between atoms: C_17  and  C_18
REMARK    9  A    between atoms: C_20  and  O_21
REMARK                            x       y       z     vdW  Elec       q    Type
REMARK                         _______ _______ _______ _____ _____    ______ ____
ROOT
ATOM      1  C   UNL     1       2.546   3.726  18.648  0.00  0.00    +0.000 C 
ATOM      2  C   UNL     1       1.449   2.812  19.226  0.00  0.00    +0.000 C 
ATOM      3  C   UNL     1       0.895   3.224  20.599  0.00  0.00    +0.000 C 
ATOM      4  C   UNL     1       1.419   2.342  21.736  0.00  0.00    +0.000 C 
ATOM      5  C   UNL     1       1.110   4.674  20.932  0.00  0.00    +0.000 C 
ATOM      6  C   UNL     1       1.659   5.581  20.104  0.00  0.00    +0.000 C 
ATOM      7  C   UNL     1       1.825   6.938  20.575  0.00  0.00    +0.000 C 
ATOM      8  C   UNL     1       2.336   7.911  19.813  0.00  0.00    +0.000 C 
ATOM      9  C   UNL     1       2.814   7.688  18.408  0.00  0.00    +0.000 C 
ATOM     10  C   UNL     1       1.740   8.202  17.443  0.00  0.00    +0.000 C 
ATOM     11  C   UNL     1       3.240   6.204  18.174  0.00  0.00    +0.000 C 
ATOM     12  C   UNL     1       2.124   5.222  18.691  0.00  0.00    +0.000 C 
ENDROOT
BRANCH   1  13
ATOM     13  O   UNL     1       3.799   3.592  19.352  0.00  0.00    +0.000 OA
BRANCH  13  15
ATOM     14  C   UNL     1       3.922   1.520  18.287  0.00  0.00    +0.000 C 
ATOM     15  C   UNL     1       4.299   2.337  19.487  0.00  0.00    +0.000 C 
ATOM     16  O   UNL     1       4.890   1.904  20.463  0.00  0.00    +0.000 OA
ENDBRANCH  13  15
ENDBRANCH   1  13
BRANCH  11  17
ATOM     17  C   UNL     1       3.673   5.949  16.699  0.00  0.00    +0.000 C 
BRANCH  17  18
ATOM     18  C   UNL     1       4.884   6.812  16.279  0.00  0.00    +0.000 C 
BRANCH  18  19
ATOM     19  C   UNL     1       6.254   6.217  16.645  0.00  0.00    +0.000 C 
ATOM     20  C   UNL     1       6.073   5.019  17.571  0.00  0.00    +0.000 C 
ATOM     21  C   UNL     1       7.391   4.644  18.213  0.00  0.00    +0.000 C 
ATOM     22  C   UNL     1       7.943   5.811  19.001  0.00  0.00    +0.000 C 
ATOM     23  C   UNL     1       7.910   7.119  18.265  0.00  0.00    +0.000 C 
ATOM     24  O   UNL     1       8.605   8.064  18.632  0.00  0.00    +0.000 OA
ATOM     25  O   UNL     1       7.046   7.268  17.242  0.00  0.00    +0.000 OA
BRANCH  21  26
ATOM     26  O   UNL     1       8.317   4.172  17.239  0.00  0.00    +0.000 OA
ATOM     27  H   UNL     1       8.918   3.518  17.636  0.00  0.00    +0.000 HD
ENDBRANCH  21  26
ENDBRANCH  18  19
ENDBRANCH  17  18
ENDBRANCH  11  17
TORSDOF 6
ENDMDL
MODEL 2
REMARK VINA RESULT:      -8.0      1.164      1.682
REMARK  Name = 
REMARK  9 active torsions:
REMARK  status: ('A' for Active; 'I' for Inactive)
REMARK    1  A    between atoms: C_1  and  C_2
REMARK    2  A    between atoms: C_2  and  O_4
REMARK    3  A    between atoms: O_4  and  C_5
REMARK    4  A    between atoms: C_7  and  C_8
REMARK    5  A    between atoms: C_13  and  C_14
REMARK    6  A    between atoms: C_15  and  C_16
REMARK    7  A    between atoms: C_16  and  C_17
REMARK    8  A    between atoms: C_17  and  C_18
REMARK    9  A    between atoms: C_20  and  O_21
REMARK                            x       y       z     vdW  Elec       q    Type
REMARK                         _______ _______ _______ _____ _____    ______ ____
ROOT
ATOM      1  C   UNL     1       2.630   4.236  18.537  0.00  0.00    +0.000 C 
ATOM      2  C   UNL     1       1.605   3.140  18.881  0.00  0.00    +0.000 C 
ATOM      3  C   UNL     1       0.902   3.291  20.240  0.00  0.00    +0.000 C 
ATOM      4  C   UNL     1       1.435   2.312  21.291  0.00  0.00    +0.000 C 
ATOM      5  C   UNL     1       0.923   4.692  20.785  0.00  0.00    +0.000 C 
ATOM      6  C   UNL     1       1.427   5.760  20.142  0.00  0.00    +0.000 C 
ATOM      7  C   UNL     1       1.399   7.044  20.805  0.00  0.00    +0.000 C 
ATOM      8  C   UNL     1       1.853   8.164  20.232  0.00  0.00    +0.000 C 
ATOM      9  C   UNL     1       2.460   8.198  18.860  0.00  0.00    +0.000 C 
ATOM     10  C   UNL     1       1.413   8.732  17.878  0.00  0.00    +0.000 C 
ATOM     11  C   UNL     1       3.070   6.814  18.468  0.00  0.00    +0.000 C 
ATOM     12  C   UNL     1       2.038   5.658  18.743  0.00  0.00    +0.000 C 
ENDROOT
BRANCH   1  13
ATOM     13  O   UNL     1       3.832   4.131  19.329  0.00  0.00    +0.000 OA
BRANCH  13  15
ATOM     14  C   UNL     1       4.429   2.417  17.863  0.00  0.00    +0.000 C 
ATOM     15  C   UNL     1       4.518   2.960  19.258  0.00  0.00    +0.000 C 
ATOM     16  O   UNL     1       5.054   2.388  20.193  0.00  0.00    +0.000 OA
ENDBRANCH  13  15
ENDBRANCH   1  13
BRANCH  11  17
ATOM     17  C   UNL     1       3.643   6.821  17.019  0.00  0.00    +0.000 C 
BRANCH  17  18
ATOM     18  C   UNL     1       4.992   7.568  16.918  0.00  0.00    +0.000 C 
BRANCH  18  19
ATOM     19  C   UNL     1       6.130   6.753  16.281  0.00  0.00    +0.000 C 
ATOM     20  C   UNL     1       5.570   5.815  15.217  0.00  0.00    +0.000 C 
ATOM     21  C   UNL     1       6.600   4.774  14.836  0.00  0.00    +0.000 C 
ATOM     22  C   UNL     1       7.011   3.971  16.050  0.00  0.00    +0.000 C 
ATOM     23  C   UNL     1       7.324   4.803  17.260  0.00  0.00    +0.000 C 
ATOM     24  O   UNL     1       7.971   4.335  18.194  0.00  0.00    +0.000 OA
ATOM     25  O   UNL     1       6.814   6.048  17.342  0.00  0.00    +0.000 OA
BRANCH  21  26
ATOM     26  O   UNL     1       7.719   5.376  14.191  0.00  0.00    +0.000 OA
ATOM     27  H   UNL     1       8.118   4.752  13.560  0.00  0.00    +0.000 HD
ENDBRANCH  21  26
ENDBRANCH  18  19
ENDBRANCH  17  18
ENDBRANCH  11  17
TORSDOF 6
ENDMDL
MODEL 3
REMARK VINA RESULT:      -7.9      2.938      6.541
REMARK  Name = 
REMARK  9 active torsions:
REMARK  status: ('A' for Active; 'I' for Inactive)
REMARK    1  A    between atoms: C_1  and  C_2
REMARK    2  A    between atoms: C_2  and  O_4
REMARK    3  A    between atoms: O_4  and  C_5
REMARK    4  A    between atoms: C_7  and  C_8
REMARK    5  A    between atoms: C_13  and  C_14
REMARK    6  A    between atoms: C_15  and  C_16
REMARK    7  A    between atoms: C_16  and  C_17
REMARK    8  A    between atoms: C_17  and  C_18
REMARK    9  A    between atoms: C_20  and  O_21
REMARK                            x       y       z     vdW  Elec       q    Type
REMARK                         _______ _______ _______ _____ _____    ______ ____
ROOT
ATOM      1  C   UNL     1       4.650   6.224  16.915  0.00  0.00    +0.000 C 
ATOM      2  C   UNL     1       5.266   6.051  15.515  0.00  0.00    +0.000 C 
ATOM      3  C   UNL     1       5.888   4.675  15.229  0.00  0.00    +0.000 C 
ATOM      4  C   UNL     1       7.420   4.701  15.265  0.00  0.00    +0.000 C 
ATOM      5  C   UNL     1       5.371   3.576  16.115  0.00  0.00    +0.000 C 
ATOM      6  C   UNL     1       4.398   3.720  17.031  0.00  0.00    +0.000 C 
ATOM      7  C   UNL     1       4.024   2.574  17.830  0.00  0.00    +0.000 C 
ATOM      8  C   UNL     1       3.050   2.618  18.745  0.00  0.00    +0.000 C 
ATOM      9  C   UNL     1       2.269   3.862  19.056  0.00  0.00    +0.000 C 
ATOM     10  C   UNL     1       0.907   3.766  18.361  0.00  0.00    +0.000 C 
ATOM     11  C   UNL     1       3.083   5.151  18.715  0.00  0.00    +0.000 C 
ATOM     12  C   UNL     1       3.687   5.055  17.266  0.00  0.00    +0.000 C 
ENDROOT
BRANCH   1  13
ATOM     13  O   UNL     1       5.652   6.305  17.951  0.00  0.00    +0.000 OA
BRANCH  13  15
ATOM     14  C   UNL     1       7.912   6.554  18.471  0.00  0.00    +0.000 C 
ATOM     15  C   UNL     1       6.741   7.077  17.695  0.00  0.00    +0.000 C 
ATOM     16  O   UNL     1       6.756   8.088  17.011  0.00  0.00    +0.000 OA
ENDBRANCH  13  15
ENDBRANCH   1  13
BRANCH  11  17
ATOM     17  C   UNL     1       2.254   6.446  18.971  0.00  0.00    +0.000 C 
BRANCH  17  18
ATOM     18  C   UNL     1       1.867   6.617  20.457  0.00  0.00    +0.000 C 
BRANCH  18  19
ATOM     19  C   UNL     1       1.542   8.062  20.872  0.00  0.00    +0.000 C 
ATOM     20  C   UNL     1       0.202   8.109  21.597  0.00  0.00    +0.000 C 
ATOM     21  C   UNL     1      -0.293   9.536  21.699  0.00  0.00    +0.000 C 
ATOM     22  C   UNL     1      -0.444  10.139  20.321  0.00  0.00    +0.000 C 
ATOM     23  C   UNL     1       0.732   9.907  19.416  0.00  0.00    +0.000 C 
ATOM     24  O   UNL     1       0.898  10.596  18.412  0.00  0.00    +0.000 OA
ATOM     25  O   UNL     1       1.561   8.878  19.679  0.00  0.00    +0.000 OA
BRANCH  21  26
ATOM     26  O   UNL     1       0.561  10.314  22.532  0.00  0.00    +0.000 OA
ATOM     27  H   UNL     1       1.139   9.733  23.056  0.00  0.00    +0.000 HD
ENDBRANCH  21  26
ENDBRANCH  18  19
ENDBRANCH  17  18
ENDBRANCH  11  17
TORSDOF 6
ENDMDL
MODEL 4
REMARK VINA RESULT:      -7.8      3.109      6.530
REMARK  Name = 
REMARK  9 active torsions:
REMARK  status: ('A' for Active; 'I' for Inactive)
REMARK    1  A    between atoms: C_1  and  C_2
REMARK    2  A    between atoms: C_2  and  O_4
REMARK    3  A    between atoms: O_4  and  C_5
REMARK    4  A    between atoms: C_7  and  C_8
REMARK    5  A    between atoms: C_13  and  C_14
REMARK    6  A    between atoms: C_15  and  C_16
REMARK    7  A    between atoms: C_16  and  C_17
REMARK    8  A    between atoms: C_17  and  C_18
REMARK    9  A    between atoms: C_20  and  O_21
REMARK                            x       y       z     vdW  Elec       q    Type
REMARK                         _______ _______ _______ _____ _____    ______ ____
ROOT
ATOM      1  C   UNL     1       4.797   6.381  17.107  0.00  0.00    +0.000 C 
ATOM      2  C   UNL     1       5.183   6.309  15.619  0.00  0.00    +0.000 C 
ATOM      3  C   UNL     1       5.604   4.922  15.108  0.00  0.00    +0.000 C 
ATOM      4  C   UNL     1       7.119   4.801  14.910  0.00  0.00    +0.000 C 
ATOM      5  C   UNL     1       5.103   3.784  15.952  0.00  0.00    +0.000 C 
ATOM      6  C   UNL     1       4.293   3.914  17.017  0.00  0.00    +0.000 C 
ATOM      7  C   UNL     1       3.914   2.726  17.750  0.00  0.00    +0.000 C 
ATOM      8  C   UNL     1       3.092   2.758  18.804  0.00  0.00    +0.000 C 
ATOM      9  C   UNL     1       2.505   4.026  19.350  0.00  0.00    +0.000 C 
ATOM     10  C   UNL     1       1.054   4.137  18.867  0.00  0.00    +0.000 C 
ATOM     11  C   UNL     1       3.396   5.264  19.015  0.00  0.00    +0.000 C 
ATOM     12  C   UNL     1       3.772   5.275  17.486  0.00  0.00    +0.000 C 
ENDROOT
BRANCH   1  13
ATOM     13  O   UNL     1       5.940   6.252  17.978  0.00  0.00    +0.000 OA
BRANCH  13  15
ATOM     14  C   UNL     1       8.131   6.708  18.637  0.00  0.00    +0.000 C 
ATOM     15  C   UNL     1       6.978   7.102  17.764  0.00  0.00    +0.000 C 
ATOM     16  O   UNL     1       6.959   8.084  17.039  0.00  0.00    +0.000 OA
ENDBRANCH  13  15
ENDBRANCH   1  13
BRANCH  11  17
ATOM     17  C   UNL     1       2.759   6.594  19.519  0.00  0.00    +0.000 C 
BRANCH  17  18
ATOM     18  C   UNL     1       2.264   7.490  18.362  0.00  0.00    +0.000 C 
BRANCH  18  19
ATOM     19  C   UNL     1       1.742   8.869  18.798  0.00  0.00    +0.000 C 
ATOM     20  C   UNL     1       1.259   8.813  20.243  0.00  0.00    +0.000 C 
ATOM     21  C   UNL     1       0.433  10.038  20.571  0.00  0.00    +0.000 C 
ATOM     22  C   UNL     1      -0.758  10.132  19.645  0.00  0.00    +0.000 C 
ATOM     23  C   UNL     1      -0.428   9.923  18.195  0.00  0.00    +0.000 C 
ATOM     24  O   UNL     1      -1.205  10.287  17.315  0.00  0.00    +0.000 OA
ATOM     25  O   UNL     1       0.699   9.256  17.875  0.00  0.00    +0.000 OA
BRANCH  21  26
ATOM     26  O   UNL     1       1.232  11.217  20.535  0.00  0.00    +0.000 OA
ATOM     27  H   UNL     1       0.698  11.975  20.240  0.00  0.00    +0.000 HD
ENDBRANCH  21  26
ENDBRANCH  18  19
ENDBRANCH  17  18
ENDBRANCH  11  17
TORSDOF 6
ENDMDL
MODEL 5
REMARK VINA RESULT:      -7.8      2.936      6.384
REMARK  Name = 
REMARK  9 active torsions:
REMARK  status: ('A' for Active; 'I' for Inactive)
REMARK    1  A    between atoms: C_1  and  C_2
REMARK    2  A    between atoms: C_2  and  O_4
REMARK    3  A    between atoms: O_4  and  C_5
REMARK    4  A    between atoms: C_7  and  C_8
REMARK    5  A    between atoms: C_13  and  C_14
REMARK    6  A    between atoms: C_15  and  C_16
REMARK    7  A    between atoms: C_16  and  C_17
REMARK    8  A    between atoms: C_17  and  C_18
REMARK    9  A    between atoms: C_20  and  O_21
REMARK                            x       y       z     vdW  Elec       q    Type
REMARK                         _______ _______ _______ _____ _____    ______ ____
ROOT
ATOM      1  C   UNL     1       4.866   6.277  17.171  0.00  0.00    +0.000 C 
ATOM      2  C   UNL     1       5.189   6.270  15.665  0.00  0.00    +0.000 C 
ATOM      3  C   UNL     1       5.551   4.899  15.070  0.00  0.00    +0.000 C 
ATOM      4  C   UNL     1       7.052   4.749  14.803  0.00  0.00    +0.000 C 
ATOM      5  C   UNL     1       5.053   3.733  15.878  0.00  0.00    +0.000 C 
ATOM      6  C   UNL     1       4.291   3.831  16.981  0.00  0.00    +0.000 C 
ATOM      7  C   UNL     1       3.909   2.618  17.669  0.00  0.00    +0.000 C 
ATOM      8  C   UNL     1       3.131   2.618  18.757  0.00  0.00    +0.000 C 
ATOM      9  C   UNL     1       2.602   3.872  19.390  0.00  0.00    +0.000 C 
ATOM     10  C   UNL     1       1.137   4.044  18.974  0.00  0.00    +0.000 C 
ATOM     11  C   UNL     1       3.513   5.102  19.078  0.00  0.00    +0.000 C 
ATOM     12  C   UNL     1       3.828   5.180  17.538  0.00  0.00    +0.000 C 
ENDROOT
BRANCH   1  13
ATOM     13  O   UNL     1       6.039   6.075  17.986  0.00  0.00    +0.000 OA
BRANCH  13  15
ATOM     14  C   UNL     1       8.165   6.617  18.780  0.00  0.00    +0.000 C 
ATOM     15  C   UNL     1       7.066   6.948  17.815  0.00  0.00    +0.000 C 
ATOM     16  O   UNL     1       7.072   7.906  17.058  0.00  0.00    +0.000 OA
ENDBRANCH  13  15
ENDBRANCH   1  13
BRANCH  11  17
ATOM     17  C   UNL     1       2.935   6.420  19.673  0.00  0.00    +0.000 C 
BRANCH  17  18
ATOM     18  C   UNL     1       2.540   7.440  18.581  0.00  0.00    +0.000 C 
BRANCH  18  19
ATOM     19  C   UNL     1       1.361   8.355  18.955  0.00  0.00    +0.000 C 
ATOM     20  C   UNL     1       1.430   9.650  18.153  0.00  0.00    +0.000 C 
ATOM     21  C   UNL     1       0.503  10.689  18.747  0.00  0.00    +0.000 C 
ATOM     22  C   UNL     1       0.878  10.966  20.185  0.00  0.00    +0.000 C 
ATOM     23  C   UNL     1       1.109   9.732  21.010  0.00  0.00    +0.000 C 
ATOM     24  O   UNL     1       1.095   9.785  22.237  0.00  0.00    +0.000 OA
ATOM     25  O   UNL     1       1.413   8.579  20.382  0.00  0.00    +0.000 OA
BRANCH  21  26
ATOM     26  O   UNL     1      -0.859  10.291  18.618  0.00  0.00    +0.000 OA
ATOM     27  H   UNL     1      -1.412  11.059  18.393  0.00  0.00    +0.000 HD
ENDBRANCH  21  26
ENDBRANCH  18  19
ENDBRANCH  17  18
ENDBRANCH  11  17
TORSDOF 6
ENDMDL
MODEL 6
REMARK VINA RESULT:      -7.5      2.628      6.009
REMARK  Name = 
REMARK  9 active torsions:
REMARK  status: ('A' for Active; 'I' for Inactive)
REMARK    1  A    between atoms: C_1  and  C_2
REMARK    2  A    between atoms: C_2  and  O_4
REMARK    3  A    between atoms: O_4  and  C_5
REMARK    4  A    between atoms: C_7  and  C_8
REMARK    5  A    between atoms: C_13  and  C_14
REMARK    6  A    between atoms: C_15  and  C_16
REMARK    7  A    between atoms: C_16  and  C_17
REMARK    8  A    between atoms: C_17  and  C_18
REMARK    9  A    between atoms: C_20  and  O_21
REMARK                            x       y       z     vdW  Elec       q    Type
REMARK                         _______ _______ _______ _____ _____    ______ ____
ROOT
ATOM      1  C   UNL     1       5.039   5.553  17.926  0.00  0.00    +0.000 C 
ATOM      2  C   UNL     1       5.306   5.999  16.476  0.00  0.00    +0.000 C 
ATOM      3  C   UNL     1       5.358   4.871  15.433  0.00  0.00    +0.000 C 
ATOM      4  C   UNL     1       6.787   4.548  14.984  0.00  0.00    +0.000 C 
ATOM      5  C   UNL     1       4.657   3.612  15.862  0.00  0.00    +0.000 C 
ATOM      6  C   UNL     1       3.968   3.466  17.007  0.00  0.00    +0.000 C 
ATOM      7  C   UNL     1       3.367   2.183  17.296  0.00  0.00    +0.000 C 
ATOM      8  C   UNL     1       2.641   1.956  18.396  0.00  0.00    +0.000 C 
ATOM      9  C   UNL     1       2.402   2.995  19.453  0.00  0.00    +0.000 C 
ATOM     10  C   UNL     1       0.991   3.563  19.264  0.00  0.00    +0.000 C 
ATOM     11  C   UNL     1       3.536   4.069  19.470  0.00  0.00    +0.000 C 
ATOM     12  C   UNL     1       3.810   4.606  18.016  0.00  0.00    +0.000 C 
ENDROOT
BRANCH   1  13
ATOM     13  O   UNL     1       6.172   4.876  18.509  0.00  0.00    +0.000 OA
BRANCH  13  15
ATOM     14  C   UNL     1       7.628   6.678  18.239  0.00  0.00    +0.000 C 
ATOM     15  C   UNL     1       7.075   5.644  19.173  0.00  0.00    +0.000 C 
ATOM     16  O   UNL     1       7.447   5.476  20.323  0.00  0.00    +0.000 OA
ENDBRANCH  13  15
ENDBRANCH   1  13
BRANCH  11  17
ATOM     17  C   UNL     1       3.261   5.189  20.518  0.00  0.00    +0.000 C 
BRANCH  17  18
ATOM     18  C   UNL     1       1.909   5.900  20.283  0.00  0.00    +0.000 C 
BRANCH  18  19
ATOM     19  C   UNL     1       1.959   7.431  20.416  0.00  0.00    +0.000 C 
ATOM     20  C   UNL     1       0.671   7.943  21.050  0.00  0.00    +0.000 C 
ATOM     21  C   UNL     1       0.552   9.441  20.869  0.00  0.00    +0.000 C 
ATOM     22  C   UNL     1       0.566   9.796  19.400  0.00  0.00    +0.000 C 
ATOM     23  C   UNL     1       1.649   9.116  18.613  0.00  0.00    +0.000 C 
ATOM     24  O   UNL     1       1.988   9.542  17.512  0.00  0.00    +0.000 OA
ATOM     25  O   UNL     1       2.189   7.980  19.099  0.00  0.00    +0.000 OA
BRANCH  21  26
ATOM     26  O   UNL     1       1.571  10.125  21.593  0.00  0.00    +0.000 OA
ATOM     27  H   UNL     1       1.396  10.073  22.549  0.00  0.00    +0.000 HD
ENDBRANCH  21  26
ENDBRANCH  18  19
ENDBRANCH  17  18
ENDBRANCH  11  17
TORSDOF 6
ENDMDL
MODEL 7
REMARK VINA RESULT:      -7.5      2.763      3.648
REMARK  Name = 
REMARK  9 active torsions:
REMARK  status: ('A' for Active; 'I' for Inactive)
REMARK    1  A    between atoms: C_1  and  C_2
REMARK    2  A    between atoms: C_2  and  O_4
REMARK    3  A    between atoms: O_4  and  C_5
REMARK    4  A    between atoms: C_7  and  C_8
REMARK    5  A    between atoms: C_13  and  C_14
REMARK    6  A    between atoms: C_15  and  C_16
REMARK    7  A    between atoms: C_16  and  C_17
REMARK    8  A    between atoms: C_17  and  C_18
REMARK    9  A    between atoms: C_20  and  O_21
REMARK                            x       y       z     vdW  Elec       q    Type
REMARK                         _______ _______ _______ _____ _____    ______ ____
ROOT
ATOM      1  C   UNL     1       3.965   3.197  18.036  0.00  0.00    +0.000 C 
ATOM      2  C   UNL     1       2.693   2.353  17.836  0.00  0.00    +0.000 C 
ATOM      3  C   UNL     1       1.374   3.037  18.228  0.00  0.00    +0.000 C 
ATOM      4  C   UNL     1       0.812   2.518  19.556  0.00  0.00    +0.000 C 
ATOM      5  C   UNL     1       1.449   4.538  18.253  0.00  0.00    +0.000 C 
ATOM      6  C   UNL     1       2.526   5.260  17.897  0.00  0.00    +0.000 C 
ATOM      7  C   UNL     1       2.459   6.701  17.999  0.00  0.00    +0.000 C 
ATOM      8  C   UNL     1       3.470   7.500  17.641  0.00  0.00    +0.000 C 
ATOM      9  C   UNL     1       4.783   6.984  17.128  0.00  0.00    +0.000 C 
ATOM     10  C   UNL     1       4.801   7.137  15.603  0.00  0.00    +0.000 C 
ATOM     11  C   UNL     1       5.070   5.536  17.638  0.00  0.00    +0.000 C 
ATOM     12  C   UNL     1       3.820   4.609  17.402  0.00  0.00    +0.000 C 
ENDROOT
BRANCH   1  13
ATOM     13  O   UNL     1       4.302   3.363  19.429  0.00  0.00    +0.000 OA
BRANCH  13  15
ATOM     14  C   UNL     1       3.404   2.337  21.322  0.00  0.00    +0.000 C 
ATOM     15  C   UNL     1       4.375   2.236  20.184  0.00  0.00    +0.000 C 
ATOM     16  O   UNL     1       5.161   1.317  20.021  0.00  0.00    +0.000 OA
ENDBRANCH  13  15
ENDBRANCH   1  13
BRANCH  11  17
ATOM     17  C   UNL     1       6.398   4.967  17.055  0.00  0.00    +0.000 C 
BRANCH  17  18
ATOM     18  C   UNL     1       6.162   3.787  16.085  0.00  0.00    +0.000 C 
BRANCH  18  19
ATOM     19  C   UNL     1       5.933   4.197  14.620  0.00  0.00    +0.000 C 
ATOM     20  C   UNL     1       5.864   2.958  13.735  0.00  0.00    +0.000 C 
ATOM     21  C   UNL     1       5.991   3.342  12.277  0.00  0.00    +0.000 C 
ATOM     22  C   UNL     1       7.300   4.061  12.036  0.00  0.00    +0.000 C 
ATOM     23  C   UNL     1       7.602   5.139  13.037  0.00  0.00    +0.000 C 
ATOM     24  O   UNL     1       8.437   6.007  12.792  0.00  0.00    +0.000 OA
ATOM     25  O   UNL     1       7.002   5.093  14.242  0.00  0.00    +0.000 OA
BRANCH  21  26
ATOM     26  O   UNL     1       4.872   4.115  11.853  0.00  0.00    +0.000 OA
ATOM     27  H   UNL     1       4.453   4.546  12.618  0.00  0.00    +0.000 HD
ENDBRANCH  21  26
ENDBRANCH  18  19
ENDBRANCH  17  18
ENDBRANCH  11  17
TORSDOF 6
ENDMDL
MODEL 8
REMARK VINA RESULT:      -7.5      3.112      6.698
REMARK  Name = 
REMARK  9 active torsions:
REMARK  status: ('A' for Active; 'I' for Inactive)
REMARK    1  A    between atoms: C_1  and  C_2
REMARK    2  A    between atoms: C_2  and  O_4
REMARK    3  A    between atoms: O_4  and  C_5
REMARK    4  A    between atoms: C_7  and  C_8
REMARK    5  A    between atoms: C_13  and  C_14
REMARK    6  A    between atoms: C_15  and  C_16
REMARK    7  A    between atoms: C_16  and  C_17
REMARK    8  A    between atoms: C_17  and  C_18
REMARK    9  A    between atoms: C_20  and  O_21
REMARK                            x       y       z     vdW  Elec       q    Type
REMARK                         _______ _______ _______ _____ _____    ______ ____
ROOT
ATOM      1  C   UNL     1       4.828   6.383  16.914  0.00  0.00    +0.000 C 
ATOM      2  C   UNL     1       5.338   6.120  15.485  0.00  0.00    +0.000 C 
ATOM      3  C   UNL     1       5.834   4.691  15.208  0.00  0.00    +0.000 C 
ATOM      4  C   UNL     1       7.362   4.598  15.149  0.00  0.00    +0.000 C 
ATOM      5  C   UNL     1       5.292   3.663  16.162  0.00  0.00    +0.000 C 
ATOM      6  C   UNL     1       4.394   3.910  17.132  0.00  0.00    +0.000 C 
ATOM      7  C   UNL     1       3.986   2.822  17.992  0.00  0.00    +0.000 C 
ATOM      8  C   UNL     1       3.079   2.970  18.964  0.00  0.00    +0.000 C 
ATOM      9  C   UNL     1       2.418   4.280  19.279  0.00  0.00    +0.000 C 
ATOM     10  C   UNL     1       1.010   4.271  18.673  0.00  0.00    +0.000 C 
ATOM     11  C   UNL     1       3.303   5.490  18.844  0.00  0.00    +0.000 C 
ATOM     12  C   UNL     1       3.804   5.303  17.363  0.00  0.00    +0.000 C 
ENDROOT
BRANCH   1  13
ATOM     13  O   UNL     1       5.899   6.416  17.881  0.00  0.00    +0.000 OA
BRANCH  13  15
ATOM     14  C   UNL     1       8.110   6.860  18.476  0.00  0.00    +0.000 C 
ATOM     15  C   UNL     1       6.943   7.243  17.617  0.00  0.00    +0.000 C 
ATOM     16  O   UNL     1       6.921   8.204  16.863  0.00  0.00    +0.000 OA
ENDBRANCH  13  15
ENDBRANCH   1  13
BRANCH  11  17
ATOM     17  C   UNL     1       2.595   6.853  19.105  0.00  0.00    +0.000 C 
BRANCH  17  18
ATOM     18  C   UNL     1       1.922   6.914  20.494  0.00  0.00    +0.000 C 
BRANCH  18  19
ATOM     19  C   UNL     1       0.843   8.001  20.637  0.00  0.00    +0.000 C 
ATOM     20  C   UNL     1       1.185   9.196  19.755  0.00  0.00    +0.000 C 
ATOM     21  C   UNL     1       0.345  10.395  20.140  0.00  0.00    +0.000 C 
ATOM     22  C   UNL     1       0.577  10.755  21.590  0.00  0.00    +0.000 C 
ATOM     23  C   UNL     1       0.534   9.584  22.529  0.00  0.00    +0.000 C 
ATOM     24  O   UNL     1       0.378   9.753  23.736  0.00  0.00    +0.000 OA
ATOM     25  O   UNL     1       0.751   8.349  22.037  0.00  0.00    +0.000 OA
BRANCH  21  26
ATOM     26  O   UNL     1      -1.033  10.162  19.862  0.00  0.00    +0.000 OA
ATOM     27  H   UNL     1      -1.567  10.920  20.158  0.00  0.00    +0.000 HD
ENDBRANCH  21  26
ENDBRANCH  18  19
ENDBRANCH  17  18
ENDBRANCH  11  17
TORSDOF 6
ENDMDL
MODEL 9
REMARK VINA RESULT:      -7.3      1.524      2.131
REMARK  Name = 
REMARK  9 active torsions:
REMARK  status: ('A' for Active; 'I' for Inactive)
REMARK    1  A    between atoms: C_1  and  C_2
REMARK    2  A    between atoms: C_2  and  O_4
REMARK    3  A    between atoms: O_4  and  C_5
REMARK    4  A    between atoms: C_7  and  C_8
REMARK    5  A    between atoms: C_13  and  C_14
REMARK    6  A    between atoms: C_15  and  C_16
REMARK    7  A    between atoms: C_16  and  C_17
REMARK    8  A    between atoms: C_17  and  C_18
REMARK    9  A    between atoms: C_20  and  O_21
REMARK                            x       y       z     vdW  Elec       q    Type
REMARK                         _______ _______ _______ _____ _____    ______ ____
ROOT
ATOM      1  C   UNL     1       2.399   4.677  18.422  0.00  0.00    +0.000 C 
ATOM      2  C   UNL     1       1.469   3.506  18.788  0.00  0.00    +0.000 C 
ATOM      3  C   UNL     1       0.931   3.509  20.228  0.00  0.00    +0.000 C 
ATOM      4  C   UNL     1       1.628   2.476  21.120  0.00  0.00    +0.000 C 
ATOM      5  C   UNL     1       0.961   4.860  20.886  0.00  0.00    +0.000 C 
ATOM      6  C   UNL     1       1.339   6.001  20.284  0.00  0.00    +0.000 C 
ATOM      7  C   UNL     1       1.340   7.224  21.055  0.00  0.00    +0.000 C 
ATOM      8  C   UNL     1       1.674   8.409  20.533  0.00  0.00    +0.000 C 
ATOM      9  C   UNL     1       2.108   8.585  19.107  0.00  0.00    +0.000 C 
ATOM     10  C   UNL     1       0.927   9.144  18.306  0.00  0.00    +0.000 C 
ATOM     11  C   UNL     1       2.722   7.271  18.526  0.00  0.00    +0.000 C 
ATOM     12  C   UNL     1       1.779   6.046  18.819  0.00  0.00    +0.000 C 
ENDROOT
BRANCH   1  13
ATOM     13  O   UNL     1       3.692   4.569  19.054  0.00  0.00    +0.000 OA
BRANCH  13  15
ATOM     14  C   UNL     1       4.037   2.797  17.577  0.00  0.00    +0.000 C 
ATOM     15  C   UNL     1       4.347   3.387  18.920  0.00  0.00    +0.000 C 
ATOM     16  O   UNL     1       5.018   2.840  19.781  0.00  0.00    +0.000 OA
ENDBRANCH  13  15
ENDBRANCH   1  13
BRANCH  11  17
ATOM     17  C   UNL     1       3.113   7.425  17.026  0.00  0.00    +0.000 C 
BRANCH  17  18
ATOM     18  C   UNL     1       4.642   7.496  16.816  0.00  0.00    +0.000 C 
BRANCH  18  19
ATOM     19  C   UNL     1       5.363   6.139  16.893  0.00  0.00    +0.000 C 
ATOM     20  C   UNL     1       6.850   6.351  17.153  0.00  0.00    +0.000 C 
ATOM     21  C   UNL     1       7.620   5.076  16.884  0.00  0.00    +0.000 C 
ATOM     22  C   UNL     1       7.416   4.631  15.454  0.00  0.00    +0.000 C 
ATOM     23  C   UNL     1       5.985   4.650  15.002  0.00  0.00    +0.000 C 
ATOM     24  O   UNL     1       5.632   4.020  14.007  0.00  0.00    +0.000 OA
ATOM     25  O   UNL     1       5.107   5.435  15.657  0.00  0.00    +0.000 OA
BRANCH  21  26
ATOM     26  O   UNL     1       7.263   4.059  17.816  0.00  0.00    +0.000 OA
ATOM     27  H   UNL     1       7.345   3.182  17.403  0.00  0.00    +0.000 HD
ENDBRANCH  21  26
ENDBRANCH  18  19
ENDBRANCH  17  18
ENDBRANCH  11  17
TORSDOF 6
ENDMDL
