MODEL 1
REMARK VINA RESULT:      -8.4      0.000      0.000
REMARK  Name = 
REMARK  6 active torsions:
REMARK  status: ('A' for Active; 'I' for Inactive)
REMARK    1  A    between atoms: C_1  and  O_2
REMARK    2  A    between atoms: O_2  and  C_3
REMARK    3  A    between atoms: C_8  and  N_9
REMARK    4  A    between atoms: C_10  and  C_12
REMARK    5  A    between atoms: C_14  and  C_15
REMARK    6  A    between atoms: C_18  and  C_19
REMARK                            x       y       z     vdW  Elec       q    Type
REMARK                         _______ _______ _______ _____ _____    ______ ____
ROOT
ATOM      1  C   UNL     1       4.506   3.457  18.085  0.00  0.00    +0.000 A 
ATOM      2  C   UNL     1       3.560   3.595  17.108  0.00  0.00    +0.000 A 
ATOM      3  C   UNL     1       2.596   4.532  17.345  0.00  0.00    +0.000 A 
ATOM      4  N   UNL     1       1.632   4.047  18.084  0.00  0.00    +0.000 NA
ATOM      5  C   UNL     1       2.129   3.652  19.227  0.00  0.00    +0.000 A 
ATOM      6  C   UNL     1       1.321   3.997  20.333  0.00  0.00    +0.000 A 
ATOM      7  C   UNL     1       1.583   3.584  21.613  0.00  0.00    +0.000 A 
ATOM      8  C   UNL     1       2.523   2.586  21.691  0.00  0.00    +0.000 A 
ATOM      9  C   UNL     1       3.436   2.356  20.570  0.00  0.00    +0.000 A 
ATOM     10  C   UNL     1       3.465   3.120  19.280  0.00  0.00    +0.000 A 
ENDROOT
BRANCH   3  11
ATOM     11  C   UNL     1       2.865   5.889  17.894  0.00  0.00    +0.000 A 
ATOM     12  C   UNL     1       3.996   6.648  17.676  0.00  0.00    +0.000 A 
ATOM     13  C   UNL     1       3.603   7.997  17.775  0.00  0.00    +0.000 A 
ATOM     14  C   UNL     1       2.247   8.003  18.016  0.00  0.00    +0.000 A 
ATOM     15  C   UNL     1       1.253   9.104  18.018  0.00  0.00    +0.000 C 
ATOM     16  O   UNL     1       1.797   6.721  18.160  0.00  0.00    +0.000 OA
ENDBRANCH   3  11
BRANCH   1  18
ATOM     17  N   UNL     1       5.313   3.743  15.253  0.00  0.00    +0.000 N 
ATOM     18  C   UNL     1       5.576   3.864  16.779  0.00  0.00    +0.000 C 
ATOM     19  O   UNL     1       6.629   4.407  17.136  0.00  0.00    +0.000 OA
ATOM     20  H   UNL     1       4.432   3.357  14.924  0.00  0.00    +0.000 HD
BRANCH  17  26
ATOM     21  C   UNL     1       6.111   3.562  12.709  0.00  0.00    +0.000 A 
ATOM     22  C   UNL     1       7.012   3.907  11.624  0.00  0.00    +0.000 A 
ATOM     23  C   UNL     1       7.935   4.919  11.732  0.00  0.00    +0.000 A 
ATOM     24  C   UNL     1       8.006   5.546  12.962  0.00  0.00    +0.000 A 
ATOM     25  C   UNL     1       7.185   5.154  14.088  0.00  0.00    +0.000 A 
ATOM     26  C   UNL     1       6.206   4.143  14.039  0.00  0.00    +0.000 A 
BRANCH  21  28
ATOM     27  C   UNL     1       4.212   3.282  11.357  0.00  0.00    +0.000 C 
ATOM     28  O   UNL     1       5.072   2.701  12.372  0.00  0.00    +0.000 OA
ENDBRANCH  21  28
ENDBRANCH  17  26
ENDBRANCH   1  18
TORSDOF 4
ENDMDL
MODEL 2
REMARK VINA RESULT:      -8.3      3.300      8.062
REMARK  Name = 
REMARK  6 active torsions:
REMARK  status: ('A' for Active; 'I' for Inactive)
REMARK    1  A    between atoms: C_1  and  O_2
REMARK    2  A    between atoms: O_2  and  C_3
REMARK    3  A    between atoms: C_8  and  N_9
REMARK    4  A    between atoms: C_10  and  C_12
REMARK    5  A    between atoms: C_14  and  C_15
REMARK    6  A    between atoms: C_18  and  C_19
REMARK                            x       y       z     vdW  Elec       q    Type
REMARK                         _______ _______ _______ _____ _____    ______ ____
ROOT
ATOM      1  C   UNL     1       3.429   7.684  18.017  0.00  0.00    +0.000 A 
ATOM      2  C   UNL     1       2.484   6.856  17.477  0.00  0.00    +0.000 A 
ATOM      3  C   UNL     1       2.507   5.564  17.919  0.00  0.00    +0.000 A 
ATOM      4  N   UNL     1       3.381   4.849  17.259  0.00  0.00    +0.000 NA
ATOM      5  C   UNL     1       4.568   5.374  17.421  0.00  0.00    +0.000 A 
ATOM      6  C   UNL     1       5.576   4.408  17.637  0.00  0.00    +0.000 A 
ATOM      7  C   UNL     1       6.909   4.717  17.713  0.00  0.00    +0.000 A 
ATOM      8  C   UNL     1       7.208   5.987  17.286  0.00  0.00    +0.000 A 
ATOM      9  C   UNL     1       6.152   6.998  17.211  0.00  0.00    +0.000 A 
ATOM     10  C   UNL     1       4.707   6.798  17.563  0.00  0.00    +0.000 A 
ENDROOT
BRANCH   3  11
ATOM     11  C   UNL     1       2.675   5.172  19.345  0.00  0.00    +0.000 A 
ATOM     12  C   UNL     1       1.822   5.479  20.384  0.00  0.00    +0.000 A 
ATOM     13  C   UNL     1       1.948   4.446  21.332  0.00  0.00    +0.000 A 
ATOM     14  C   UNL     1       2.848   3.538  20.818  0.00  0.00    +0.000 A 
ATOM     15  C   UNL     1       3.229   2.174  21.258  0.00  0.00    +0.000 C 
ATOM     16  O   UNL     1       3.352   4.005  19.636  0.00  0.00    +0.000 OA
ENDBRANCH   3  11
BRANCH   1  18
ATOM     17  N   UNL     1       1.021   9.358  17.625  0.00  0.00    +0.000 N 
ATOM     18  C   UNL     1       2.023   8.574  18.516  0.00  0.00    +0.000 C 
ATOM     19  O   UNL     1       1.758   8.471  19.720  0.00  0.00    +0.000 OA
ATOM     20  H   UNL     1       1.175   9.411  16.622  0.00  0.00    +0.000 HD
BRANCH  17  26
ATOM     21  C   UNL     1      -0.358  11.215  18.964  0.00  0.00    +0.000 A 
ATOM     22  C   UNL     1      -1.605  11.853  19.347  0.00  0.00    +0.000 A 
ATOM     23  C   UNL     1      -2.794  11.571  18.722  0.00  0.00    +0.000 A 
ATOM     24  C   UNL     1      -2.750  10.589  17.750  0.00  0.00    +0.000 A 
ATOM     25  C   UNL     1      -1.538   9.870  17.419  0.00  0.00    +0.000 A 
ATOM     26  C   UNL     1      -0.282  10.124  18.005  0.00  0.00    +0.000 A 
BRANCH  21  28
ATOM     27  C   UNL     1       0.806  11.671  20.951  0.00  0.00    +0.000 C 
ATOM     28  O   UNL     1       0.793  11.779  19.504  0.00  0.00    +0.000 OA
ENDBRANCH  21  28
ENDBRANCH  17  26
ENDBRANCH   1  18
TORSDOF 4
ENDMDL
MODEL 3
REMARK VINA RESULT:      -8.2      2.698      7.344
REMARK  Name = 
REMARK  6 active torsions:
REMARK  status: ('A' for Active; 'I' for Inactive)
REMARK    1  A    between atoms: C_1  and  O_2
REMARK    2  A    between atoms: O_2  and  C_3
REMARK    3  A    between atoms: C_8  and  N_9
REMARK    4  A    between atoms: C_10  and  C_12
REMARK    5  A    between atoms: C_14  and  C_15
REMARK    6  A    between atoms: C_18  and  C_19
REMARK                            x       y       z     vdW  Elec       q    Type
REMARK                         _______ _______ _______ _____ _____    ______ ____
ROOT
ATOM      1  C   UNL     1       2.228   6.312  18.137  0.00  0.00    +0.000 A 
ATOM      2  C   UNL     1       3.001   6.655  19.211  0.00  0.00    +0.000 A 
ATOM      3  C   UNL     1       4.275   6.163  19.205  0.00  0.00    +0.000 A 
ATOM      4  N   UNL     1       4.317   4.944  19.678  0.00  0.00    +0.000 NA
ATOM      5  C   UNL     1       3.563   4.175  18.937  0.00  0.00    +0.000 A 
ATOM      6  C   UNL     1       4.148   2.918  18.667  0.00  0.00    +0.000 A 
ATOM      7  C   UNL     1       3.492   1.908  18.013  0.00  0.00    +0.000 A 
ATOM      8  C   UNL     1       2.140   2.114  17.893  0.00  0.00    +0.000 A 
ATOM      9  C   UNL     1       1.591   3.463  18.043  0.00  0.00    +0.000 A 
ATOM     10  C   UNL     1       2.374   4.710  18.330  0.00  0.00    +0.000 A 
ENDROOT
BRANCH   3  11
ATOM     11  C   UNL     1       5.161   6.152  18.010  0.00  0.00    +0.000 A 
ATOM     12  C   UNL     1       6.528   5.971  18.008  0.00  0.00    +0.000 A 
ATOM     13  C   UNL     1       6.858   5.387  16.771  0.00  0.00    +0.000 A 
ATOM     14  C   UNL     1       5.677   5.206  16.085  0.00  0.00    +0.000 A 
ATOM     15  C   UNL     1       5.367   4.468  14.836  0.00  0.00    +0.000 C 
ATOM     16  O   UNL     1       4.641   5.734  16.802  0.00  0.00    +0.000 OA
ENDBRANCH   3  11
BRANCH   1  18
ATOM     17  N   UNL     1       1.391   9.059  18.848  0.00  0.00    +0.000 N 
ATOM     18  C   UNL     1       2.139   8.037  17.949  0.00  0.00    +0.000 C 
ATOM     19  O   UNL     1       2.848   8.486  17.040  0.00  0.00    +0.000 OA
ATOM     20  H   UNL     1       0.849   8.729  19.641  0.00  0.00    +0.000 HD
BRANCH  17  26
ATOM     21  C   UNL     1       0.248  11.429  19.313  0.00  0.00    +0.000 A 
ATOM     22  C   UNL     1       0.180  12.870  19.148  0.00  0.00    +0.000 A 
ATOM     23  C   UNL     1       1.203  13.592  18.585  0.00  0.00    +0.000 A 
ATOM     24  C   UNL     1       2.277  12.858  18.116  0.00  0.00    +0.000 A 
ATOM     25  C   UNL     1       2.324  11.413  18.182  0.00  0.00    +0.000 A 
ATOM     26  C   UNL     1       1.321  10.614  18.765  0.00  0.00    +0.000 A 
BRANCH  21  28
ATOM     27  C   UNL     1      -0.337  10.866  21.515  0.00  0.00    +0.000 C 
ATOM     28  O   UNL     1      -0.738  10.873  20.121  0.00  0.00    +0.000 OA
ENDBRANCH  21  28
ENDBRANCH  17  26
ENDBRANCH   1  18
TORSDOF 4
ENDMDL
MODEL 4
REMARK VINA RESULT:      -8.1      2.546      7.129
REMARK  Name = 
REMARK  6 active torsions:
REMARK  status: ('A' for Active; 'I' for Inactive)
REMARK    1  A    between atoms: C_1  and  O_2
REMARK    2  A    between atoms: O_2  and  C_3
REMARK    3  A    between atoms: C_8  and  N_9
REMARK    4  A    between atoms: C_10  and  C_12
REMARK    5  A    between atoms: C_14  and  C_15
REMARK    6  A    between atoms: C_18  and  C_19
REMARK                            x       y       z     vdW  Elec       q    Type
REMARK                         _______ _______ _______ _____ _____    ______ ____
ROOT
ATOM      1  C   UNL     1       1.870   5.984  19.469  0.00  0.00    +0.000 A 
ATOM      2  C   UNL     1       3.125   6.181  19.974  0.00  0.00    +0.000 A 
ATOM      3  C   UNL     1       4.152   5.712  19.206  0.00  0.00    +0.000 A 
ATOM      4  N   UNL     1       4.364   4.439  19.419  0.00  0.00    +0.000 NA
ATOM      5  C   UNL     1       3.277   3.772  19.128  0.00  0.00    +0.000 A 
ATOM      6  C   UNL     1       3.534   2.574  18.425  0.00  0.00    +0.000 A 
ATOM      7  C   UNL     1       2.560   1.658  18.121  0.00  0.00    +0.000 A 
ATOM      8  C   UNL     1       1.380   1.862  18.791  0.00  0.00    +0.000 A 
ATOM      9  C   UNL     1       1.095   3.169  19.386  0.00  0.00    +0.000 A 
ATOM     10  C   UNL     1       1.989   4.373  19.348  0.00  0.00    +0.000 A 
ENDROOT
BRANCH   3  11
ATOM     11  C   UNL     1       4.238   5.881  17.729  0.00  0.00    +0.000 A 
ATOM     12  C   UNL     1       4.352   7.075  17.049  0.00  0.00    +0.000 A 
ATOM     13  C   UNL     1       5.038   6.795  15.852  0.00  0.00    +0.000 A 
ATOM     14  C   UNL     1       5.341   5.451  15.868  0.00  0.00    +0.000 A 
ATOM     15  C   UNL     1       6.211   4.628  14.993  0.00  0.00    +0.000 C 
ATOM     16  O   UNL     1       4.796   4.868  16.977  0.00  0.00    +0.000 OA
ENDBRANCH   3  11
BRANCH   1  18
ATOM     17  N   UNL     1       1.641   8.743  18.426  0.00  0.00    +0.000 N 
ATOM     18  C   UNL     1       1.809   7.717  19.579  0.00  0.00    +0.000 C 
ATOM     19  O   UNL     1       1.801   8.152  20.737  0.00  0.00    +0.000 OA
ATOM     20  H   UNL     1       1.583   8.415  17.465  0.00  0.00    +0.000 HD
BRANCH  17  26
ATOM     21  C   UNL     1       0.408  11.033  19.042  0.00  0.00    +0.000 A 
ATOM     22  C   UNL     1       0.299  12.480  18.991  0.00  0.00    +0.000 A 
ATOM     23  C   UNL     1       1.315  13.275  18.522  0.00  0.00    +0.000 A 
ATOM     24  C   UNL     1       2.426  12.613  18.031  0.00  0.00    +0.000 A 
ATOM     25  C   UNL     1       2.517  11.170  17.982  0.00  0.00    +0.000 A 
ATOM     26  C   UNL     1       1.523  10.297  18.466  0.00  0.00    +0.000 A 
BRANCH  21  28
ATOM     27  C   UNL     1      -0.553  10.773  21.167  0.00  0.00    +0.000 C 
ATOM     28  O   UNL     1      -0.584  10.384  19.769  0.00  0.00    +0.000 OA
ENDBRANCH  21  28
ENDBRANCH  17  26
ENDBRANCH   1  18
TORSDOF 4
ENDMDL
MODEL 5
REMARK VINA RESULT:      -8.1      3.979      8.314
REMARK  Name = 
REMARK  6 active torsions:
REMARK  status: ('A' for Active; 'I' for Inactive)
REMARK    1  A    between atoms: C_1  and  O_2
REMARK    2  A    between atoms: O_2  and  C_3
REMARK    3  A    between atoms: C_8  and  N_9
REMARK    4  A    between atoms: C_10  and  C_12
REMARK    5  A    between atoms: C_14  and  C_15
REMARK    6  A    between atoms: C_18  and  C_19
REMARK                            x       y       z     vdW  Elec       q    Type
REMARK                         _______ _______ _______ _____ _____    ______ ____
ROOT
ATOM      1  C   UNL     1       1.508  10.748  18.925  0.00  0.00    +0.000 A 
ATOM      2  C   UNL     1       0.591  10.326  19.846  0.00  0.00    +0.000 A 
ATOM      3  C   UNL     1      -0.684  10.778  19.662  0.00  0.00    +0.000 A 
ATOM      4  N   UNL     1      -0.847  11.969  20.178  0.00  0.00    +0.000 NA
ATOM      5  C   UNL     1      -0.016  12.799  19.604  0.00  0.00    +0.000 A 
ATOM      6  C   UNL     1      -0.600  14.050  19.304  0.00  0.00    +0.000 A 
ATOM      7  C   UNL     1       0.111  15.112  18.810  0.00  0.00    +0.000 A 
ATOM      8  C   UNL     1       1.472  14.954  18.896  0.00  0.00    +0.000 A 
ATOM      9  C   UNL     1       2.042  13.617  19.067  0.00  0.00    +0.000 A 
ATOM     10  C   UNL     1       1.273  12.333  19.167  0.00  0.00    +0.000 A 
ENDROOT
BRANCH   3  11
ATOM     11  C   UNL     1      -1.372  10.825  18.343  0.00  0.00    +0.000 A 
ATOM     12  C   UNL     1      -1.416   9.813  17.407  0.00  0.00    +0.000 A 
ATOM     13  C   UNL     1      -2.617   9.974  16.692  0.00  0.00    +0.000 A 
ATOM     14  C   UNL     1      -3.270  11.056  17.241  0.00  0.00    +0.000 A 
ATOM     15  C   UNL     1      -4.644  11.579  17.047  0.00  0.00    +0.000 C 
ATOM     16  O   UNL     1      -2.487  11.627  18.205  0.00  0.00    +0.000 OA
ENDBRANCH   3  11
BRANCH   1  18
ATOM     17  N   UNL     1       2.027   7.948  19.725  0.00  0.00    +0.000 N 
ATOM     18  C   UNL     1       1.692   9.039  18.673  0.00  0.00    +0.000 C 
ATOM     19  O   UNL     1       1.420   8.663  17.526  0.00  0.00    +0.000 OA
ATOM     20  H   UNL     1       2.197   8.216  20.691  0.00  0.00    +0.000 HD
BRANCH  17  26
ATOM     21  C   UNL     1       2.929   5.724  18.548  0.00  0.00    +0.000 A 
ATOM     22  C   UNL     1       2.955   4.281  18.393  0.00  0.00    +0.000 A 
ATOM     23  C   UNL     1       2.359   3.436  19.296  0.00  0.00    +0.000 A 
ATOM     24  C   UNL     1       1.667   4.042  20.328  0.00  0.00    +0.000 A 
ATOM     25  C   UNL     1       1.545   5.479  20.449  0.00  0.00    +0.000 A 
ATOM     26  C   UNL     1       2.149   6.401  19.573  0.00  0.00    +0.000 A 
BRANCH  21  28
ATOM     27  C   UNL     1       4.660   5.539  16.974  0.00  0.00    +0.000 C 
ATOM     28  O   UNL     1       3.783   6.431  17.709  0.00  0.00    +0.000 OA
ENDBRANCH  21  28
ENDBRANCH  17  26
ENDBRANCH   1  18
TORSDOF 4
ENDMDL
MODEL 6
REMARK VINA RESULT:      -8.1      3.183      7.897
REMARK  Name = 
REMARK  6 active torsions:
REMARK  status: ('A' for Active; 'I' for Inactive)
REMARK    1  A    between atoms: C_1  and  O_2
REMARK    2  A    between atoms: O_2  and  C_3
REMARK    3  A    between atoms: C_8  and  N_9
REMARK    4  A    between atoms: C_10  and  C_12
REMARK    5  A    between atoms: C_14  and  C_15
REMARK    6  A    between atoms: C_18  and  C_19
REMARK                            x       y       z     vdW  Elec       q    Type
REMARK                         _______ _______ _______ _____ _____    ______ ____
ROOT
ATOM      1  C   UNL     1       3.294   7.665  18.027  0.00  0.00    +0.000 A 
ATOM      2  C   UNL     1       2.277   6.879  17.563  0.00  0.00    +0.000 A 
ATOM      3  C   UNL     1       2.293   5.580  17.983  0.00  0.00    +0.000 A 
ATOM      4  N   UNL     1       3.080   4.848  17.236  0.00  0.00    +0.000 NA
ATOM      5  C   UNL     1       4.294   5.329  17.298  0.00  0.00    +0.000 A 
ATOM      6  C   UNL     1       5.283   4.326  17.408  0.00  0.00    +0.000 A 
ATOM      7  C   UNL     1       6.627   4.589  17.368  0.00  0.00    +0.000 A 
ATOM      8  C   UNL     1       6.931   5.856  16.934  0.00  0.00    +0.000 A 
ATOM      9  C   UNL     1       5.908   6.903  16.969  0.00  0.00    +0.000 A 
ATOM     10  C   UNL     1       4.495   6.745  17.448  0.00  0.00    +0.000 A 
ENDROOT
BRANCH   3  11
ATOM     11  C   UNL     1       2.575   5.157  19.382  0.00  0.00    +0.000 A 
ATOM     12  C   UNL     1       1.785   5.403  20.485  0.00  0.00    +0.000 A 
ATOM     13  C   UNL     1       2.016   4.351  21.392  0.00  0.00    +0.000 A 
ATOM     14  C   UNL     1       2.911   3.493  20.791  0.00  0.00    +0.000 A 
ATOM     15  C   UNL     1       3.373   2.134  21.164  0.00  0.00    +0.000 C 
ATOM     16  O   UNL     1       3.314   4.011  19.592  0.00  0.00    +0.000 OA
ENDBRANCH   3  11
BRANCH   1  18
ATOM     17  N   UNL     1       0.991   9.518  17.891  0.00  0.00    +0.000 N 
ATOM     18  C   UNL     1       1.970   8.593  18.664  0.00  0.00    +0.000 C 
ATOM     19  O   UNL     1       1.744   8.396  19.864  0.00  0.00    +0.000 OA
ATOM     20  H   UNL     1       1.112   9.654  16.891  0.00  0.00    +0.000 HD
BRANCH  17  26
ATOM     21  C   UNL     1      -1.528  10.393  17.715  0.00  0.00    +0.000 A 
ATOM     22  C   UNL     1      -2.629  11.221  18.175  0.00  0.00    +0.000 A 
ATOM     23  C   UNL     1      -2.589  11.894  19.371  0.00  0.00    +0.000 A 
ATOM     24  C   UNL     1      -1.407  11.797  20.082  0.00  0.00    +0.000 A 
ATOM     25  C   UNL     1      -0.261  11.058  19.598  0.00  0.00    +0.000 A 
ATOM     26  C   UNL     1      -0.243  10.328  18.393  0.00  0.00    +0.000 A 
BRANCH  21  28
ATOM     27  C   UNL     1      -2.686  10.243  15.679  0.00  0.00    +0.000 C 
ATOM     28  O   UNL     1      -1.809   9.578  16.624  0.00  0.00    +0.000 OA
ENDBRANCH  21  28
ENDBRANCH  17  26
ENDBRANCH   1  18
TORSDOF 4
ENDMDL
MODEL 7
REMARK VINA RESULT:      -8.0      3.919      7.797
REMARK  Name = 
REMARK  6 active torsions:
REMARK  status: ('A' for Active; 'I' for Inactive)
REMARK    1  A    between atoms: C_1  and  O_2
REMARK    2  A    between atoms: O_2  and  C_3
REMARK    3  A    between atoms: C_8  and  N_9
REMARK    4  A    between atoms: C_10  and  C_12
REMARK    5  A    between atoms: C_14  and  C_15
REMARK    6  A    between atoms: C_18  and  C_19
REMARK                            x       y       z     vdW  Elec       q    Type
REMARK                         _______ _______ _______ _____ _____    ______ ____
ROOT
ATOM      1  C   UNL     1       1.507  10.675  19.063  0.00  0.00    +0.000 A 
ATOM      2  C   UNL     1       0.652   9.881  19.776  0.00  0.00    +0.000 A 
ATOM      3  C   UNL     1      -0.674  10.183  19.658  0.00  0.00    +0.000 A 
ATOM      4  N   UNL     1      -1.020  11.140  20.481  0.00  0.00    +0.000 NA
ATOM      5  C   UNL     1      -0.316  12.208  20.211  0.00  0.00    +0.000 A 
ATOM      6  C   UNL     1      -1.077  13.398  20.246  0.00  0.00    +0.000 A 
ATOM      7  C   UNL     1      -0.527  14.646  20.113  0.00  0.00    +0.000 A 
ATOM      8  C   UNL     1       0.841  14.663  20.224  0.00  0.00    +0.000 A 
ATOM      9  C   UNL     1       1.603  13.426  20.041  0.00  0.00    +0.000 A 
ATOM     10  C   UNL     1       1.033  12.073  19.731  0.00  0.00    +0.000 A 
ENDROOT
BRANCH   3  11
ATOM     11  C   UNL     1      -1.346  10.511  18.371  0.00  0.00    +0.000 A 
ATOM     12  C   UNL     1      -1.362   9.729  17.235  0.00  0.00    +0.000 A 
ATOM     13  C   UNL     1      -2.557  10.030  16.554  0.00  0.00    +0.000 A 
ATOM     14  C   UNL     1      -3.232  10.957  17.317  0.00  0.00    +0.000 A 
ATOM     15  C   UNL     1      -4.611  11.494  17.221  0.00  0.00    +0.000 C 
ATOM     16  O   UNL     1      -2.470  11.311  18.395  0.00  0.00    +0.000 OA
ENDBRANCH   3  11
BRANCH   1  18
ATOM     17  N   UNL     1       2.288   7.822  19.069  0.00  0.00    +0.000 N 
ATOM     18  C   UNL     1       1.948   9.154  18.348  0.00  0.00    +0.000 C 
ATOM     19  O   UNL     1       1.877   9.135  17.113  0.00  0.00    +0.000 OA
ATOM     20  H   UNL     1       2.296   7.786  20.085  0.00  0.00    +0.000 HD
BRANCH  17  26
ATOM     21  C   UNL     1       3.795   6.121  17.662  0.00  0.00    +0.000 A 
ATOM     22  C   UNL     1       4.041   4.816  17.074  0.00  0.00    +0.000 A 
ATOM     23  C   UNL     1       3.268   3.721  17.372  0.00  0.00    +0.000 A 
ATOM     24  C   UNL     1       2.194   3.948  18.211  0.00  0.00    +0.000 A 
ATOM     25  C   UNL     1       1.871   5.259  18.732  0.00  0.00    +0.000 A 
ATOM     26  C   UNL     1       2.634   6.417  18.485  0.00  0.00    +0.000 A 
BRANCH  21  28
ATOM     27  C   UNL     1       6.106   6.432  17.386  0.00  0.00    +0.000 C 
ATOM     28  O   UNL     1       4.801   7.062  17.470  0.00  0.00    +0.000 OA
ENDBRANCH  21  28
ENDBRANCH  17  26
ENDBRANCH   1  18
TORSDOF 4
ENDMDL
MODEL 8
REMARK VINA RESULT:      -7.9      2.159      7.393
REMARK  Name = 
REMARK  6 active torsions:
REMARK  status: ('A' for Active; 'I' for Inactive)
REMARK    1  A    between atoms: C_1  and  O_2
REMARK    2  A    between atoms: O_2  and  C_3
REMARK    3  A    between atoms: C_8  and  N_9
REMARK    4  A    between atoms: C_10  and  C_12
REMARK    5  A    between atoms: C_14  and  C_15
REMARK    6  A    between atoms: C_18  and  C_19
REMARK                            x       y       z     vdW  Elec       q    Type
REMARK                         _______ _______ _______ _____ _____    ______ ____
ROOT
ATOM      1  C   UNL     1       4.909   4.080  15.589  0.00  0.00    +0.000 A 
ATOM      2  C   UNL     1       5.874   3.785  16.512  0.00  0.00    +0.000 A 
ATOM      3  C   UNL     1       6.902   4.679  16.600  0.00  0.00    +0.000 A 
ATOM      4  N   UNL     1       7.819   4.441  15.699  0.00  0.00    +0.000 NA
ATOM      5  C   UNL     1       7.281   4.530  14.511  0.00  0.00    +0.000 A 
ATOM      6  C   UNL     1       8.101   5.206  13.580  0.00  0.00    +0.000 A 
ATOM      7  C   UNL     1       7.795   5.313  12.248  0.00  0.00    +0.000 A 
ATOM      8  C   UNL     1       6.783   4.479  11.844  0.00  0.00    +0.000 A 
ATOM      9  C   UNL     1       5.868   3.909  12.834  0.00  0.00    +0.000 A 
ATOM     10  C   UNL     1       5.910   4.142  14.316  0.00  0.00    +0.000 A 
ENDROOT
BRANCH   3  11
ATOM     11  C   UNL     1       6.727   6.158  16.600  0.00  0.00    +0.000 A 
ATOM     12  C   UNL     1       5.577   6.844  16.930  0.00  0.00    +0.000 A 
ATOM     13  C   UNL     1       5.983   8.096  17.432  0.00  0.00    +0.000 A 
ATOM     14  C   UNL     1       7.360   8.106  17.417  0.00  0.00    +0.000 A 
ATOM     15  C   UNL     1       8.343   9.053  17.999  0.00  0.00    +0.000 C 
ATOM     16  O   UNL     1       7.825   6.955  16.846  0.00  0.00    +0.000 OA
ENDBRANCH   3  11
BRANCH   1  18
ATOM     17  N   UNL     1       3.736   2.905  18.037  0.00  0.00    +0.000 N 
ATOM     18  C   UNL     1       3.886   4.044  16.992  0.00  0.00    +0.000 C 
ATOM     19  O   UNL     1       3.293   5.106  17.215  0.00  0.00    +0.000 OA
ATOM     20  H   UNL     1       4.257   2.040  17.917  0.00  0.00    +0.000 HD
BRANCH  17  26
ATOM     21  C   UNL     1       3.404   2.518  20.660  0.00  0.00    +0.000 A 
ATOM     22  C   UNL     1       2.563   2.388  21.837  0.00  0.00    +0.000 A 
ATOM     23  C   UNL     1       1.226   2.699  21.820  0.00  0.00    +0.000 A 
ATOM     24  C   UNL     1       0.707   3.077  20.596  0.00  0.00    +0.000 A 
ATOM     25  C   UNL     1       1.504   3.120  19.388  0.00  0.00    +0.000 A 
ATOM     26  C   UNL     1       2.883   2.835  19.340  0.00  0.00    +0.000 A 
BRANCH  21  28
ATOM     27  C   UNL     1       5.195   1.028  20.948  0.00  0.00    +0.000 C 
ATOM     28  O   UNL     1       4.772   2.415  20.889  0.00  0.00    +0.000 OA
ENDBRANCH  21  28
ENDBRANCH  17  26
ENDBRANCH   1  18
TORSDOF 4
ENDMDL
MODEL 9
REMARK VINA RESULT:      -7.8      3.746      6.714
REMARK  Name = 
REMARK  6 active torsions:
REMARK  status: ('A' for Active; 'I' for Inactive)
REMARK    1  A    between atoms: C_1  and  O_2
REMARK    2  A    between atoms: O_2  and  C_3
REMARK    3  A    between atoms: C_8  and  N_9
REMARK    4  A    between atoms: C_10  and  C_12
REMARK    5  A    between atoms: C_14  and  C_15
REMARK    6  A    between atoms: C_18  and  C_19
REMARK                            x       y       z     vdW  Elec       q    Type
REMARK                         _______ _______ _______ _____ _____    ______ ____
ROOT
ATOM      1  C   UNL     1       0.785   8.792  17.865  0.00  0.00    +0.000 A 
ATOM      2  C   UNL     1       1.625   9.794  18.263  0.00  0.00    +0.000 A 
ATOM      3  C   UNL     1       1.203  10.530  19.333  0.00  0.00    +0.000 A 
ATOM      4  N   UNL     1       0.387  11.483  18.964  0.00  0.00    +0.000 NA
ATOM      5  C   UNL     1      -0.653  10.950  18.379  0.00  0.00    +0.000 A 
ATOM      6  C   UNL     1      -1.873  11.553  18.759  0.00  0.00    +0.000 A 
ATOM      7  C   UNL     1      -3.078  11.238  18.186  0.00  0.00    +0.000 A 
ATOM      8  C   UNL     1      -2.966  10.503  17.032  0.00  0.00    +0.000 A 
ATOM      9  C   UNL     1      -1.727   9.778  16.746  0.00  0.00    +0.000 A 
ATOM     10  C   UNL     1      -0.502   9.743  17.611  0.00  0.00    +0.000 A 
ENDROOT
BRANCH   3  11
ATOM     11  C   UNL     1       0.595   9.948  20.561  0.00  0.00    +0.000 A 
ATOM     12  C   UNL     1       1.257   9.246  21.546  0.00  0.00    +0.000 A 
ATOM     13  C   UNL     1       0.545   9.457  22.742  0.00  0.00    +0.000 A 
ATOM     14  C   UNL     1      -0.501  10.303  22.443  0.00  0.00    +0.000 A 
ATOM     15  C   UNL     1      -1.459  11.029  23.312  0.00  0.00    +0.000 C 
ATOM     16  O   UNL     1      -0.521  10.554  21.100  0.00  0.00    +0.000 OA
ENDBRANCH   3  11
BRANCH   1  18
ATOM     17  N   UNL     1       3.420   7.579  17.287  0.00  0.00    +0.000 N 
ATOM     18  C   UNL     1       2.181   7.811  18.193  0.00  0.00    +0.000 C 
ATOM     19  O   UNL     1       2.208   7.333  19.333  0.00  0.00    +0.000 OA
ATOM     20  H   UNL     1       3.458   8.008  16.366  0.00  0.00    +0.000 HD
BRANCH  17  26
ATOM     21  C   UNL     1       4.761   5.385  18.018  0.00  0.00    +0.000 A 
ATOM     22  C   UNL     1       5.995   4.683  18.321  0.00  0.00    +0.000 A 
ATOM     23  C   UNL     1       7.229   5.218  18.046  0.00  0.00    +0.000 A 
ATOM     24  C   UNL     1       7.232   6.500  17.528  0.00  0.00    +0.000 A 
ATOM     25  C   UNL     1       6.018   7.257  17.308  0.00  0.00    +0.000 A 
ATOM     26  C   UNL     1       4.722   6.761  17.547  0.00  0.00    +0.000 A 
BRANCH  21  28
ATOM     27  C   UNL     1       3.748   3.349  17.434  0.00  0.00    +0.000 C 
ATOM     28  O   UNL     1       3.601   4.623  18.113  0.00  0.00    +0.000 OA
ENDBRANCH  21  28
ENDBRANCH  17  26
ENDBRANCH   1  18
TORSDOF 4
ENDMDL
