MODEL 1
REMARK VINA RESULT:      -8.3      0.000      0.000
REMARK  Name = 
REMARK  6 active torsions:
REMARK  status: ('A' for Active; 'I' for Inactive)
REMARK    1  A    between atoms: C_1  and  C_2
REMARK    2  A    between atoms: C_12  and  C_13
REMARK    3  A    between atoms: C_13  and  O_14
REMARK    4  A    between atoms: C_13  and  C_15
REMARK    5  A    between atoms: C_19  and  C_20
REMARK    6  A    between atoms: C_20  and  O_21
REMARK                            x       y       z     vdW  Elec       q    Type
REMARK                         _______ _______ _______ _____ _____    ______ ____
ROOT
ATOM      1  C   UNL     1       3.972   6.753  17.772  0.00  0.00    +0.000 C 
ATOM      2  C   UNL     1       4.684   5.395  17.485  0.00  0.00    +0.000 C 
ATOM      3  C   UNL     1       3.615   4.442  16.880  0.00  0.00    +0.000 C 
ATOM      4  C   UNL     1       2.556   3.985  17.875  0.00  0.00    +0.000 C 
ATOM      5  C   UNL     1       3.216   3.368  19.084  0.00  0.00    +0.000 C 
ATOM      6  O   UNL     1       2.663   2.506  19.763  0.00  0.00    +0.000 OA
ATOM      7  C   UNL     1       4.526   3.913  19.526  0.00  0.00    +0.000 C 
ATOM      8  C   UNL     1       5.175   4.868  18.834  0.00  0.00    +0.000 C 
ATOM      9  C   UNL     1       6.369   5.565  19.454  0.00  0.00    +0.000 C 
ATOM     10  C   UNL     1       7.477   5.943  18.473  0.00  0.00    +0.000 C 
ATOM     11  C   UNL     1       6.947   6.556  17.177  0.00  0.00    +0.000 C 
ATOM     12  C   UNL     1       5.902   5.639  16.486  0.00  0.00    +0.000 C 
ENDROOT
BRANCH  12  13
ATOM     13  C   UNL     1       6.629   4.368  15.897  0.00  0.00    +0.000 C 
BRANCH  13  14
ATOM     14  C   UNL     1       6.743   4.382  14.375  0.00  0.00    +0.000 A 
ATOM     15  C   UNL     1       7.634   5.242  13.709  0.00  0.00    +0.000 A 
ATOM     16  C   UNL     1       7.760   5.205  12.319  0.00  0.00    +0.000 A 
ATOM     17  C   UNL     1       7.022   4.292  11.571  0.00  0.00    +0.000 A 
ATOM     18  C   UNL     1       6.131   3.418  12.204  0.00  0.00    +0.000 A 
ATOM     19  C   UNL     1       5.975   3.496  13.600  0.00  0.00    +0.000 A 
BRANCH  18  20
ATOM     20  C   UNL     1       5.359   2.400  11.409  0.00  0.00    +0.000 C 
BRANCH  20  21
ATOM     21  O   UNL     1       6.048   1.155  11.415  0.00  0.00    +0.000 OA
ATOM     22  H   UNL     1       6.997   1.362  11.462  0.00  0.00    +0.000 HD
ENDBRANCH  20  21
ENDBRANCH  18  20
ENDBRANCH  13  14
BRANCH  13  23
ATOM     23  O   UNL     1       5.971   3.151  16.226  0.00  0.00    +0.000 OA
ATOM     24  H   UNL     1       6.080   2.534  15.483  0.00  0.00    +0.000 HD
ENDBRANCH  13  23
ENDBRANCH  12  13
TORSDOF 5
ENDMDL
MODEL 2
REMARK VINA RESULT:      -7.6      2.022      3.717
REMARK  Name = 
REMARK  6 active torsions:
REMARK  status: ('A' for Active; 'I' for Inactive)
REMARK    1  A    between atoms: C_1  and  C_2
REMARK    2  A    between atoms: C_12  and  C_13
REMARK    3  A    between atoms: C_13  and  O_14
REMARK    4  A    between atoms: C_13  and  C_15
REMARK    5  A    between atoms: C_19  and  C_20
REMARK    6  A    between atoms: C_20  and  O_21
REMARK                            x       y       z     vdW  Elec       q    Type
REMARK                         _______ _______ _______ _____ _____    ______ ____
ROOT
ATOM      1  C   UNL     1       0.948   4.410  18.230  0.00  0.00    +0.000 C 
ATOM      2  C   UNL     1       2.336   4.705  18.878  0.00  0.00    +0.000 C 
ATOM      3  C   UNL     1       3.154   3.384  18.816  0.00  0.00    +0.000 C 
ATOM      4  C   UNL     1       2.646   2.294  19.751  0.00  0.00    +0.000 C 
ATOM      5  C   UNL     1       2.568   2.822  21.163  0.00  0.00    +0.000 C 
ATOM      6  O   UNL     1       2.685   2.090  22.143  0.00  0.00    +0.000 OA
ATOM      7  C   UNL     1       2.220   4.253  21.362  0.00  0.00    +0.000 C 
ATOM      8  C   UNL     1       2.063   5.103  20.329  0.00  0.00    +0.000 C 
ATOM      9  C   UNL     1       1.464   6.474  20.568  0.00  0.00    +0.000 C 
ATOM     10  C   UNL     1       2.036   7.589  19.696  0.00  0.00    +0.000 C 
ATOM     11  C   UNL     1       2.202   7.180  18.232  0.00  0.00    +0.000 C 
ATOM     12  C   UNL     1       3.049   5.888  18.082  0.00  0.00    +0.000 C 
ENDROOT
BRANCH  12  13
ATOM     13  C   UNL     1       4.553   6.204  18.438  0.00  0.00    +0.000 C 
BRANCH  13  14
ATOM     14  C   UNL     1       5.553   5.569  17.476  0.00  0.00    +0.000 A 
ATOM     15  C   UNL     1       6.841   5.188  17.893  0.00  0.00    +0.000 A 
ATOM     16  C   UNL     1       7.724   4.564  17.011  0.00  0.00    +0.000 A 
ATOM     17  C   UNL     1       7.331   4.283  15.705  0.00  0.00    +0.000 A 
ATOM     18  C   UNL     1       6.055   4.644  15.259  0.00  0.00    +0.000 A 
ATOM     19  C   UNL     1       5.189   5.316  16.141  0.00  0.00    +0.000 A 
BRANCH  18  20
ATOM     20  C   UNL     1       5.605   4.308  13.863  0.00  0.00    +0.000 C 
BRANCH  20  21
ATOM     21  O   UNL     1       6.266   3.133  13.409  0.00  0.00    +0.000 OA
ATOM     22  H   UNL     1       6.362   2.551  14.182  0.00  0.00    +0.000 HD
ENDBRANCH  20  21
ENDBRANCH  18  20
ENDBRANCH  13  14
BRANCH  13  23
ATOM     23  O   UNL     1       4.923   5.753  19.735  0.00  0.00    +0.000 OA
ATOM     24  H   UNL     1       5.152   6.528  20.275  0.00  0.00    +0.000 HD
ENDBRANCH  13  23
ENDBRANCH  12  13
TORSDOF 5
ENDMDL
MODEL 3
REMARK VINA RESULT:      -7.6      3.494      7.373
REMARK  Name = 
REMARK  6 active torsions:
REMARK  status: ('A' for Active; 'I' for Inactive)
REMARK    1  A    between atoms: C_1  and  C_2
REMARK    2  A    between atoms: C_12  and  C_13
REMARK    3  A    between atoms: C_13  and  O_14
REMARK    4  A    between atoms: C_13  and  C_15
REMARK    5  A    between atoms: C_19  and  C_20
REMARK    6  A    between atoms: C_20  and  O_21
REMARK                            x       y       z     vdW  Elec       q    Type
REMARK                         _______ _______ _______ _____ _____    ______ ____
ROOT
ATOM      1  C   UNL     1       4.521   4.761  16.147  0.00  0.00    +0.000 C 
ATOM      2  C   UNL     1       4.310   5.218  17.623  0.00  0.00    +0.000 C 
ATOM      3  C   UNL     1       5.114   6.535  17.809  0.00  0.00    +0.000 C 
ATOM      4  C   UNL     1       6.625   6.347  17.799  0.00  0.00    +0.000 C 
ATOM      5  C   UNL     1       7.022   5.316  18.827  0.00  0.00    +0.000 C 
ATOM      6  O   UNL     1       8.122   5.328  19.375  0.00  0.00    +0.000 OA
ATOM      7  C   UNL     1       6.092   4.187  19.088  0.00  0.00    +0.000 C 
ATOM      8  C   UNL     1       4.879   4.109  18.508  0.00  0.00    +0.000 C 
ATOM      9  C   UNL     1       4.080   2.825  18.606  0.00  0.00    +0.000 C 
ATOM     10  C   UNL     1       2.568   3.012  18.709  0.00  0.00    +0.000 C 
ATOM     11  C   UNL     1       2.027   4.061  17.738  0.00  0.00    +0.000 C 
ATOM     12  C   UNL     1       2.752   5.425  17.893  0.00  0.00    +0.000 C 
ENDROOT
BRANCH  12  13
ATOM     13  C   UNL     1       2.330   6.090  19.259  0.00  0.00    +0.000 C 
BRANCH  13  14
ATOM     14  C   UNL     1       1.970   7.568  19.133  0.00  0.00    +0.000 A 
ATOM     15  C   UNL     1       2.085   8.255  17.912  0.00  0.00    +0.000 A 
ATOM     16  C   UNL     1       1.704   9.593  17.805  0.00  0.00    +0.000 A 
ATOM     17  C   UNL     1       1.175  10.263  18.904  0.00  0.00    +0.000 A 
ATOM     18  C   UNL     1       1.042   9.607  20.133  0.00  0.00    +0.000 A 
ATOM     19  C   UNL     1       1.473   8.273  20.244  0.00  0.00    +0.000 A 
BRANCH  18  20
ATOM     20  C   UNL     1       0.433  10.309  21.316  0.00  0.00    +0.000 C 
BRANCH  20  21
ATOM     21  O   UNL     1       1.115   9.935  22.507  0.00  0.00    +0.000 OA
ATOM     22  H   UNL     1       0.876   9.008  22.686  0.00  0.00    +0.000 HD
ENDBRANCH  20  21
ENDBRANCH  18  20
ENDBRANCH  13  14
BRANCH  13  23
ATOM     23  O   UNL     1       3.351   6.023  20.248  0.00  0.00    +0.000 OA
ATOM     24  H   UNL     1       4.097   6.574  19.955  0.00  0.00    +0.000 HD
ENDBRANCH  13  23
ENDBRANCH  12  13
TORSDOF 5
ENDMDL
MODEL 4
REMARK VINA RESULT:      -7.4      3.151      7.017
REMARK  Name = 
REMARK  6 active torsions:
REMARK  status: ('A' for Active; 'I' for Inactive)
REMARK    1  A    between atoms: C_1  and  C_2
REMARK    2  A    between atoms: C_12  and  C_13
REMARK    3  A    between atoms: C_13  and  O_14
REMARK    4  A    between atoms: C_13  and  C_15
REMARK    5  A    between atoms: C_19  and  C_20
REMARK    6  A    between atoms: C_20  and  O_21
REMARK                            x       y       z     vdW  Elec       q    Type
REMARK                         _______ _______ _______ _____ _____    ______ ____
ROOT
ATOM      1  C   UNL     1       6.056   5.070  19.205  0.00  0.00    +0.000 C 
ATOM      2  C   UNL     1       4.626   5.104  18.584  0.00  0.00    +0.000 C 
ATOM      3  C   UNL     1       3.651   4.547  19.660  0.00  0.00    +0.000 C 
ATOM      4  C   UNL     1       3.798   3.053  19.917  0.00  0.00    +0.000 C 
ATOM      5  C   UNL     1       3.671   2.292  18.620  0.00  0.00    +0.000 C 
ATOM      6  O   UNL     1       3.256   1.136  18.577  0.00  0.00    +0.000 OA
ATOM      7  C   UNL     1       4.179   2.928  17.377  0.00  0.00    +0.000 C 
ATOM      8  C   UNL     1       4.660   4.186  17.361  0.00  0.00    +0.000 C 
ATOM      9  C   UNL     1       5.395   4.694  16.137  0.00  0.00    +0.000 C 
ATOM     10  C   UNL     1       5.178   6.172  15.821  0.00  0.00    +0.000 C 
ATOM     11  C   UNL     1       5.247   7.066  17.059  0.00  0.00    +0.000 C 
ATOM     12  C   UNL     1       4.266   6.601  18.168  0.00  0.00    +0.000 C 
ENDROOT
BRANCH  12  13
ATOM     13  C   UNL     1       2.785   6.895  17.714  0.00  0.00    +0.000 C 
BRANCH  13  14
ATOM     14  C   UNL     1       2.137   8.057  18.464  0.00  0.00    +0.000 A 
ATOM     15  C   UNL     1       1.764   9.244  17.809  0.00  0.00    +0.000 A 
ATOM     16  C   UNL     1       1.129  10.275  18.502  0.00  0.00    +0.000 A 
ATOM     17  C   UNL     1       0.829  10.132  19.854  0.00  0.00    +0.000 A 
ATOM     18  C   UNL     1       1.181   8.961  20.535  0.00  0.00    +0.000 A 
ATOM     19  C   UNL     1       1.864   7.947  19.840  0.00  0.00    +0.000 A 
BRANCH  18  20
ATOM     20  C   UNL     1       0.825   8.779  21.985  0.00  0.00    +0.000 C 
BRANCH  20  21
ATOM     21  O   UNL     1       1.730   9.510  22.804  0.00  0.00    +0.000 OA
ATOM     22  H   UNL     1       1.216   9.845  23.559  0.00  0.00    +0.000 HD
ENDBRANCH  20  21
ENDBRANCH  18  20
ENDBRANCH  13  14
BRANCH  13  23
ATOM     23  O   UNL     1       1.916   5.784  17.897  0.00  0.00    +0.000 OA
ATOM     24  H   UNL     1       1.101   5.947  17.393  0.00  0.00    +0.000 HD
ENDBRANCH  13  23
ENDBRANCH  12  13
TORSDOF 5
ENDMDL
MODEL 5
REMARK VINA RESULT:      -7.4      1.056      1.084
REMARK  Name = 
REMARK  6 active torsions:
REMARK  status: ('A' for Active; 'I' for Inactive)
REMARK    1  A    between atoms: C_1  and  C_2
REMARK    2  A    between atoms: C_12  and  C_13
REMARK    3  A    between atoms: C_13  and  O_14
REMARK    4  A    between atoms: C_13  and  C_15
REMARK    5  A    between atoms: C_19  and  C_20
REMARK    6  A    between atoms: C_20  and  O_21
REMARK                            x       y       z     vdW  Elec       q    Type
REMARK                         _______ _______ _______ _____ _____    ______ ____
ROOT
ATOM      1  C   UNL     1       2.778   6.240  17.714  0.00  0.00    +0.000 C 
ATOM      2  C   UNL     1       3.710   4.999  17.561  0.00  0.00    +0.000 C 
ATOM      3  C   UNL     1       2.846   3.855  16.960  0.00  0.00    +0.000 C 
ATOM      4  C   UNL     1       1.804   3.293  17.918  0.00  0.00    +0.000 C 
ATOM      5  C   UNL     1       2.467   2.858  19.202  0.00  0.00    +0.000 C 
ATOM      6  O   UNL     1       2.009   1.959  19.903  0.00  0.00    +0.000 OA
ATOM      7  C   UNL     1       3.643   3.628  19.684  0.00  0.00    +0.000 C 
ATOM      8  C   UNL     1       4.183   4.634  18.968  0.00  0.00    +0.000 C 
ATOM      9  C   UNL     1       5.209   5.545  19.610  0.00  0.00    +0.000 C 
ATOM     10  C   UNL     1       6.310   6.038  18.674  0.00  0.00    +0.000 C 
ATOM     11  C   UNL     1       5.782   6.484  17.311  0.00  0.00    +0.000 C 
ATOM     12  C   UNL     1       4.942   5.376  16.621  0.00  0.00    +0.000 C 
ENDROOT
BRANCH  12  13
ATOM     13  C   UNL     1       5.895   4.205  16.163  0.00  0.00    +0.000 C 
BRANCH  13  14
ATOM     14  C   UNL     1       6.240   4.248  14.677  0.00  0.00    +0.000 A 
ATOM     15  C   UNL     1       7.342   4.976  14.194  0.00  0.00    +0.000 A 
ATOM     16  C   UNL     1       7.671   4.962  12.838  0.00  0.00    +0.000 A 
ATOM     17  C   UNL     1       6.925   4.201  11.942  0.00  0.00    +0.000 A 
ATOM     18  C   UNL     1       5.826   3.460  12.390  0.00  0.00    +0.000 A 
ATOM     19  C   UNL     1       5.473   3.519  13.751  0.00  0.00    +0.000 A 
BRANCH  18  20
ATOM     20  C   UNL     1       5.039   2.602  11.438  0.00  0.00    +0.000 C 
BRANCH  20  21
ATOM     21  O   UNL     1       3.869   3.293  11.014  0.00  0.00    +0.000 OA
ATOM     22  H   UNL     1       3.523   2.809  10.244  0.00  0.00    +0.000 HD
ENDBRANCH  20  21
ENDBRANCH  18  20
ENDBRANCH  13  14
BRANCH  13  23
ATOM     23  O   UNL     1       5.342   2.916  16.396  0.00  0.00    +0.000 OA
ATOM     24  H   UNL     1       6.073   2.280  16.474  0.00  0.00    +0.000 HD
ENDBRANCH  13  23
ENDBRANCH  12  13
TORSDOF 5
ENDMDL
MODEL 6
REMARK VINA RESULT:      -7.2      3.390      6.975
REMARK  Name = 
REMARK  6 active torsions:
REMARK  status: ('A' for Active; 'I' for Inactive)
REMARK    1  A    between atoms: C_1  and  C_2
REMARK    2  A    between atoms: C_12  and  C_13
REMARK    3  A    between atoms: C_13  and  O_14
REMARK    4  A    between atoms: C_13  and  C_15
REMARK    5  A    between atoms: C_19  and  C_20
REMARK    6  A    between atoms: C_20  and  O_21
REMARK                            x       y       z     vdW  Elec       q    Type
REMARK                         _______ _______ _______ _____ _____    ______ ____
ROOT
ATOM      1  C   UNL     1       6.138   5.077  19.148  0.00  0.00    +0.000 C 
ATOM      2  C   UNL     1       4.682   5.110  18.590  0.00  0.00    +0.000 C 
ATOM      3  C   UNL     1       3.762   4.502  19.685  0.00  0.00    +0.000 C 
ATOM      4  C   UNL     1       3.940   3.002  19.884  0.00  0.00    +0.000 C 
ATOM      5  C   UNL     1       3.768   2.285  18.567  0.00  0.00    +0.000 C 
ATOM      6  O   UNL     1       3.367   1.125  18.501  0.00  0.00    +0.000 OA
ATOM      7  C   UNL     1       4.214   2.971  17.327  0.00  0.00    +0.000 C 
ATOM      8  C   UNL     1       4.677   4.236  17.335  0.00  0.00    +0.000 C 
ATOM      9  C   UNL     1       5.352   4.797  16.100  0.00  0.00    +0.000 C 
ATOM     10  C   UNL     1       5.101   6.282  15.846  0.00  0.00    +0.000 C 
ATOM     11  C   UNL     1       5.211   7.134  17.110  0.00  0.00    +0.000 C 
ATOM     12  C   UNL     1       4.285   6.615  18.243  0.00  0.00    +0.000 C 
ENDROOT
BRANCH  12  13
ATOM     13  C   UNL     1       2.782   6.903  17.862  0.00  0.00    +0.000 C 
BRANCH  13  14
ATOM     14  C   UNL     1       2.067   7.817  18.854  0.00  0.00    +0.000 A 
ATOM     15  C   UNL     1       1.953   7.486  20.216  0.00  0.00    +0.000 A 
ATOM     16  C   UNL     1       1.339   8.358  21.116  0.00  0.00    +0.000 A 
ATOM     17  C   UNL     1       0.851   9.587  20.682  0.00  0.00    +0.000 A 
ATOM     18  C   UNL     1       0.953   9.950  19.334  0.00  0.00    +0.000 A 
ATOM     19  C   UNL     1       1.530   9.045  18.425  0.00  0.00    +0.000 A 
BRANCH  18  20
ATOM     20  C   UNL     1       0.467  11.294  18.862  0.00  0.00    +0.000 C 
BRANCH  20  21
ATOM     21  O   UNL     1      -0.399  11.132  17.745  0.00  0.00    +0.000 OA
ATOM     22  H   UNL     1      -0.390  11.976  17.261  0.00  0.00    +0.000 HD
ENDBRANCH  20  21
ENDBRANCH  18  20
ENDBRANCH  13  14
BRANCH  13  23
ATOM     23  O   UNL     1       1.992   5.723  17.784  0.00  0.00    +0.000 OA
ATOM     24  H   UNL     1       1.059   5.983  17.712  0.00  0.00    +0.000 HD
ENDBRANCH  13  23
ENDBRANCH  12  13
TORSDOF 5
ENDMDL
MODEL 7
REMARK VINA RESULT:      -7.2      3.464      7.706
REMARK  Name = 
REMARK  6 active torsions:
REMARK  status: ('A' for Active; 'I' for Inactive)
REMARK    1  A    between atoms: C_1  and  C_2
REMARK    2  A    between atoms: C_12  and  C_13
REMARK    3  A    between atoms: C_13  and  O_14
REMARK    4  A    between atoms: C_13  and  C_15
REMARK    5  A    between atoms: C_19  and  C_20
REMARK    6  A    between atoms: C_20  and  O_21
REMARK                            x       y       z     vdW  Elec       q    Type
REMARK                         _______ _______ _______ _____ _____    ______ ____
ROOT
ATOM      1  C   UNL     1       2.295   3.589  17.032  0.00  0.00    +0.000 C 
ATOM      2  C   UNL     1       3.054   4.474  18.068  0.00  0.00    +0.000 C 
ATOM      3  C   UNL     1       3.765   5.601  17.267  0.00  0.00    +0.000 C 
ATOM      4  C   UNL     1       4.935   5.117  16.419  0.00  0.00    +0.000 C 
ATOM      5  C   UNL     1       5.914   4.357  17.280  0.00  0.00    +0.000 C 
ATOM      6  O   UNL     1       7.112   4.300  17.012  0.00  0.00    +0.000 OA
ATOM      7  C   UNL     1       5.384   3.558  18.414  0.00  0.00    +0.000 C 
ATOM      8  C   UNL     1       4.079   3.566  18.749  0.00  0.00    +0.000 C 
ATOM      9  C   UNL     1       3.550   2.550  19.740  0.00  0.00    +0.000 C 
ATOM     10  C   UNL     1       2.440   3.058  20.656  0.00  0.00    +0.000 C 
ATOM     11  C   UNL     1       1.384   3.881  19.918  0.00  0.00    +0.000 C 
ATOM     12  C   UNL     1       2.013   5.058  19.126  0.00  0.00    +0.000 C 
ENDROOT
BRANCH  12  13
ATOM     13  C   UNL     1       2.536   6.150  20.137  0.00  0.00    +0.000 C 
BRANCH  13  14
ATOM     14  C   UNL     1       1.929   7.532  19.909  0.00  0.00    +0.000 A 
ATOM     15  C   UNL     1       1.932   8.140  18.642  0.00  0.00    +0.000 A 
ATOM     16  C   UNL     1       1.329   9.383  18.443  0.00  0.00    +0.000 A 
ATOM     17  C   UNL     1       0.689  10.030  19.497  0.00  0.00    +0.000 A 
ATOM     18  C   UNL     1       0.663   9.449  20.769  0.00  0.00    +0.000 A 
ATOM     19  C   UNL     1       1.315   8.219  20.971  0.00  0.00    +0.000 A 
BRANCH  18  20
ATOM     20  C   UNL     1      -0.062  10.120  21.905  0.00  0.00    +0.000 C 
BRANCH  20  21
ATOM     21  O   UNL     1       0.600   9.844  23.134  0.00  0.00    +0.000 OA
ATOM     22  H   UNL     1       0.146   9.080  23.529  0.00  0.00    +0.000 HD
ENDBRANCH  20  21
ENDBRANCH  18  20
ENDBRANCH  13  14
BRANCH  13  23
ATOM     23  O   UNL     1       3.945   6.330  20.080  0.00  0.00    +0.000 OA
ATOM     24  H   UNL     1       4.255   6.047  19.204  0.00  0.00    +0.000 HD
ENDBRANCH  13  23
ENDBRANCH  12  13
TORSDOF 5
ENDMDL
MODEL 8
REMARK VINA RESULT:      -7.1      3.700      7.722
REMARK  Name = 
REMARK  6 active torsions:
REMARK  status: ('A' for Active; 'I' for Inactive)
REMARK    1  A    between atoms: C_1  and  C_2
REMARK    2  A    between atoms: C_12  and  C_13
REMARK    3  A    between atoms: C_13  and  O_14
REMARK    4  A    between atoms: C_13  and  C_15
REMARK    5  A    between atoms: C_19  and  C_20
REMARK    6  A    between atoms: C_20  and  O_21
REMARK                            x       y       z     vdW  Elec       q    Type
REMARK                         _______ _______ _______ _____ _____    ______ ____
ROOT
ATOM      1  C   UNL     1       2.992   3.787  16.970  0.00  0.00    +0.000 C 
ATOM      2  C   UNL     1       3.673   5.039  17.604  0.00  0.00    +0.000 C 
ATOM      3  C   UNL     1       4.546   5.691  16.494  0.00  0.00    +0.000 C 
ATOM      4  C   UNL     1       5.777   4.878  16.115  0.00  0.00    +0.000 C 
ATOM      5  C   UNL     1       6.595   4.578  17.347  0.00  0.00    +0.000 C 
ATOM      6  O   UNL     1       7.811   4.406  17.299  0.00  0.00    +0.000 OA
ATOM      7  C   UNL     1       5.882   4.368  18.633  0.00  0.00    +0.000 C 
ATOM      8  C   UNL     1       4.549   4.527  18.747  0.00  0.00    +0.000 C 
ATOM      9  C   UNL     1       3.841   4.058  20.002  0.00  0.00    +0.000 C 
ATOM     10  C   UNL     1       2.662   4.923  20.440  0.00  0.00    +0.000 C 
ATOM     11  C   UNL     1       1.756   5.333  19.278  0.00  0.00    +0.000 C 
ATOM     12  C   UNL     1       2.550   6.034  18.143  0.00  0.00    +0.000 C 
ENDROOT
BRANCH  12  13
ATOM     13  C   UNL     1       3.012   7.461  18.632  0.00  0.00    +0.000 C 
BRANCH  13  14
ATOM     14  C   UNL     1       1.857   8.365  19.052  0.00  0.00    +0.000 A 
ATOM     15  C   UNL     1       1.161   9.156  18.122  0.00  0.00    +0.000 A 
ATOM     16  C   UNL     1       0.075   9.939  18.517  0.00  0.00    +0.000 A 
ATOM     17  C   UNL     1      -0.353   9.927  19.842  0.00  0.00    +0.000 A 
ATOM     18  C   UNL     1       0.314   9.147  20.792  0.00  0.00    +0.000 A 
ATOM     19  C   UNL     1       1.436   8.398  20.394  0.00  0.00    +0.000 A 
BRANCH  18  20
ATOM     20  C   UNL     1      -0.167   9.095  22.217  0.00  0.00    +0.000 C 
BRANCH  20  21
ATOM     21  O   UNL     1       0.460  10.119  22.980  0.00  0.00    +0.000 OA
ATOM     22  H   UNL     1      -0.001  10.948  22.764  0.00  0.00    +0.000 HD
ENDBRANCH  20  21
ENDBRANCH  18  20
ENDBRANCH  13  14
BRANCH  13  23
ATOM     23  O   UNL     1       3.728   8.183  17.638  0.00  0.00    +0.000 OA
ATOM     24  H   UNL     1       3.142   8.868  17.275  0.00  0.00    +0.000 HD
ENDBRANCH  13  23
ENDBRANCH  12  13
TORSDOF 5
ENDMDL
MODEL 9
REMARK VINA RESULT:      -7.1      2.833      4.773
REMARK  Name = 
REMARK  6 active torsions:
REMARK  status: ('A' for Active; 'I' for Inactive)
REMARK    1  A    between atoms: C_1  and  C_2
REMARK    2  A    between atoms: C_12  and  C_13
REMARK    3  A    between atoms: C_13  and  O_14
REMARK    4  A    between atoms: C_13  and  C_15
REMARK    5  A    between atoms: C_19  and  C_20
REMARK    6  A    between atoms: C_20  and  O_21
REMARK                            x       y       z     vdW  Elec       q    Type
REMARK                         _______ _______ _______ _____ _____    ______ ____
ROOT
ATOM      1  C   UNL     1       0.929   3.890  18.008  0.00  0.00    +0.000 C 
ATOM      2  C   UNL     1       2.243   3.882  18.848  0.00  0.00    +0.000 C 
ATOM      3  C   UNL     1       2.550   2.398  19.196  0.00  0.00    +0.000 C 
ATOM      4  C   UNL     1       1.585   1.783  20.201  0.00  0.00    +0.000 C 
ATOM      5  C   UNL     1       1.526   2.634  21.446  0.00  0.00    +0.000 C 
ATOM      6  O   UNL     1       1.260   2.162  22.549  0.00  0.00    +0.000 OA
ATOM      7  C   UNL     1       1.677   4.105  21.302  0.00  0.00    +0.000 C 
ATOM      8  C   UNL     1       1.953   4.684  20.117  0.00  0.00    +0.000 C 
ATOM      9  C   UNL     1       1.846   6.189  19.974  0.00  0.00    +0.000 C 
ATOM     10  C   UNL     1       2.872   6.823  19.038  0.00  0.00    +0.000 C 
ATOM     11  C   UNL     1       3.060   6.041  17.738  0.00  0.00    +0.000 C 
ATOM     12  C   UNL     1       3.415   4.553  18.000  0.00  0.00    +0.000 C 
ENDROOT
BRANCH  12  13
ATOM     13  C   UNL     1       4.879   4.458  18.578  0.00  0.00    +0.000 C 
BRANCH  13  14
ATOM     14  C   UNL     1       5.927   5.133  17.697  0.00  0.00    +0.000 A 
ATOM     15  C   UNL     1       6.257   4.633  16.425  0.00  0.00    +0.000 A 
ATOM     16  C   UNL     1       7.181   5.291  15.614  0.00  0.00    +0.000 A 
ATOM     17  C   UNL     1       7.774   6.476  16.043  0.00  0.00    +0.000 A 
ATOM     18  C   UNL     1       7.464   7.004  17.301  0.00  0.00    +0.000 A 
ATOM     19  C   UNL     1       6.567   6.307  18.131  0.00  0.00    +0.000 A 
BRANCH  18  20
ATOM     20  C   UNL     1       8.067   8.305  17.757  0.00  0.00    +0.000 C 
BRANCH  20  21
ATOM     21  O   UNL     1       8.727   8.124  19.004  0.00  0.00    +0.000 OA
ATOM     22  H   UNL     1       8.981   9.009  19.317  0.00  0.00    +0.000 HD
ENDBRANCH  20  21
ENDBRANCH  18  20
ENDBRANCH  13  14
BRANCH  13  23
ATOM     23  O   UNL     1       5.323   3.118  18.751  0.00  0.00    +0.000 OA
ATOM     24  H   UNL     1       4.714   2.670  19.362  0.00  0.00    +0.000 HD
ENDBRANCH  13  23
ENDBRANCH  12  13
TORSDOF 5
ENDMDL
