MODEL 1
REMARK VINA RESULT:      -7.5      0.000      0.000
REMARK  Name = 
REMARK  7 active torsions:
REMARK  status: ('A' for Active; 'I' for Inactive)
REMARK    1  A    between atoms: C_1  and  O_2
REMARK    2  A    between atoms: O_2  and  C_3
REMARK    3  A    between atoms: C_8  and  C_9
REMARK    4  A    between atoms: C_9  and  C_10
REMARK    5  A    between atoms: C_10  and  N_11
REMARK    6  A    between atoms: C_17  and  C_18
REMARK    7  A    between atoms: C_20  and  C_21
REMARK                            x       y       z     vdW  Elec       q    Type
REMARK                         _______ _______ _______ _____ _____    ______ ____
ROOT
ATOM      1  N   UNL     1       3.408   6.444  18.752  0.00  0.00    +0.000 NA
ATOM      2  C   UNL     1       2.519   7.237  19.275  0.00  0.00    +0.000 C 
ATOM      3  N   UNL     1       1.953   7.064  20.507  0.00  0.00    +0.000 N 
ATOM      4  N   UNL     1       2.018   8.298  18.568  0.00  0.00    +0.000 N 
ATOM      5  C   UNL     1       1.056   9.215  18.995  0.00  0.00    +0.000 A 
ATOM      6  N   UNL     1       0.956   9.482  20.317  0.00  0.00    +0.000 NA
ATOM      7  C   UNL     1      -0.033  10.290  20.743  0.00  0.00    +0.000 A 
ATOM      8  C   UNL     1      -0.119  10.543  22.216  0.00  0.00    +0.000 C 
ATOM      9  C   UNL     1      -0.947  10.834  19.873  0.00  0.00    +0.000 A 
ATOM     10  C   UNL     1      -0.770  10.541  18.535  0.00  0.00    +0.000 A 
ATOM     11  C   UNL     1      -1.757  11.035  17.518  0.00  0.00    +0.000 C 
ATOM     12  N   UNL     1       0.243   9.764  18.082  0.00  0.00    +0.000 NA
ATOM     13  H   UNL     1       2.480   6.535  21.182  0.00  0.00    +0.000 HD
ATOM     14  H   UNL     1       1.600   7.932  20.910  0.00  0.00    +0.000 HD
ATOM     15  H   UNL     1       2.153   8.291  17.572  0.00  0.00    +0.000 HD
ENDROOT
BRANCH   1  16
ATOM     16  C   UNL     1       3.781   5.289  19.596  0.00  0.00    +0.000 C 
BRANCH  16  17
ATOM     17  C   UNL     1       4.040   4.013  18.794  0.00  0.00    +0.000 C 
BRANCH  17  23
ATOM     18  C   UNL     1       6.384   4.592  17.895  0.00  0.00    +0.000 A 
ATOM     19  C   UNL     1       7.277   4.690  16.819  0.00  0.00    +0.000 A 
ATOM     20  C   UNL     1       6.818   4.579  15.507  0.00  0.00    +0.000 A 
ATOM     21  C   UNL     1       5.472   4.333  15.265  0.00  0.00    +0.000 A 
ATOM     22  C   UNL     1       4.589   4.159  16.335  0.00  0.00    +0.000 A 
ATOM     23  C   UNL     1       5.031   4.271  17.664  0.00  0.00    +0.000 A 
BRANCH  18  25
ATOM     24  C   UNL     1       7.810   5.737  19.402  0.00  0.00    +0.000 C 
ATOM     25  O   UNL     1       6.777   4.775  19.196  0.00  0.00    +0.000 OA
ENDBRANCH  18  25
ENDBRANCH  17  23
ENDBRANCH  16  17
ENDBRANCH   1  16
TORSDOF 4
ENDMDL
MODEL 2
REMARK VINA RESULT:      -7.5      5.728      8.359
REMARK  Name = 
REMARK  7 active torsions:
REMARK  status: ('A' for Active; 'I' for Inactive)
REMARK    1  A    between atoms: C_1  and  O_2
REMARK    2  A    between atoms: O_2  and  C_3
REMARK    3  A    between atoms: C_8  and  C_9
REMARK    4  A    between atoms: C_9  and  C_10
REMARK    5  A    between atoms: C_10  and  N_11
REMARK    6  A    between atoms: C_17  and  C_18
REMARK    7  A    between atoms: C_20  and  C_21
REMARK                            x       y       z     vdW  Elec       q    Type
REMARK                         _______ _______ _______ _____ _____    ______ ____
ROOT
ATOM      1  N   UNL     1       8.435   8.073  18.540  0.00  0.00    +0.000 NA
ATOM      2  C   UNL     1       7.620   7.224  17.983  0.00  0.00    +0.000 C 
ATOM      3  N   UNL     1       6.996   7.420  16.783  0.00  0.00    +0.000 N 
ATOM      4  N   UNL     1       7.265   6.066  18.623  0.00  0.00    +0.000 N 
ATOM      5  C   UNL     1       6.396   5.079  18.154  0.00  0.00    +0.000 A 
ATOM      6  N   UNL     1       6.279   4.898  16.819  0.00  0.00    +0.000 NA
ATOM      7  C   UNL     1       5.371   4.015  16.361  0.00  0.00    +0.000 A 
ATOM      8  C   UNL     1       5.262   3.859  14.877  0.00  0.00    +0.000 C 
ATOM      9  C   UNL     1       4.553   3.312  17.213  0.00  0.00    +0.000 A 
ATOM     10  C   UNL     1       4.744   3.527  18.564  0.00  0.00    +0.000 A 
ATOM     11  C   UNL     1       3.854   2.854  19.567  0.00  0.00    +0.000 C 
ATOM     12  N   UNL     1       5.680   4.379  19.046  0.00  0.00    +0.000 NA
ATOM     13  H   UNL     1       7.437   8.051  16.135  0.00  0.00    +0.000 HD
ATOM     14  H   UNL     1       6.727   6.548  16.326  0.00  0.00    +0.000 HD
ATOM     15  H   UNL     1       7.434   6.018  19.612  0.00  0.00    +0.000 HD
ENDROOT
BRANCH   1  16
ATOM     16  C   UNL     1       8.648   9.320  17.774  0.00  0.00    +0.000 C 
BRANCH  16  17
ATOM     17  C   UNL     1       8.451  10.585  18.611  0.00  0.00    +0.000 C 
BRANCH  17  23
ATOM     18  C   UNL     1      10.269  11.591  20.136  0.00  0.00    +0.000 A 
ATOM     19  C   UNL     1      11.555  12.125  20.294  0.00  0.00    +0.000 A 
ATOM     20  C   UNL     1      12.320  12.469  19.181  0.00  0.00    +0.000 A 
ATOM     21  C   UNL     1      11.820  12.246  17.904  0.00  0.00    +0.000 A 
ATOM     22  C   UNL     1      10.569  11.644  17.738  0.00  0.00    +0.000 A 
ATOM     23  C   UNL     1       9.781  11.294  18.847  0.00  0.00    +0.000 A 
BRANCH  18  25
ATOM     24  C   UNL     1       9.124  12.424  22.035  0.00  0.00    +0.000 C 
ATOM     25  O   UNL     1       9.450  11.314  21.200  0.00  0.00    +0.000 OA
ENDBRANCH  18  25
ENDBRANCH  17  23
ENDBRANCH  16  17
ENDBRANCH   1  16
TORSDOF 4
ENDMDL
MODEL 3
REMARK VINA RESULT:      -7.5      1.897      3.351
REMARK  Name = 
REMARK  7 active torsions:
REMARK  status: ('A' for Active; 'I' for Inactive)
REMARK    1  A    between atoms: C_1  and  O_2
REMARK    2  A    between atoms: O_2  and  C_3
REMARK    3  A    between atoms: C_8  and  C_9
REMARK    4  A    between atoms: C_9  and  C_10
REMARK    5  A    between atoms: C_10  and  N_11
REMARK    6  A    between atoms: C_17  and  C_18
REMARK    7  A    between atoms: C_20  and  C_21
REMARK                            x       y       z     vdW  Elec       q    Type
REMARK                         _______ _______ _______ _____ _____    ______ ____
ROOT
ATOM      1  N   UNL     1       3.760   6.773  17.750  0.00  0.00    +0.000 NA
ATOM      2  C   UNL     1       2.875   7.438  18.435  0.00  0.00    +0.000 C 
ATOM      3  N   UNL     1       2.528   7.163  19.728  0.00  0.00    +0.000 N 
ATOM      4  N   UNL     1       2.154   8.450  17.859  0.00  0.00    +0.000 N 
ATOM      5  C   UNL     1       1.170   9.232  18.466  0.00  0.00    +0.000 A 
ATOM      6  N   UNL     1       1.243   9.448  19.799  0.00  0.00    +0.000 NA
ATOM      7  C   UNL     1       0.245  10.119  20.403  0.00  0.00    +0.000 A 
ATOM      8  C   UNL     1       0.356  10.318  21.882  0.00  0.00    +0.000 C 
ATOM      9  C   UNL     1      -0.848  10.573  19.704  0.00  0.00    +0.000 A 
ATOM     10  C   UNL     1      -0.845  10.341  18.342  0.00  0.00    +0.000 A 
ATOM     11  C   UNL     1      -2.025  10.742  17.507  0.00  0.00    +0.000 C 
ATOM     12  N   UNL     1       0.170   9.705  17.709  0.00  0.00    +0.000 NA
ATOM     13  H   UNL     1       3.208   6.683  20.292  0.00  0.00    +0.000 HD
ATOM     14  H   UNL     1       2.143   7.970  20.218  0.00  0.00    +0.000 HD
ATOM     15  H   UNL     1       2.136   8.488  16.855  0.00  0.00    +0.000 HD
ENDROOT
BRANCH   1  16
ATOM     16  C   UNL     1       4.386   5.647  18.476  0.00  0.00    +0.000 C 
BRANCH  16  17
ATOM     17  C   UNL     1       3.823   4.282  18.077  0.00  0.00    +0.000 C 
BRANCH  17  23
ATOM     18  C   UNL     1       3.479   2.921  20.237  0.00  0.00    +0.000 A 
ATOM     19  C   UNL     1       2.656   2.528  21.301  0.00  0.00    +0.000 A 
ATOM     20  C   UNL     1       1.292   2.813  21.283  0.00  0.00    +0.000 A 
ATOM     21  C   UNL     1       0.750   3.526  20.219  0.00  0.00    +0.000 A 
ATOM     22  C   UNL     1       1.578   3.986  19.191  0.00  0.00    +0.000 A 
ATOM     23  C   UNL     1       2.955   3.705  19.189  0.00  0.00    +0.000 A 
BRANCH  18  25
ATOM     24  C   UNL     1       5.169   1.352  20.782  0.00  0.00    +0.000 C 
ATOM     25  O   UNL     1       4.809   2.592  20.175  0.00  0.00    +0.000 OA
ENDBRANCH  18  25
ENDBRANCH  17  23
ENDBRANCH  16  17
ENDBRANCH   1  16
TORSDOF 4
ENDMDL
MODEL 4
REMARK VINA RESULT:      -7.4      5.754      8.608
REMARK  Name = 
REMARK  7 active torsions:
REMARK  status: ('A' for Active; 'I' for Inactive)
REMARK    1  A    between atoms: C_1  and  O_2
REMARK    2  A    between atoms: O_2  and  C_3
REMARK    3  A    between atoms: C_8  and  C_9
REMARK    4  A    between atoms: C_9  and  C_10
REMARK    5  A    between atoms: C_10  and  N_11
REMARK    6  A    between atoms: C_17  and  C_18
REMARK    7  A    between atoms: C_20  and  C_21
REMARK                            x       y       z     vdW  Elec       q    Type
REMARK                         _______ _______ _______ _____ _____    ______ ____
ROOT
ATOM      1  N   UNL     1       8.422   9.406  17.900  0.00  0.00    +0.000 NA
ATOM      2  C   UNL     1       7.890   8.219  17.918  0.00  0.00    +0.000 C 
ATOM      3  N   UNL     1       8.137   7.271  18.872  0.00  0.00    +0.000 N 
ATOM      4  N   UNL     1       7.073   7.798  16.903  0.00  0.00    +0.000 N 
ATOM      5  C   UNL     1       6.450   6.554  16.785  0.00  0.00    +0.000 A 
ATOM      6  N   UNL     1       6.136   5.876  17.911  0.00  0.00    +0.000 NA
ATOM      7  C   UNL     1       5.625   4.636  17.801  0.00  0.00    +0.000 A 
ATOM      8  C   UNL     1       5.309   3.914  19.074  0.00  0.00    +0.000 C 
ATOM      9  C   UNL     1       5.433   4.039  16.579  0.00  0.00    +0.000 A 
ATOM     10  C   UNL     1       5.751   4.798  15.469  0.00  0.00    +0.000 A 
ATOM     11  C   UNL     1       5.638   4.207  14.094  0.00  0.00    +0.000 C 
ATOM     12  N   UNL     1       6.227   6.063  15.558  0.00  0.00    +0.000 NA
ATOM     13  H   UNL     1       8.442   7.599  19.774  0.00  0.00    +0.000 HD
ATOM     14  H   UNL     1       7.386   6.588  18.960  0.00  0.00    +0.000 HD
ATOM     15  H   UNL     1       7.107   8.314  16.041  0.00  0.00    +0.000 HD
ENDROOT
BRANCH   1  16
ATOM     16  C   UNL     1       9.358   9.682  19.012  0.00  0.00    +0.000 C 
BRANCH  16  17
ATOM     17  C   UNL     1       9.231  11.100  19.571  0.00  0.00    +0.000 C 
BRANCH  17  23
ATOM     18  C   UNL     1       9.412  13.418  18.459  0.00  0.00    +0.000 A 
ATOM     19  C   UNL     1      10.147  14.344  17.706  0.00  0.00    +0.000 A 
ATOM     20  C   UNL     1      11.314  13.955  17.050  0.00  0.00    +0.000 A 
ATOM     21  C   UNL     1      11.774  12.649  17.175  0.00  0.00    +0.000 A 
ATOM     22  C   UNL     1      11.087  11.741  17.986  0.00  0.00    +0.000 A 
ATOM     23  C   UNL     1       9.907  12.111  18.651  0.00  0.00    +0.000 A 
BRANCH  18  25
ATOM     24  C   UNL     1       8.027  15.115  19.362  0.00  0.00    +0.000 C 
ATOM     25  O   UNL     1       8.218  13.735  19.054  0.00  0.00    +0.000 OA
ENDBRANCH  18  25
ENDBRANCH  17  23
ENDBRANCH  16  17
ENDBRANCH   1  16
TORSDOF 4
ENDMDL
MODEL 5
REMARK VINA RESULT:      -7.4      5.864      8.648
REMARK  Name = 
REMARK  7 active torsions:
REMARK  status: ('A' for Active; 'I' for Inactive)
REMARK    1  A    between atoms: C_1  and  O_2
REMARK    2  A    between atoms: O_2  and  C_3
REMARK    3  A    between atoms: C_8  and  C_9
REMARK    4  A    between atoms: C_9  and  C_10
REMARK    5  A    between atoms: C_10  and  N_11
REMARK    6  A    between atoms: C_17  and  C_18
REMARK    7  A    between atoms: C_20  and  C_21
REMARK                            x       y       z     vdW  Elec       q    Type
REMARK                         _______ _______ _______ _____ _____    ______ ____
ROOT
ATOM      1  N   UNL     1       8.656   8.220  18.916  0.00  0.00    +0.000 NA
ATOM      2  C   UNL     1       7.858   7.474  18.207  0.00  0.00    +0.000 C 
ATOM      3  N   UNL     1       7.260   7.866  17.043  0.00  0.00    +0.000 N 
ATOM      4  N   UNL     1       7.495   6.226  18.638  0.00  0.00    +0.000 N 
ATOM      5  C   UNL     1       6.642   5.329  17.992  0.00  0.00    +0.000 A 
ATOM      6  N   UNL     1       6.555   5.372  16.643  0.00  0.00    +0.000 NA
ATOM      7  C   UNL     1       5.662   4.577  16.024  0.00  0.00    +0.000 A 
ATOM      8  C   UNL     1       5.586   4.671  14.532  0.00  0.00    +0.000 C 
ATOM      9  C   UNL     1       4.829   3.741  16.728  0.00  0.00    +0.000 A 
ATOM     10  C   UNL     1       4.989   3.728  18.100  0.00  0.00    +0.000 A 
ATOM     11  C   UNL     1       4.081   2.896  18.957  0.00  0.00    +0.000 C 
ATOM     12  N   UNL     1       5.910   4.489  18.738  0.00  0.00    +0.000 NA
ATOM     13  H   UNL     1       7.712   8.597  16.520  0.00  0.00    +0.000 HD
ATOM     14  H   UNL     1       7.005   7.083  16.442  0.00  0.00    +0.000 HD
ATOM     15  H   UNL     1       7.642   6.013  19.608  0.00  0.00    +0.000 HD
ENDROOT
BRANCH   1  16
ATOM     16  C   UNL     1       8.879   9.577  18.374  0.00  0.00    +0.000 C 
BRANCH  16  17
ATOM     17  C   UNL     1       9.480  10.545  19.395  0.00  0.00    +0.000 C 
BRANCH  17  23
ATOM     18  C   UNL     1       9.540  13.114  19.213  0.00  0.00    +0.000 A 
ATOM     19  C   UNL     1      10.075  14.274  18.634  0.00  0.00    +0.000 A 
ATOM     20  C   UNL     1      10.890  14.190  17.507  0.00  0.00    +0.000 A 
ATOM     21  C   UNL     1      11.206  12.946  16.974  0.00  0.00    +0.000 A 
ATOM     22  C   UNL     1      10.739  11.782  17.591  0.00  0.00    +0.000 A 
ATOM     23  C   UNL     1       9.912  11.845  18.725  0.00  0.00    +0.000 A 
BRANCH  18  25
ATOM     24  C   UNL     1       9.234  13.551  21.521  0.00  0.00    +0.000 C 
ATOM     25  O   UNL     1       8.670  13.154  20.272  0.00  0.00    +0.000 OA
ENDBRANCH  18  25
ENDBRANCH  17  23
ENDBRANCH  16  17
ENDBRANCH   1  16
TORSDOF 4
ENDMDL
MODEL 6
REMARK VINA RESULT:      -7.4      1.010      1.105
REMARK  Name = 
REMARK  7 active torsions:
REMARK  status: ('A' for Active; 'I' for Inactive)
REMARK    1  A    between atoms: C_1  and  O_2
REMARK    2  A    between atoms: O_2  and  C_3
REMARK    3  A    between atoms: C_8  and  C_9
REMARK    4  A    between atoms: C_9  and  C_10
REMARK    5  A    between atoms: C_10  and  N_11
REMARK    6  A    between atoms: C_17  and  C_18
REMARK    7  A    between atoms: C_20  and  C_21
REMARK                            x       y       z     vdW  Elec       q    Type
REMARK                         _______ _______ _______ _____ _____    ______ ____
ROOT
ATOM      1  N   UNL     1       3.399   6.288  18.689  0.00  0.00    +0.000 NA
ATOM      2  C   UNL     1       2.556   6.946  19.431  0.00  0.00    +0.000 C 
ATOM      3  N   UNL     1       1.971   6.454  20.564  0.00  0.00    +0.000 N 
ATOM      4  N   UNL     1       2.127   8.195  19.070  0.00  0.00    +0.000 N 
ATOM      5  C   UNL     1       1.220   9.004  19.758  0.00  0.00    +0.000 A 
ATOM      6  N   UNL     1       1.126   8.878  21.101  0.00  0.00    +0.000 NA
ATOM      7  C   UNL     1       0.186   9.585  21.755  0.00  0.00    +0.000 A 
ATOM      8  C   UNL     1       0.104   9.400  23.238  0.00  0.00    +0.000 C 
ATOM      9  C   UNL     1      -0.687  10.414  21.092  0.00  0.00    +0.000 A 
ATOM     10  C   UNL     1      -0.518  10.515  19.724  0.00  0.00    +0.000 A 
ATOM     11  C   UNL     1      -1.464  11.345  18.907  0.00  0.00    +0.000 C 
ATOM     12  N   UNL     1       0.449   9.844  19.053  0.00  0.00    +0.000 NA
ATOM     13  H   UNL     1       2.459   5.720  21.049  0.00  0.00    +0.000 HD
ATOM     14  H   UNL     1       1.669   7.186  21.207  0.00  0.00    +0.000 HD
ATOM     15  H   UNL     1       2.269   8.472  18.115  0.00  0.00    +0.000 HD
ENDROOT
BRANCH   1  16
ATOM     16  C   UNL     1       3.694   4.915  19.154  0.00  0.00    +0.000 C 
BRANCH  16  17
ATOM     17  C   UNL     1       5.173   4.544  19.044  0.00  0.00    +0.000 C 
BRANCH  17  23
ATOM     18  C   UNL     1       6.801   5.290  17.191  0.00  0.00    +0.000 A 
ATOM     19  C   UNL     1       7.254   5.193  15.868  0.00  0.00    +0.000 A 
ATOM     20  C   UNL     1       6.509   4.503  14.914  0.00  0.00    +0.000 A 
ATOM     21  C   UNL     1       5.326   3.873  15.285  0.00  0.00    +0.000 A 
ATOM     22  C   UNL     1       4.907   3.902  16.619  0.00  0.00    +0.000 A 
ATOM     23  C   UNL     1       5.642   4.596  17.594  0.00  0.00    +0.000 A 
BRANCH  18  25
ATOM     24  C   UNL     1       7.706   7.390  17.810  0.00  0.00    +0.000 C 
ATOM     25  O   UNL     1       7.460   6.025  18.143  0.00  0.00    +0.000 OA
ENDBRANCH  18  25
ENDBRANCH  17  23
ENDBRANCH  16  17
ENDBRANCH   1  16
TORSDOF 4
ENDMDL
MODEL 7
REMARK VINA RESULT:      -7.4      5.367      7.348
REMARK  Name = 
REMARK  7 active torsions:
REMARK  status: ('A' for Active; 'I' for Inactive)
REMARK    1  A    between atoms: C_1  and  O_2
REMARK    2  A    between atoms: O_2  and  C_3
REMARK    3  A    between atoms: C_8  and  C_9
REMARK    4  A    between atoms: C_9  and  C_10
REMARK    5  A    between atoms: C_10  and  N_11
REMARK    6  A    between atoms: C_17  and  C_18
REMARK    7  A    between atoms: C_20  and  C_21
REMARK                            x       y       z     vdW  Elec       q    Type
REMARK                         _______ _______ _______ _____ _____    ______ ____
ROOT
ATOM      1  N   UNL     1       7.589   8.154  17.411  0.00  0.00    +0.000 NA
ATOM      2  C   UNL     1       8.301   9.073  17.996  0.00  0.00    +0.000 C 
ATOM      3  N   UNL     1       8.986   8.898  19.166  0.00  0.00    +0.000 N 
ATOM      4  N   UNL     1       8.353  10.347  17.496  0.00  0.00    +0.000 N 
ATOM      5  C   UNL     1       9.059  11.429  18.025  0.00  0.00    +0.000 A 
ATOM      6  N   UNL     1      10.188  11.187  18.729  0.00  0.00    +0.000 NA
ATOM      7  C   UNL     1      10.817  12.219  19.322  0.00  0.00    +0.000 A 
ATOM      8  C   UNL     1      12.051  11.903  20.107  0.00  0.00    +0.000 C 
ATOM      9  C   UNL     1      10.333  13.503  19.243  0.00  0.00    +0.000 A 
ATOM     10  C   UNL     1       9.191  13.682  18.486  0.00  0.00    +0.000 A 
ATOM     11  C   UNL     1       8.552  15.037  18.396  0.00  0.00    +0.000 C 
ATOM     12  N   UNL     1       8.567  12.664  17.848  0.00  0.00    +0.000 NA
ATOM     13  H   UNL     1       9.255   7.958  19.402  0.00  0.00    +0.000 HD
ATOM     14  H   UNL     1       9.767   9.545  19.272  0.00  0.00    +0.000 HD
ATOM     15  H   UNL     1       7.640  10.613  16.840  0.00  0.00    +0.000 HD
ENDROOT
BRANCH   1  16
ATOM     16  C   UNL     1       7.551   6.856  18.120  0.00  0.00    +0.000 C 
BRANCH  16  17
ATOM     17  C   UNL     1       6.647   5.824  17.443  0.00  0.00    +0.000 C 
BRANCH  17  23
ATOM     18  C   UNL     1       4.634   5.085  18.872  0.00  0.00    +0.000 A 
ATOM     19  C   UNL     1       3.351   5.338  19.376  0.00  0.00    +0.000 A 
ATOM     20  C   UNL     1       2.588   6.389  18.873  0.00  0.00    +0.000 A 
ATOM     21  C   UNL     1       3.117   7.218  17.890  0.00  0.00    +0.000 A 
ATOM     22  C   UNL     1       4.424   7.018  17.436  0.00  0.00    +0.000 A 
ATOM     23  C   UNL     1       5.208   5.961  17.927  0.00  0.00    +0.000 A 
BRANCH  18  25
ATOM     24  C   UNL     1       4.655   2.859  19.682  0.00  0.00    +0.000 C 
ATOM     25  O   UNL     1       5.388   4.014  19.279  0.00  0.00    +0.000 OA
ENDBRANCH  18  25
ENDBRANCH  17  23
ENDBRANCH  16  17
ENDBRANCH   1  16
TORSDOF 4
ENDMDL
MODEL 8
REMARK VINA RESULT:      -7.3      1.257      2.180
REMARK  Name = 
REMARK  7 active torsions:
REMARK  status: ('A' for Active; 'I' for Inactive)
REMARK    1  A    between atoms: C_1  and  O_2
REMARK    2  A    between atoms: O_2  and  C_3
REMARK    3  A    between atoms: C_8  and  C_9
REMARK    4  A    between atoms: C_9  and  C_10
REMARK    5  A    between atoms: C_10  and  N_11
REMARK    6  A    between atoms: C_17  and  C_18
REMARK    7  A    between atoms: C_20  and  C_21
REMARK                            x       y       z     vdW  Elec       q    Type
REMARK                         _______ _______ _______ _____ _____    ______ ____
ROOT
ATOM      1  N   UNL     1       3.262   5.904  18.904  0.00  0.00    +0.000 NA
ATOM      2  C   UNL     1       2.459   6.663  19.591  0.00  0.00    +0.000 C 
ATOM      3  N   UNL     1       1.781   6.265  20.709  0.00  0.00    +0.000 N 
ATOM      4  N   UNL     1       2.173   7.938  19.180  0.00  0.00    +0.000 N 
ATOM      5  C   UNL     1       1.324   8.852  19.807  0.00  0.00    +0.000 A 
ATOM      6  N   UNL     1       1.161   8.775  21.147  0.00  0.00    +0.000 NA
ATOM      7  C   UNL     1       0.271   9.591  21.741  0.00  0.00    +0.000 A 
ATOM      8  C   UNL     1       0.109   9.459  23.223  0.00  0.00    +0.000 C 
ATOM      9  C   UNL     1      -0.486  10.483  21.020  0.00  0.00    +0.000 A 
ATOM     10  C   UNL     1      -0.251  10.527  19.659  0.00  0.00    +0.000 A 
ATOM     11  C   UNL     1      -1.075  11.422  18.781  0.00  0.00    +0.000 C 
ATOM     12  N   UNL     1       0.671   9.744  19.048  0.00  0.00    +0.000 NA
ATOM     13  H   UNL     1       2.172   5.501  21.233  0.00  0.00    +0.000 HD
ATOM     14  H   UNL     1       1.527   7.042  21.319  0.00  0.00    +0.000 HD
ATOM     15  H   UNL     1       2.382   8.172  18.226  0.00  0.00    +0.000 HD
ENDROOT
BRANCH   1  16
ATOM     16  C   UNL     1       3.397   4.523  19.416  0.00  0.00    +0.000 C 
BRANCH  16  17
ATOM     17  C   UNL     1       4.539   3.744  18.759  0.00  0.00    +0.000 C 
BRANCH  17  23
ATOM     18  C   UNL     1       5.904   5.035  16.996  0.00  0.00    +0.000 A 
ATOM     19  C   UNL     1       6.870   6.001  16.684  0.00  0.00    +0.000 A 
ATOM     20  C   UNL     1       7.679   6.541  17.682  0.00  0.00    +0.000 A 
ATOM     21  C   UNL     1       7.501   6.146  19.003  0.00  0.00    +0.000 A 
ATOM     22  C   UNL     1       6.489   5.240  19.332  0.00  0.00    +0.000 A 
ATOM     23  C   UNL     1       5.667   4.681  18.340  0.00  0.00    +0.000 A 
BRANCH  18  25
ATOM     24  C   UNL     1       5.820   4.091  14.824  0.00  0.00    +0.000 C 
ATOM     25  O   UNL     1       5.142   4.419  16.036  0.00  0.00    +0.000 OA
ENDBRANCH  18  25
ENDBRANCH  17  23
ENDBRANCH  16  17
ENDBRANCH   1  16
TORSDOF 4
ENDMDL
MODEL 9
REMARK VINA RESULT:      -7.3      3.144      8.633
REMARK  Name = 
REMARK  7 active torsions:
REMARK  status: ('A' for Active; 'I' for Inactive)
REMARK    1  A    between atoms: C_1  and  O_2
REMARK    2  A    between atoms: O_2  and  C_3
REMARK    3  A    between atoms: C_8  and  C_9
REMARK    4  A    between atoms: C_9  and  C_10
REMARK    5  A    between atoms: C_10  and  N_11
REMARK    6  A    between atoms: C_17  and  C_18
REMARK    7  A    between atoms: C_20  and  C_21
REMARK                            x       y       z     vdW  Elec       q    Type
REMARK                         _______ _______ _______ _____ _____    ______ ____
ROOT
ATOM      1  N   UNL     1       1.226   9.132  19.752  0.00  0.00    +0.000 NA
ATOM      2  C   UNL     1       1.893   8.314  18.991  0.00  0.00    +0.000 C 
ATOM      3  N   UNL     1       2.128   8.511  17.659  0.00  0.00    +0.000 N 
ATOM      4  N   UNL     1       2.356   7.120  19.476  0.00  0.00    +0.000 N 
ATOM      5  C   UNL     1       3.068   6.146  18.774  0.00  0.00    +0.000 A 
ATOM      6  N   UNL     1       3.847   6.532  17.738  0.00  0.00    +0.000 NA
ATOM      7  C   UNL     1       4.457   5.588  16.998  0.00  0.00    +0.000 A 
ATOM      8  C   UNL     1       5.294   6.058  15.850  0.00  0.00    +0.000 C 
ATOM      9  C   UNL     1       4.295   4.248  17.258  0.00  0.00    +0.000 A 
ATOM     10  C   UNL     1       3.507   3.926  18.346  0.00  0.00    +0.000 A 
ATOM     11  C   UNL     1       3.218   2.489  18.669  0.00  0.00    +0.000 C 
ATOM     12  N   UNL     1       2.918   4.862  19.128  0.00  0.00    +0.000 NA
ATOM     13  H   UNL     1       2.113   9.461  17.327  0.00  0.00    +0.000 HD
ATOM     14  H   UNL     1       2.952   8.014  17.322  0.00  0.00    +0.000 HD
ATOM     15  H   UNL     1       1.953   6.784  20.333  0.00  0.00    +0.000 HD
ENDROOT
BRANCH   1  16
ATOM     16  C   UNL     1       0.705  10.333  19.064  0.00  0.00    +0.000 C 
BRANCH  16  17
ATOM     17  C   UNL     1      -0.648  10.799  19.603  0.00  0.00    +0.000 C 
BRANCH  17  23
ATOM     18  C   UNL     1      -2.870  11.550  18.535  0.00  0.00    +0.000 A 
ATOM     19  C   UNL     1      -3.750  11.545  17.445  0.00  0.00    +0.000 A 
ATOM     20  C   UNL     1      -3.556  10.663  16.383  0.00  0.00    +0.000 A 
ATOM     21  C   UNL     1      -2.460   9.808  16.388  0.00  0.00    +0.000 A 
ATOM     22  C   UNL     1      -1.537   9.861  17.436  0.00  0.00    +0.000 A 
ATOM     23  C   UNL     1      -1.717  10.739  18.517  0.00  0.00    +0.000 A 
BRANCH  18  25
ATOM     24  C   UNL     1      -4.428  12.605  19.975  0.00  0.00    +0.000 C 
ATOM     25  O   UNL     1      -3.067  12.343  19.637  0.00  0.00    +0.000 OA
ENDBRANCH  18  25
ENDBRANCH  17  23
ENDBRANCH  16  17
ENDBRANCH   1  16
TORSDOF 4
ENDMDL
