MODEL 1
REMARK VINA RESULT:      -8.7      0.000      0.000
REMARK  Name = 
REMARK  7 active torsions:
REMARK  status: ('A' for Active; 'I' for Inactive)
REMARK    1  A    between atoms: C_1  and  C_2
REMARK    2  A    between atoms: C_2  and  C_3
REMARK    3  A    between atoms: C_3  and  N_4
REMARK    4  A    between atoms: C_5  and  C_7
REMARK    5  A    between atoms: C_8  and  N_9
REMARK    6  A    between atoms: N_10  and  C_11
REMARK    7  A    between atoms: C_11  and  C_12
REMARK                            x       y       z     vdW  Elec       q    Type
REMARK                         _______ _______ _______ _____ _____    ______ ____
ROOT
ATOM      1  C   UNL     1       5.420   4.864  16.997  0.00  0.00    +0.000 A 
ATOM      2  C   UNL     1       5.580   4.245  18.246  0.00  0.00    +0.000 A 
ATOM      3  N   UNL     1       4.299   4.022  18.664  0.00  0.00    +0.000 N 
ATOM      4  C   UNL     1       3.734   5.250  18.503  0.00  0.00    +0.000 A 
ATOM      5  N   UNL     1       2.787   5.714  19.294  0.00  0.00    +0.000 NA
ATOM      6  C   UNL     1       2.473   6.967  19.003  0.00  0.00    +0.000 A 
ATOM      7  C   UNL     1       1.650   7.572  19.921  0.00  0.00    +0.000 A 
ATOM      8  C   UNL     1       1.265   8.897  19.781  0.00  0.00    +0.000 A 
ATOM      9  C   UNL     1       1.708   9.580  18.658  0.00  0.00    +0.000 A 
ATOM     10  C   UNL     1       2.547   8.942  17.713  0.00  0.00    +0.000 A 
ATOM     11  C   UNL     1       2.995   7.625  17.837  0.00  0.00    +0.000 A 
ATOM     12  N   UNL     1       3.888   7.042  16.969  0.00  0.00    +0.000 NA
ATOM     13  C   UNL     1       4.339   5.815  17.361  0.00  0.00    +0.000 A 
ENDROOT
BRANCH   1  15
ATOM     14  N   UNL     1       5.885   4.378  14.690  0.00  0.00    +0.000 N 
ATOM     15  C   UNL     1       6.446   4.633  15.952  0.00  0.00    +0.000 C 
ATOM     16  O   UNL     1       7.649   4.749  16.147  0.00  0.00    +0.000 OA
ATOM     17  H   UNL     1       4.881   4.504  14.630  0.00  0.00    +0.000 HD
BRANCH  14  18
ATOM     18  C   UNL     1       6.512   4.323  13.379  0.00  0.00    +0.000 C 
BRANCH  18  20
ATOM     19  C   UNL     1       4.657   3.442  11.856  0.00  0.00    +0.000 C 
ATOM     20  C   UNL     1       6.038   3.207  12.452  0.00  0.00    +0.000 C 
ENDBRANCH  18  20
ENDBRANCH  14  18
ENDBRANCH   1  15
BRANCH   2  21
ATOM     21  N   UNL     1       6.571   4.628  19.136  0.00  0.00    +0.000 N 
ATOM     22  H   UNL     1       7.054   5.495  18.868  0.00  0.00    +0.000 HD
ATOM     23  H   UNL     1       6.172   4.873  20.049  0.00  0.00    +0.000 HD
ENDBRANCH   2  21
BRANCH   3  24
ATOM     24  C   UNL     1       3.442   2.866  18.381  0.00  0.00    +0.000 C 
BRANCH  24  25
ATOM     25  C   UNL     1       2.728   2.303  19.588  0.00  0.00    +0.000 C 
ATOM     26  C   UNL     1       1.274   2.736  19.759  0.00  0.00    +0.000 C 
ATOM     27  C   UNL     1       1.129   2.681  21.259  0.00  0.00    +0.000 C 
ATOM     28  C   UNL     1       2.481   3.179  21.720  0.00  0.00    +0.000 C 
ATOM     29  O   UNL     1       3.433   2.653  20.794  0.00  0.00    +0.000 OA
ENDBRANCH  24  25
ENDBRANCH   3  24
TORSDOF 6
ENDMDL
MODEL 2
REMARK VINA RESULT:      -8.3      1.234      1.459
REMARK  Name = 
REMARK  7 active torsions:
REMARK  status: ('A' for Active; 'I' for Inactive)
REMARK    1  A    between atoms: C_1  and  C_2
REMARK    2  A    between atoms: C_2  and  C_3
REMARK    3  A    between atoms: C_3  and  N_4
REMARK    4  A    between atoms: C_5  and  C_7
REMARK    5  A    between atoms: C_8  and  N_9
REMARK    6  A    between atoms: N_10  and  C_11
REMARK    7  A    between atoms: C_11  and  C_12
REMARK                            x       y       z     vdW  Elec       q    Type
REMARK                         _______ _______ _______ _____ _____    ______ ____
ROOT
ATOM      1  C   UNL     1       4.418   6.077  17.091  0.00  0.00    +0.000 A 
ATOM      2  C   UNL     1       4.818   5.249  18.149  0.00  0.00    +0.000 A 
ATOM      3  N   UNL     1       3.639   4.852  18.714  0.00  0.00    +0.000 N 
ATOM      4  C   UNL     1       3.001   6.041  18.893  0.00  0.00    +0.000 A 
ATOM      5  N   UNL     1       2.183   6.273  19.901  0.00  0.00    +0.000 NA
ATOM      6  C   UNL     1       1.768   7.530  19.918  0.00  0.00    +0.000 A 
ATOM      7  C   UNL     1       1.089   7.886  21.058  0.00  0.00    +0.000 A 
ATOM      8  C   UNL     1       0.627   9.180  21.246  0.00  0.00    +0.000 A 
ATOM      9  C   UNL     1       0.839  10.094  20.226  0.00  0.00    +0.000 A 
ATOM     10  C   UNL     1       1.531   9.712  19.051  0.00  0.00    +0.000 A 
ATOM     11  C   UNL     1       2.052   8.434  18.839  0.00  0.00    +0.000 A 
ATOM     12  N   UNL     1       2.808   8.096  17.741  0.00  0.00    +0.000 NA
ATOM     13  C   UNL     1       3.374   6.856  17.804  0.00  0.00    +0.000 A 
ENDROOT
BRANCH   1  15
ATOM     14  N   UNL     1       5.989   4.945  15.669  0.00  0.00    +0.000 N 
ATOM     15  C   UNL     1       5.259   6.127  15.871  0.00  0.00    +0.000 C 
ATOM     16  O   UNL     1       5.243   7.056  15.074  0.00  0.00    +0.000 OA
ATOM     17  H   UNL     1       5.760   4.183  16.297  0.00  0.00    +0.000 HD
BRANCH  14  18
ATOM     18  C   UNL     1       6.743   4.494  14.510  0.00  0.00    +0.000 C 
BRANCH  18  20
ATOM     19  C   UNL     1       6.683   3.607  12.113  0.00  0.00    +0.000 C 
ATOM     20  C   UNL     1       5.953   3.745  13.441  0.00  0.00    +0.000 C 
ENDBRANCH  18  20
ENDBRANCH  14  18
ENDBRANCH   1  15
BRANCH   2  21
ATOM     21  N   UNL     1       5.929   5.532  18.928  0.00  0.00    +0.000 N 
ATOM     22  H   UNL     1       6.822   5.310  18.469  0.00  0.00    +0.000 HD
ATOM     23  H   UNL     1       6.014   6.542  19.095  0.00  0.00    +0.000 HD
ENDBRANCH   2  21
BRANCH   3  24
ATOM     24  C   UNL     1       2.799   3.708  18.347  0.00  0.00    +0.000 C 
BRANCH  24  25
ATOM     25  C   UNL     1       2.411   2.817  19.505  0.00  0.00    +0.000 C 
ATOM     26  C   UNL     1       0.991   2.999  20.036  0.00  0.00    +0.000 C 
ATOM     27  C   UNL     1       1.170   2.621  21.483  0.00  0.00    +0.000 C 
ATOM     28  C   UNL     1       2.535   3.197  21.789  0.00  0.00    +0.000 C 
ATOM     29  O   UNL     1       3.318   3.008  20.608  0.00  0.00    +0.000 OA
ENDBRANCH  24  25
ENDBRANCH   3  24
TORSDOF 6
ENDMDL
MODEL 3
REMARK VINA RESULT:      -8.1      2.771      5.077
REMARK  Name = 
REMARK  7 active torsions:
REMARK  status: ('A' for Active; 'I' for Inactive)
REMARK    1  A    between atoms: C_1  and  C_2
REMARK    2  A    between atoms: C_2  and  C_3
REMARK    3  A    between atoms: C_3  and  N_4
REMARK    4  A    between atoms: C_5  and  C_7
REMARK    5  A    between atoms: C_8  and  N_9
REMARK    6  A    between atoms: N_10  and  C_11
REMARK    7  A    between atoms: C_11  and  C_12
REMARK                            x       y       z     vdW  Elec       q    Type
REMARK                         _______ _______ _______ _____ _____    ______ ____
ROOT
ATOM      1  C   UNL     1       6.004   4.905  15.678  0.00  0.00    +0.000 A 
ATOM      2  C   UNL     1       5.820   6.242  16.062  0.00  0.00    +0.000 A 
ATOM      3  N   UNL     1       5.823   6.191  17.427  0.00  0.00    +0.000 N 
ATOM      4  C   UNL     1       4.914   5.209  17.673  0.00  0.00    +0.000 A 
ATOM      5  N   UNL     1       4.127   5.207  18.730  0.00  0.00    +0.000 NA
ATOM      6  C   UNL     1       3.259   4.208  18.697  0.00  0.00    +0.000 A 
ATOM      7  C   UNL     1       2.279   4.277  19.657  0.00  0.00    +0.000 A 
ATOM      8  C   UNL     1       1.271   3.327  19.725  0.00  0.00    +0.000 A 
ATOM      9  C   UNL     1       1.308   2.282  18.815  0.00  0.00    +0.000 A 
ATOM     10  C   UNL     1       2.330   2.216  17.837  0.00  0.00    +0.000 A 
ATOM     11  C   UNL     1       3.338   3.173  17.703  0.00  0.00    +0.000 A 
ATOM     12  N   UNL     1       4.269   3.158  16.691  0.00  0.00    +0.000 NA
ATOM     13  C   UNL     1       5.054   4.272  16.628  0.00  0.00    +0.000 A 
ENDROOT
BRANCH   1  15
ATOM     14  N   UNL     1       6.118   3.623  13.649  0.00  0.00    +0.000 N 
ATOM     15  C   UNL     1       6.735   4.621  14.420  0.00  0.00    +0.000 C 
ATOM     16  O   UNL     1       7.714   5.256  14.047  0.00  0.00    +0.000 OA
ATOM     17  H   UNL     1       5.209   3.320  13.982  0.00  0.00    +0.000 HD
BRANCH  14  18
ATOM     18  C   UNL     1       6.368   3.208  12.278  0.00  0.00    +0.000 C 
BRANCH  18  20
ATOM     19  C   UNL     1       4.048   3.259  11.205  0.00  0.00    +0.000 C 
ATOM     20  C   UNL     1       5.254   2.417  11.600  0.00  0.00    +0.000 C 
ENDBRANCH  18  20
ENDBRANCH  14  18
ENDBRANCH   1  15
BRANCH   2  21
ATOM     21  N   UNL     1       4.969   7.095  15.376  0.00  0.00    +0.000 N 
ATOM     22  H   UNL     1       4.668   7.908  15.928  0.00  0.00    +0.000 HD
ATOM     23  H   UNL     1       5.450   7.535  14.582  0.00  0.00    +0.000 HD
ENDBRANCH   2  21
BRANCH   3  24
ATOM     24  C   UNL     1       6.975   6.258  18.332  0.00  0.00    +0.000 C 
BRANCH  24  25
ATOM     25  C   UNL     1       7.989   7.323  17.981  0.00  0.00    +0.000 C 
ATOM     26  C   UNL     1       8.639   8.035  19.165  0.00  0.00    +0.000 C 
ATOM     27  C   UNL     1       8.928   9.388  18.567  0.00  0.00    +0.000 C 
ATOM     28  C   UNL     1       7.716   9.607  17.691  0.00  0.00    +0.000 C 
ATOM     29  O   UNL     1       7.387   8.328  17.143  0.00  0.00    +0.000 OA
ENDBRANCH  24  25
ENDBRANCH   3  24
TORSDOF 6
ENDMDL
MODEL 4
REMARK VINA RESULT:      -8.1      2.928      6.022
REMARK  Name = 
REMARK  7 active torsions:
REMARK  status: ('A' for Active; 'I' for Inactive)
REMARK    1  A    between atoms: C_1  and  C_2
REMARK    2  A    between atoms: C_2  and  C_3
REMARK    3  A    between atoms: C_3  and  N_4
REMARK    4  A    between atoms: C_5  and  C_7
REMARK    5  A    between atoms: C_8  and  N_9
REMARK    6  A    between atoms: N_10  and  C_11
REMARK    7  A    between atoms: C_11  and  C_12
REMARK                            x       y       z     vdW  Elec       q    Type
REMARK                         _______ _______ _______ _____ _____    ______ ____
ROOT
ATOM      1  C   UNL     1       6.700   6.184  17.758  0.00  0.00    +0.000 A 
ATOM      2  C   UNL     1       7.153   4.989  17.181  0.00  0.00    +0.000 A 
ATOM      3  N   UNL     1       6.137   4.628  16.342  0.00  0.00    +0.000 N 
ATOM      4  C   UNL     1       5.055   4.701  17.165  0.00  0.00    +0.000 A 
ATOM      5  N   UNL     1       4.013   3.901  17.053  0.00  0.00    +0.000 NA
ATOM      6  C   UNL     1       3.138   4.094  18.028  0.00  0.00    +0.000 A 
ATOM      7  C   UNL     1       2.140   3.151  18.087  0.00  0.00    +0.000 A 
ATOM      8  C   UNL     1       1.171   3.190  19.079  0.00  0.00    +0.000 A 
ATOM      9  C   UNL     1       1.221   4.237  19.986  0.00  0.00    +0.000 A 
ATOM     10  C   UNL     1       2.248   5.209  19.908  0.00  0.00    +0.000 A 
ATOM     11  C   UNL     1       3.268   5.184  18.955  0.00  0.00    +0.000 A 
ATOM     12  N   UNL     1       4.318   6.072  18.944  0.00  0.00    +0.000 NA
ATOM     13  C   UNL     1       5.303   5.773  18.048  0.00  0.00    +0.000 A 
ENDROOT
BRANCH   1  15
ATOM     14  N   UNL     1       7.512   8.424  17.445  0.00  0.00    +0.000 N 
ATOM     15  C   UNL     1       7.697   7.215  18.134  0.00  0.00    +0.000 C 
ATOM     16  O   UNL     1       8.529   7.061  19.019  0.00  0.00    +0.000 OA
ATOM     17  H   UNL     1       6.667   8.478  16.886  0.00  0.00    +0.000 HD
BRANCH  14  18
ATOM     18  C   UNL     1       8.108   9.732  17.668  0.00  0.00    +0.000 C 
BRANCH  18  20
ATOM     19  C   UNL     1       9.937  11.059  18.863  0.00  0.00    +0.000 C 
ATOM     20  C   UNL     1       8.987   9.870  18.907  0.00  0.00    +0.000 C 
ENDBRANCH  18  20
ENDBRANCH  14  18
ENDBRANCH   1  15
BRANCH   2  21
ATOM     21  N   UNL     1       7.857   4.041  17.907  0.00  0.00    +0.000 N 
ATOM     22  H   UNL     1       8.652   3.637  17.395  0.00  0.00    +0.000 HD
ATOM     23  H   UNL     1       8.314   4.465  18.722  0.00  0.00    +0.000 HD
ENDBRANCH   2  21
BRANCH   3  24
ATOM     24  C   UNL     1       5.927   5.033  14.949  0.00  0.00    +0.000 C 
BRANCH  24  25
ATOM     25  C   UNL     1       6.328   3.996  13.926  0.00  0.00    +0.000 C 
ATOM     26  C   UNL     1       7.210   4.496  12.784  0.00  0.00    +0.000 C 
ATOM     27  C   UNL     1       6.805   3.562  11.673  0.00  0.00    +0.000 C 
ATOM     28  C   UNL     1       5.321   3.407  11.922  0.00  0.00    +0.000 C 
ATOM     29  O   UNL     1       5.158   3.392  13.341  0.00  0.00    +0.000 OA
ENDBRANCH  24  25
ENDBRANCH   3  24
TORSDOF 6
ENDMDL
MODEL 5
REMARK VINA RESULT:      -7.9      0.988      1.261
REMARK  Name = 
REMARK  7 active torsions:
REMARK  status: ('A' for Active; 'I' for Inactive)
REMARK    1  A    between atoms: C_1  and  C_2
REMARK    2  A    between atoms: C_2  and  C_3
REMARK    3  A    between atoms: C_3  and  N_4
REMARK    4  A    between atoms: C_5  and  C_7
REMARK    5  A    between atoms: C_8  and  N_9
REMARK    6  A    between atoms: N_10  and  C_11
REMARK    7  A    between atoms: C_11  and  C_12
REMARK                            x       y       z     vdW  Elec       q    Type
REMARK                         _______ _______ _______ _____ _____    ______ ____
ROOT
ATOM      1  C   UNL     1       5.680   5.017  17.591  0.00  0.00    +0.000 A 
ATOM      2  C   UNL     1       6.010   4.747  18.928  0.00  0.00    +0.000 A 
ATOM      3  N   UNL     1       4.803   4.495  19.515  0.00  0.00    +0.000 N 
ATOM      4  C   UNL     1       4.071   5.574  19.127  0.00  0.00    +0.000 A 
ATOM      5  N   UNL     1       3.130   6.111  19.878  0.00  0.00    +0.000 NA
ATOM      6  C   UNL     1       2.633   7.211  19.333  0.00  0.00    +0.000 A 
ATOM      7  C   UNL     1       1.805   7.929  20.161  0.00  0.00    +0.000 A 
ATOM      8  C   UNL     1       1.240   9.127  19.751  0.00  0.00    +0.000 A 
ATOM      9  C   UNL     1       1.507   9.557  18.460  0.00  0.00    +0.000 A 
ATOM     10  C   UNL     1       2.352   8.801  17.612  0.00  0.00    +0.000 A 
ATOM     11  C   UNL     1       2.978   7.614  17.998  0.00  0.00    +0.000 A 
ATOM     12  N   UNL     1       3.876   6.937  17.205  0.00  0.00    +0.000 NA
ATOM     13  C   UNL     1       4.512   5.903  17.828  0.00  0.00    +0.000 A 
ENDROOT
BRANCH   1  15
ATOM     14  N   UNL     1       6.042   4.482  15.277  0.00  0.00    +0.000 N 
ATOM     15  C   UNL     1       6.650   4.650  16.532  0.00  0.00    +0.000 C 
ATOM     16  O   UNL     1       7.859   4.596  16.710  0.00  0.00    +0.000 OA
ATOM     17  H   UNL     1       5.065   4.748  15.231  0.00  0.00    +0.000 HD
BRANCH  14  18
ATOM     18  C   UNL     1       6.638   4.346  13.957  0.00  0.00    +0.000 C 
BRANCH  18  20
ATOM     19  C   UNL     1       6.626   3.015  11.774  0.00  0.00    +0.000 C 
ATOM     20  C   UNL     1       5.808   3.601  12.916  0.00  0.00    +0.000 C 
ENDBRANCH  18  20
ENDBRANCH  14  18
ENDBRANCH   1  15
BRANCH   2  21
ATOM     21  N   UNL     1       7.003   5.445  19.597  0.00  0.00    +0.000 N 
ATOM     22  H   UNL     1       7.944   5.054  19.462  0.00  0.00    +0.000 HD
ATOM     23  H   UNL     1       7.104   6.395  19.220  0.00  0.00    +0.000 HD
ENDBRANCH   2  21
BRANCH   3  24
ATOM     24  C   UNL     1       4.088   3.217  19.602  0.00  0.00    +0.000 C 
BRANCH  24  25
ATOM     25  C   UNL     1       2.616   3.297  19.268  0.00  0.00    +0.000 C 
ATOM     26  C   UNL     1       1.659   2.939  20.402  0.00  0.00    +0.000 C 
ATOM     27  C   UNL     1       0.483   2.396  19.631  0.00  0.00    +0.000 C 
ATOM     28  C   UNL     1       1.167   1.658  18.502  0.00  0.00    +0.000 C 
ATOM     29  O   UNL     1       2.310   2.440  18.151  0.00  0.00    +0.000 OA
ENDBRANCH  24  25
ENDBRANCH   3  24
TORSDOF 6
ENDMDL
MODEL 6
REMARK VINA RESULT:      -7.9      2.910      6.062
REMARK  Name = 
REMARK  7 active torsions:
REMARK  status: ('A' for Active; 'I' for Inactive)
REMARK    1  A    between atoms: C_1  and  C_2
REMARK    2  A    between atoms: C_2  and  C_3
REMARK    3  A    between atoms: C_3  and  N_4
REMARK    4  A    between atoms: C_5  and  C_7
REMARK    5  A    between atoms: C_8  and  N_9
REMARK    6  A    between atoms: N_10  and  C_11
REMARK    7  A    between atoms: C_11  and  C_12
REMARK                            x       y       z     vdW  Elec       q    Type
REMARK                         _______ _______ _______ _____ _____    ______ ____
ROOT
ATOM      1  C   UNL     1       6.956   6.393  17.315  0.00  0.00    +0.000 A 
ATOM      2  C   UNL     1       5.582   6.355  17.595  0.00  0.00    +0.000 A 
ATOM      3  N   UNL     1       5.245   5.047  17.392  0.00  0.00    +0.000 N 
ATOM      4  C   UNL     1       5.765   4.812  16.156  0.00  0.00    +0.000 A 
ATOM      5  N   UNL     1       5.212   3.988  15.289  0.00  0.00    +0.000 NA
ATOM      6  C   UNL     1       5.839   4.006  14.123  0.00  0.00    +0.000 A 
ATOM      7  C   UNL     1       5.187   3.333  13.119  0.00  0.00    +0.000 A 
ATOM      8  C   UNL     1       5.694   3.297  11.829  0.00  0.00    +0.000 A 
ATOM      9  C   UNL     1       6.905   3.930  11.595  0.00  0.00    +0.000 A 
ATOM     10  C   UNL     1       7.574   4.611  12.642  0.00  0.00    +0.000 A 
ATOM     11  C   UNL     1       7.078   4.711  13.943  0.00  0.00    +0.000 A 
ATOM     12  N   UNL     1       7.680   5.456  14.930  0.00  0.00    +0.000 NA
ATOM     13  C   UNL     1       6.950   5.574  16.076  0.00  0.00    +0.000 A 
ENDROOT
BRANCH   1  15
ATOM     14  N   UNL     1       7.757   8.650  17.500  0.00  0.00    +0.000 N 
ATOM     15  C   UNL     1       7.804   7.360  18.051  0.00  0.00    +0.000 C 
ATOM     16  O   UNL     1       8.402   7.087  19.084  0.00  0.00    +0.000 OA
ATOM     17  H   UNL     1       7.072   8.781  16.764  0.00  0.00    +0.000 HD
BRANCH  14  18
ATOM     18  C   UNL     1       8.246   9.914  18.027  0.00  0.00    +0.000 C 
BRANCH  18  20
ATOM     19  C   UNL     1       9.397  10.991  20.040  0.00  0.00    +0.000 C 
ATOM     20  C   UNL     1       9.365   9.826  19.060  0.00  0.00    +0.000 C 
ENDBRANCH  18  20
ENDBRANCH  14  18
ENDBRANCH   1  15
BRANCH   2  21
ATOM     21  N   UNL     1       4.726   7.383  17.229  0.00  0.00    +0.000 N 
ATOM     22  H   UNL     1       4.433   7.344  16.244  0.00  0.00    +0.000 HD
ATOM     23  H   UNL     1       3.831   7.313  17.727  0.00  0.00    +0.000 HD
ENDBRANCH   2  21
BRANCH   3  24
ATOM     24  C   UNL     1       5.307   3.937  18.349  0.00  0.00    +0.000 C 
BRANCH  24  25
ATOM     25  C   UNL     1       3.961   3.392  18.767  0.00  0.00    +0.000 C 
ATOM     26  C   UNL     1       3.501   2.131  18.038  0.00  0.00    +0.000 C 
ATOM     27  C   UNL     1       2.004   2.298  18.084  0.00  0.00    +0.000 C 
ATOM     28  C   UNL     1       1.851   3.791  17.891  0.00  0.00    +0.000 C 
ATOM     29  O   UNL     1       2.940   4.394  18.592  0.00  0.00    +0.000 OA
ENDBRANCH  24  25
ENDBRANCH   3  24
TORSDOF 6
ENDMDL
MODEL 7
REMARK VINA RESULT:      -7.6      2.760      5.838
REMARK  Name = 
REMARK  7 active torsions:
REMARK  status: ('A' for Active; 'I' for Inactive)
REMARK    1  A    between atoms: C_1  and  C_2
REMARK    2  A    between atoms: C_2  and  C_3
REMARK    3  A    between atoms: C_3  and  N_4
REMARK    4  A    between atoms: C_5  and  C_7
REMARK    5  A    between atoms: C_8  and  N_9
REMARK    6  A    between atoms: N_10  and  C_11
REMARK    7  A    between atoms: C_11  and  C_12
REMARK                            x       y       z     vdW  Elec       q    Type
REMARK                         _______ _______ _______ _____ _____    ______ ____
ROOT
ATOM      1  C   UNL     1       6.832   5.872  17.603  0.00  0.00    +0.000 A 
ATOM      2  C   UNL     1       5.444   5.976  17.782  0.00  0.00    +0.000 A 
ATOM      3  N   UNL     1       4.975   4.753  17.395  0.00  0.00    +0.000 N 
ATOM      4  C   UNL     1       5.564   4.600  16.178  0.00  0.00    +0.000 A 
ATOM      5  N   UNL     1       4.991   3.957  15.179  0.00  0.00    +0.000 NA
ATOM      6  C   UNL     1       5.710   4.031  14.070  0.00  0.00    +0.000 A 
ATOM      7  C   UNL     1       5.069   3.567  12.947  0.00  0.00    +0.000 A 
ATOM      8  C   UNL     1       5.673   3.617  11.700  0.00  0.00    +0.000 A 
ATOM      9  C   UNL     1       6.965   4.115  11.630  0.00  0.00    +0.000 A 
ATOM     10  C   UNL     1       7.620   4.581  12.796  0.00  0.00    +0.000 A 
ATOM     11  C   UNL     1       7.034   4.591  14.063  0.00  0.00    +0.000 A 
ATOM     12  N   UNL     1       7.636   5.134  15.174  0.00  0.00    +0.000 NA
ATOM     13  C   UNL     1       6.832   5.210  16.274  0.00  0.00    +0.000 A 
ENDROOT
BRANCH   1  15
ATOM     14  N   UNL     1       8.043   7.906  18.013  0.00  0.00    +0.000 N 
ATOM     15  C   UNL     1       7.724   6.632  18.510  0.00  0.00    +0.000 C 
ATOM     16  O   UNL     1       8.065   6.234  19.616  0.00  0.00    +0.000 OA
ATOM     17  H   UNL     1       7.536   8.184  17.179  0.00  0.00    +0.000 HD
BRANCH  14  18
ATOM     18  C   UNL     1       8.686   9.035  18.666  0.00  0.00    +0.000 C 
BRANCH  18  20
ATOM     19  C   UNL     1       9.745  11.332  18.294  0.00  0.00    +0.000 C 
ATOM     20  C   UNL     1       8.627  10.367  17.925  0.00  0.00    +0.000 C 
ENDBRANCH  18  20
ENDBRANCH  14  18
ENDBRANCH   1  15
BRANCH   2  21
ATOM     21  N   UNL     1       4.748   7.138  17.491  0.00  0.00    +0.000 N 
ATOM     22  H   UNL     1       4.690   7.793  18.282  0.00  0.00    +0.000 HD
ATOM     23  H   UNL     1       5.239   7.694  16.781  0.00  0.00    +0.000 HD
ENDBRANCH   2  21
BRANCH   3  24
ATOM     24  C   UNL     1       4.828   3.540  18.208  0.00  0.00    +0.000 C 
BRANCH  24  25
ATOM     25  C   UNL     1       3.476   2.872  18.100  0.00  0.00    +0.000 C 
ATOM     26  C   UNL     1       2.299   3.802  17.815  0.00  0.00    +0.000 C 
ATOM     27  C   UNL     1       1.173   3.060  18.490  0.00  0.00    +0.000 C 
ATOM     28  C   UNL     1       1.858   2.506  19.719  0.00  0.00    +0.000 C 
ATOM     29  O   UNL     1       3.179   2.148  19.309  0.00  0.00    +0.000 OA
ENDBRANCH  24  25
ENDBRANCH   3  24
TORSDOF 6
ENDMDL
MODEL 8
REMARK VINA RESULT:      -7.6      2.869      7.088
REMARK  Name = 
REMARK  7 active torsions:
REMARK  status: ('A' for Active; 'I' for Inactive)
REMARK    1  A    between atoms: C_1  and  C_2
REMARK    2  A    between atoms: C_2  and  C_3
REMARK    3  A    between atoms: C_3  and  N_4
REMARK    4  A    between atoms: C_5  and  C_7
REMARK    5  A    between atoms: C_8  and  N_9
REMARK    6  A    between atoms: N_10  and  C_11
REMARK    7  A    between atoms: C_11  and  C_12
REMARK                            x       y       z     vdW  Elec       q    Type
REMARK                         _______ _______ _______ _____ _____    ______ ____
ROOT
ATOM      1  C   UNL     1       5.764   4.757  17.990  0.00  0.00    +0.000 A 
ATOM      2  C   UNL     1       7.076   5.185  18.240  0.00  0.00    +0.000 A 
ATOM      3  N   UNL     1       7.280   6.166  17.311  0.00  0.00    +0.000 N 
ATOM      4  C   UNL     1       6.900   5.544  16.161  0.00  0.00    +0.000 A 
ATOM      5  N   UNL     1       7.460   5.791  14.993  0.00  0.00    +0.000 NA
ATOM      6  C   UNL     1       6.995   4.992  14.046  0.00  0.00    +0.000 A 
ATOM      7  C   UNL     1       7.688   5.055  12.862  0.00  0.00    +0.000 A 
ATOM      8  C   UNL     1       7.351   4.247  11.786  0.00  0.00    +0.000 A 
ATOM      9  C   UNL     1       6.263   3.400  11.934  0.00  0.00    +0.000 A 
ATOM     10  C   UNL     1       5.550   3.352  13.156  0.00  0.00    +0.000 A 
ATOM     11  C   UNL     1       5.882   4.114  14.278  0.00  0.00    +0.000 A 
ATOM     12  N   UNL     1       5.248   3.991  15.492  0.00  0.00    +0.000 NA
ATOM     13  C   UNL     1       5.833   4.689  16.509  0.00  0.00    +0.000 A 
ENDROOT
BRANCH   1  15
ATOM     14  N   UNL     1       3.794   5.044  19.336  0.00  0.00    +0.000 N 
ATOM     15  C   UNL     1       4.947   4.270  19.127  0.00  0.00    +0.000 C 
ATOM     16  O   UNL     1       5.196   3.248  19.753  0.00  0.00    +0.000 OA
ATOM     17  H   UNL     1       3.608   5.743  18.624  0.00  0.00    +0.000 HD
BRANCH  14  18
ATOM     18  C   UNL     1       2.633   4.793  20.175  0.00  0.00    +0.000 C 
BRANCH  18  20
ATOM     19  C   UNL     1       1.500   4.082  17.996  0.00  0.00    +0.000 C 
ATOM     20  C   UNL     1       1.475   4.048  19.518  0.00  0.00    +0.000 C 
ENDBRANCH  18  20
ENDBRANCH  14  18
ENDBRANCH   1  15
BRANCH   2  21
ATOM     21  N   UNL     1       8.086   4.302  18.587  0.00  0.00    +0.000 N 
ATOM     22  H   UNL     1       8.499   3.811  17.783  0.00  0.00    +0.000 HD
ATOM     23  H   UNL     1       8.894   4.800  18.977  0.00  0.00    +0.000 HD
ENDBRANCH   2  21
BRANCH   3  24
ATOM     24  C   UNL     1       6.964   7.594  17.418  0.00  0.00    +0.000 C 
BRANCH  24  25
ATOM     25  C   UNL     1       8.166   8.489  17.616  0.00  0.00    +0.000 C 
ATOM     26  C   UNL     1       8.751   8.511  19.026  0.00  0.00    +0.000 C 
ATOM     27  C   UNL     1       9.320   9.905  19.083  0.00  0.00    +0.000 C 
ATOM     28  C   UNL     1       8.285  10.696  18.316  0.00  0.00    +0.000 C 
ATOM     29  O   UNL     1       7.842   9.846  17.256  0.00  0.00    +0.000 OA
ENDBRANCH  24  25
ENDBRANCH   3  24
TORSDOF 6
ENDMDL
MODEL 9
REMARK VINA RESULT:      -7.3      1.789      6.291
REMARK  Name = 
REMARK  7 active torsions:
REMARK  status: ('A' for Active; 'I' for Inactive)
REMARK    1  A    between atoms: C_1  and  C_2
REMARK    2  A    between atoms: C_2  and  C_3
REMARK    3  A    between atoms: C_3  and  N_4
REMARK    4  A    between atoms: C_5  and  C_7
REMARK    5  A    between atoms: C_8  and  N_9
REMARK    6  A    between atoms: N_10  and  C_11
REMARK    7  A    between atoms: C_11  and  C_12
REMARK                            x       y       z     vdW  Elec       q    Type
REMARK                         _______ _______ _______ _____ _____    ______ ____
ROOT
ATOM      1  C   UNL     1       3.952   4.020  17.436  0.00  0.00    +0.000 A 
ATOM      2  C   UNL     1       4.969   4.501  18.274  0.00  0.00    +0.000 A 
ATOM      3  N   UNL     1       5.370   5.657  17.667  0.00  0.00    +0.000 N 
ATOM      4  C   UNL     1       5.586   5.241  16.389  0.00  0.00    +0.000 A 
ATOM      5  N   UNL     1       6.520   5.757  15.614  0.00  0.00    +0.000 NA
ATOM      6  C   UNL     1       6.606   5.120  14.457  0.00  0.00    +0.000 A 
ATOM      7  C   UNL     1       7.695   5.471  13.698  0.00  0.00    +0.000 A 
ATOM      8  C   UNL     1       7.949   4.862  12.478  0.00  0.00    +0.000 A 
ATOM      9  C   UNL     1       7.042   3.912  12.031  0.00  0.00    +0.000 A 
ATOM     10  C   UNL     1       5.917   3.568  12.818  0.00  0.00    +0.000 A 
ATOM     11  C   UNL     1       5.647   4.122  14.071  0.00  0.00    +0.000 A 
ATOM     12  N   UNL     1       4.608   3.713  14.874  0.00  0.00    +0.000 NA
ATOM     13  C   UNL     1       4.619   4.247  16.129  0.00  0.00    +0.000 A 
ENDROOT
BRANCH   1  15
ATOM     14  N   UNL     1       2.240   3.927  19.120  0.00  0.00    +0.000 N 
ATOM     15  C   UNL     1       2.836   3.254  18.041  0.00  0.00    +0.000 C 
ATOM     16  O   UNL     1       2.416   2.197  17.588  0.00  0.00    +0.000 OA
ATOM     17  H   UNL     1       2.559   4.879  19.265  0.00  0.00    +0.000 HD
BRANCH  14  18
ATOM     18  C   UNL     1       1.005   3.646  19.834  0.00  0.00    +0.000 C 
BRANCH  18  20
ATOM     19  C   UNL     1       2.586   2.698  21.605  0.00  0.00    +0.000 C 
ATOM     20  C   UNL     1       1.145   2.897  21.155  0.00  0.00    +0.000 C 
ENDBRANCH  18  20
ENDBRANCH  14  18
ENDBRANCH   1  15
BRANCH   2  21
ATOM     21  N   UNL     1       5.882   3.656  18.886  0.00  0.00    +0.000 N 
ATOM     22  H   UNL     1       5.912   2.715  18.474  0.00  0.00    +0.000 HD
ATOM     23  H   UNL     1       6.843   3.988  18.746  0.00  0.00    +0.000 HD
ENDBRANCH   2  21
BRANCH   3  24
ATOM     24  C   UNL     1       4.817   7.005  17.831  0.00  0.00    +0.000 C 
BRANCH  24  25
ATOM     25  C   UNL     1       3.316   7.051  18.005  0.00  0.00    +0.000 C 
ATOM     26  C   UNL     1       2.646   8.373  17.639  0.00  0.00    +0.000 C 
ATOM     27  C   UNL     1       1.458   8.364  18.566  0.00  0.00    +0.000 C 
ATOM     28  C   UNL     1       2.042   7.742  19.815  0.00  0.00    +0.000 C 
ATOM     29  O   UNL     1       2.961   6.744  19.367  0.00  0.00    +0.000 OA
ENDBRANCH  24  25
ENDBRANCH   3  24
TORSDOF 6
ENDMDL
