MODEL 1
REMARK VINA RESULT:      -8.4      0.000      0.000
REMARK  Name = 
REMARK  4 active torsions:
REMARK  status: ('A' for Active; 'I' for Inactive)
REMARK    1  A    between atoms: C_1  and  C_2
REMARK    2  A    between atoms: C_2  and  C_3
REMARK    3  A    between atoms: C_2  and  C_4
REMARK    4  A    between atoms: C_2  and  C_17
REMARK                            x       y       z     vdW  Elec       q    Type
REMARK                         _______ _______ _______ _____ _____    ______ ____
ROOT
ATOM      1  C   UNL     1       5.373   5.395  18.730  0.00  0.00    +0.000 C 
ATOM      2  O   UNL     1       6.249   4.829  19.390  0.00  0.00    +0.000 OA
ATOM      3  N   UNL     1       4.037   5.500  19.199  0.00  0.00    +0.000 N 
ATOM      4  C   UNL     1       3.282   6.721  18.922  0.00  0.00    +0.000 C 
ATOM      5  C   UNL     1       2.307   7.127  20.001  0.00  0.00    +0.000 C 
ATOM      6  C   UNL     1       1.345   5.985  20.235  0.00  0.00    +0.000 C 
ATOM      7  C   UNL     1       2.081   4.677  20.346  0.00  0.00    +0.000 A 
ATOM      8  C   UNL     1       1.269   3.620  20.927  0.00  0.00    +0.000 A 
ATOM      9  C   UNL     1       1.783   2.407  21.114  0.00  0.00    +0.000 A 
ATOM     10  N   UNL     1       3.078   2.162  20.770  0.00  0.00    +0.000 N 
ATOM     11  C   UNL     1       3.923   3.073  20.164  0.00  0.00    +0.000 A 
ATOM     12  O   UNL     1       5.028   2.670  19.824  0.00  0.00    +0.000 OA
ATOM     13  C   UNL     1       3.359   4.480  19.919  0.00  0.00    +0.000 A 
ATOM     14  H   UNL     1       3.478   1.245  20.910  0.00  0.00    +0.000 HD
ENDROOT
BRANCH   1  16
ATOM     15  C   UNL     1       4.802   7.154  16.780  0.00  0.00    +0.000 C 
ATOM     16  C   UNL     1       5.818   6.165  17.404  0.00  0.00    +0.000 C 
ATOM     17  C   UNL     1       7.111   6.913  17.803  0.00  0.00    +0.000 C 
BRANCH  16  18
ATOM     18  C   UNL     1       6.065   5.204  16.203  0.00  0.00    +0.000 A 
ATOM     19  C   UNL     1       5.195   4.134  15.933  0.00  0.00    +0.000 A 
ATOM     20  C   UNL     1       5.247   3.457  14.709  0.00  0.00    +0.000 A 
ATOM     21  C   UNL     1       6.163   3.836  13.729  0.00  0.00    +0.000 A 
ATOM     22  C   UNL     1       7.050   4.873  13.986  0.00  0.00    +0.000 A 
ATOM     23 CL   UNL     1       8.144   5.393  12.763  0.00  0.00    +0.000 Cl
ATOM     24  C   UNL     1       7.017   5.541  15.211  0.00  0.00    +0.000 A 
ENDBRANCH  16  18
ENDBRANCH   1  16
TORSDOF 2
ENDMDL
MODEL 2
REMARK VINA RESULT:      -8.3      1.059      1.170
REMARK  Name = 
REMARK  4 active torsions:
REMARK  status: ('A' for Active; 'I' for Inactive)
REMARK    1  A    between atoms: C_1  and  C_2
REMARK    2  A    between atoms: C_2  and  C_3
REMARK    3  A    between atoms: C_2  and  C_4
REMARK    4  A    between atoms: C_2  and  C_17
REMARK                            x       y       z     vdW  Elec       q    Type
REMARK                         _______ _______ _______ _____ _____    ______ ____
ROOT
ATOM      1  C   UNL     1       5.768   5.120  18.851  0.00  0.00    +0.000 C 
ATOM      2  O   UNL     1       6.191   4.691  19.929  0.00  0.00    +0.000 OA
ATOM      3  N   UNL     1       4.379   5.271  18.601  0.00  0.00    +0.000 N 
ATOM      4  C   UNL     1       3.921   6.411  17.810  0.00  0.00    +0.000 C 
ATOM      5  C   UNL     1       2.576   6.969  18.212  0.00  0.00    +0.000 C 
ATOM      6  C   UNL     1       1.552   5.860  18.134  0.00  0.00    +0.000 C 
ATOM      7  C   UNL     1       2.067   4.606  18.787  0.00  0.00    +0.000 A 
ATOM      8  C   UNL     1       1.015   3.642  19.067  0.00  0.00    +0.000 A 
ATOM      9  C   UNL     1       1.305   2.489  19.664  0.00  0.00    +0.000 A 
ATOM     10  N   UNL     1       2.591   2.220  20.024  0.00  0.00    +0.000 N 
ATOM     11  C   UNL     1       3.676   3.037  19.762  0.00  0.00    +0.000 A 
ATOM     12  O   UNL     1       4.782   2.607  20.059  0.00  0.00    +0.000 OA
ATOM     13  C   UNL     1       3.380   4.370  19.060  0.00  0.00    +0.000 A 
ATOM     14  H   UNL     1       2.821   1.348  20.481  0.00  0.00    +0.000 HD
ENDROOT
BRANCH   1  16
ATOM     15  C   UNL     1       6.680   7.136  17.325  0.00  0.00    +0.000 C 
ATOM     16  C   UNL     1       6.834   5.668  17.797  0.00  0.00    +0.000 C 
ATOM     17  C   UNL     1       8.203   5.474  18.491  0.00  0.00    +0.000 C 
BRANCH  16  18
ATOM     18  C   UNL     1       6.777   4.915  16.434  0.00  0.00    +0.000 A 
ATOM     19  C   UNL     1       5.808   3.929  16.185  0.00  0.00    +0.000 A 
ATOM     20  C   UNL     1       5.572   3.465  14.885  0.00  0.00    +0.000 A 
ATOM     21  C   UNL     1       6.293   3.979  13.809  0.00  0.00    +0.000 A 
ATOM     22  C   UNL     1       7.275   4.934  14.037  0.00  0.00    +0.000 A 
ATOM     23 CL   UNL     1       8.131   5.623  12.711  0.00  0.00    +0.000 Cl
ATOM     24  C   UNL     1       7.529   5.388  15.332  0.00  0.00    +0.000 A 
ENDBRANCH  16  18
ENDBRANCH   1  16
TORSDOF 2
ENDMDL
MODEL 3
REMARK VINA RESULT:      -7.8      1.195      1.223
REMARK  Name = 
REMARK  4 active torsions:
REMARK  status: ('A' for Active; 'I' for Inactive)
REMARK    1  A    between atoms: C_1  and  C_2
REMARK    2  A    between atoms: C_2  and  C_3
REMARK    3  A    between atoms: C_2  and  C_4
REMARK    4  A    between atoms: C_2  and  C_17
REMARK                            x       y       z     vdW  Elec       q    Type
REMARK                         _______ _______ _______ _____ _____    ______ ____
ROOT
ATOM      1  C   UNL     1       5.079   4.547  17.990  0.00  0.00    +0.000 C 
ATOM      2  O   UNL     1       5.744   3.557  18.307  0.00  0.00    +0.000 OA
ATOM      3  N   UNL     1       3.831   4.834  18.603  0.00  0.00    +0.000 N 
ATOM      4  C   UNL     1       3.473   6.228  18.863  0.00  0.00    +0.000 C 
ATOM      5  C   UNL     1       2.654   6.454  20.112  0.00  0.00    +0.000 C 
ATOM      6  C   UNL     1       1.396   5.622  20.020  0.00  0.00    +0.000 C 
ATOM      7  C   UNL     1       1.711   4.219  19.576  0.00  0.00    +0.000 A 
ATOM      8  C   UNL     1       0.619   3.291  19.821  0.00  0.00    +0.000 A 
ATOM      9  C   UNL     1       0.749   2.005  19.505  0.00  0.00    +0.000 A 
ATOM     10  N   UNL     1       1.916   1.558  18.962  0.00  0.00    +0.000 N 
ATOM     11  C   UNL     1       2.997   2.357  18.639  0.00  0.00    +0.000 A 
ATOM     12  O   UNL     1       3.935   1.821  18.063  0.00  0.00    +0.000 OA
ATOM     13  C   UNL     1       2.876   3.850  18.976  0.00  0.00    +0.000 A 
ATOM     14  H   UNL     1       2.026   0.583  18.721  0.00  0.00    +0.000 HD
ENDROOT
BRANCH   1  16
ATOM     15  C   UNL     1       4.846   6.762  16.486  0.00  0.00    +0.000 C 
ATOM     16  C   UNL     1       5.740   5.601  16.990  0.00  0.00    +0.000 C 
ATOM     17  C   UNL     1       6.955   6.163  17.764  0.00  0.00    +0.000 C 
BRANCH  16  18
ATOM     18  C   UNL     1       6.174   4.959  15.638  0.00  0.00    +0.000 A 
ATOM     19  C   UNL     1       5.342   4.054  14.959  0.00  0.00    +0.000 A 
ATOM     20  C   UNL     1       5.595   3.705  13.627  0.00  0.00    +0.000 A 
ATOM     21  C   UNL     1       6.679   4.257  12.945  0.00  0.00    +0.000 A 
ATOM     22  C   UNL     1       7.529   5.133  13.606  0.00  0.00    +0.000 A 
ATOM     23 CL   UNL     1       8.834   5.870  12.759  0.00  0.00    +0.000 Cl
ATOM     24  C   UNL     1       7.294   5.471  14.940  0.00  0.00    +0.000 A 
ENDBRANCH  16  18
ENDBRANCH   1  16
TORSDOF 2
ENDMDL
MODEL 4
REMARK VINA RESULT:      -7.6      2.499      3.980
REMARK  Name = 
REMARK  4 active torsions:
REMARK  status: ('A' for Active; 'I' for Inactive)
REMARK    1  A    between atoms: C_1  and  C_2
REMARK    2  A    between atoms: C_2  and  C_3
REMARK    3  A    between atoms: C_2  and  C_4
REMARK    4  A    between atoms: C_2  and  C_17
REMARK                            x       y       z     vdW  Elec       q    Type
REMARK                         _______ _______ _______ _____ _____    ______ ____
ROOT
ATOM      1  C   UNL     1       4.044   5.619  17.312  0.00  0.00    +0.000 C 
ATOM      2  O   UNL     1       3.271   6.576  17.413  0.00  0.00    +0.000 OA
ATOM      3  N   UNL     1       3.744   4.355  17.884  0.00  0.00    +0.000 N 
ATOM      4  C   UNL     1       4.134   3.141  17.168  0.00  0.00    +0.000 C 
ATOM      5  C   UNL     1       3.190   1.973  17.328  0.00  0.00    +0.000 C 
ATOM      6  C   UNL     1       3.053   1.664  18.800  0.00  0.00    +0.000 C 
ATOM      7  C   UNL     1       2.828   2.922  19.595  0.00  0.00    +0.000 A 
ATOM      8  C   UNL     1       2.329   2.661  20.936  0.00  0.00    +0.000 A 
ATOM      9  C   UNL     1       2.057   3.671  21.758  0.00  0.00    +0.000 A 
ATOM     10  N   UNL     1       2.236   4.953  21.333  0.00  0.00    +0.000 N 
ATOM     11  C   UNL     1       2.752   5.317  20.103  0.00  0.00    +0.000 A 
ATOM     12  O   UNL     1       2.947   6.509  19.910  0.00  0.00    +0.000 OA
ATOM     13  C   UNL     1       3.092   4.175  19.134  0.00  0.00    +0.000 A 
ATOM     14  H   UNL     1       2.030   5.727  21.949  0.00  0.00    +0.000 HD
ENDROOT
BRANCH   1  16
ATOM     15  C   UNL     1       5.893   4.506  15.711  0.00  0.00    +0.000 C 
ATOM     16  C   UNL     1       5.321   5.787  16.369  0.00  0.00    +0.000 C 
ATOM     17  C   UNL     1       4.872   6.788  15.280  0.00  0.00    +0.000 C 
BRANCH  16  18
ATOM     18  C   UNL     1       6.574   6.305  17.137  0.00  0.00    +0.000 A 
ATOM     19  C   UNL     1       7.051   7.614  16.954  0.00  0.00    +0.000 A 
ATOM     20  C   UNL     1       7.982   8.169  17.840  0.00  0.00    +0.000 A 
ATOM     21  C   UNL     1       8.450   7.433  18.928  0.00  0.00    +0.000 A 
ATOM     22  C   UNL     1       8.012   6.128  19.110  0.00  0.00    +0.000 A 
ATOM     23 CL   UNL     1       8.534   5.229  20.482  0.00  0.00    +0.000 Cl
ATOM     24  C   UNL     1       7.098   5.561  18.221  0.00  0.00    +0.000 A 
ENDBRANCH  16  18
ENDBRANCH   1  16
TORSDOF 2
ENDMDL
MODEL 5
REMARK VINA RESULT:      -7.5      6.120      8.669
REMARK  Name = 
REMARK  4 active torsions:
REMARK  status: ('A' for Active; 'I' for Inactive)
REMARK    1  A    between atoms: C_1  and  C_2
REMARK    2  A    between atoms: C_2  and  C_3
REMARK    3  A    between atoms: C_2  and  C_4
REMARK    4  A    between atoms: C_2  and  C_17
REMARK                            x       y       z     vdW  Elec       q    Type
REMARK                         _______ _______ _______ _____ _____    ______ ____
ROOT
ATOM      1  C   UNL     1       0.522  11.555  19.131  0.00  0.00    +0.000 C 
ATOM      2  O   UNL     1       1.493  11.962  18.487  0.00  0.00    +0.000 OA
ATOM      3  N   UNL     1       0.601  10.398  19.949  0.00  0.00    +0.000 N 
ATOM      4  C   UNL     1      -0.131  10.374  21.215  0.00  0.00    +0.000 C 
ATOM      5  C   UNL     1       0.544   9.608  22.328  0.00  0.00    +0.000 C 
ATOM      6  C   UNL     1       0.784   8.191  21.860  0.00  0.00    +0.000 C 
ATOM      7  C   UNL     1       1.374   8.175  20.476  0.00  0.00    +0.000 A 
ATOM      8  C   UNL     1       1.959   6.890  20.126  0.00  0.00    +0.000 A 
ATOM      9  C   UNL     1       2.543   6.720  18.943  0.00  0.00    +0.000 A 
ATOM     10  N   UNL     1       2.603   7.759  18.064  0.00  0.00    +0.000 N 
ATOM     11  C   UNL     1       2.037   9.004  18.268  0.00  0.00    +0.000 A 
ATOM     12  O   UNL     1       2.089   9.800  17.340  0.00  0.00    +0.000 OA
ATOM     13  C   UNL     1       1.341   9.232  19.618  0.00  0.00    +0.000 A 
ATOM     14  H   UNL     1       3.047   7.640  17.164  0.00  0.00    +0.000 HD
ENDROOT
BRANCH   1  16
ATOM     15  C   UNL     1      -1.377  12.828  20.545  0.00  0.00    +0.000 C 
ATOM     16  C   UNL     1      -0.790  12.466  19.157  0.00  0.00    +0.000 C 
ATOM     17  C   UNL     1      -0.386  13.752  18.400  0.00  0.00    +0.000 C 
BRANCH  16  18
ATOM     18  C   UNL     1      -2.017  11.775  18.491  0.00  0.00    +0.000 A 
ATOM     19  C   UNL     1      -3.312  11.929  19.012  0.00  0.00    +0.000 A 
ATOM     20  C   UNL     1      -4.436  11.558  18.265  0.00  0.00    +0.000 A 
ATOM     21  C   UNL     1      -4.291  11.032  16.982  0.00  0.00    +0.000 A 
ATOM     22  C   UNL     1      -3.018  10.846  16.460  0.00  0.00    +0.000 A 
ATOM     23 CL   UNL     1      -2.825  10.256  14.854  0.00  0.00    +0.000 Cl
ATOM     24  C   UNL     1      -1.892  11.197  17.206  0.00  0.00    +0.000 A 
ENDBRANCH  16  18
ENDBRANCH   1  16
TORSDOF 2
ENDMDL
MODEL 6
REMARK VINA RESULT:      -7.1      6.355      8.828
REMARK  Name = 
REMARK  4 active torsions:
REMARK  status: ('A' for Active; 'I' for Inactive)
REMARK    1  A    between atoms: C_1  and  C_2
REMARK    2  A    between atoms: C_2  and  C_3
REMARK    3  A    between atoms: C_2  and  C_4
REMARK    4  A    between atoms: C_2  and  C_17
REMARK                            x       y       z     vdW  Elec       q    Type
REMARK                         _______ _______ _______ _____ _____    ______ ____
ROOT
ATOM      1  C   UNL     1       0.628  11.445  19.108  0.00  0.00    +0.000 C 
ATOM      2  O   UNL     1       1.602  11.846  18.463  0.00  0.00    +0.000 OA
ATOM      3  N   UNL     1       0.701  10.286  19.925  0.00  0.00    +0.000 N 
ATOM      4  C   UNL     1      -0.030  10.265  21.192  0.00  0.00    +0.000 C 
ATOM      5  C   UNL     1       0.641   9.493  22.303  0.00  0.00    +0.000 C 
ATOM      6  C   UNL     1       0.871   8.076  21.833  0.00  0.00    +0.000 C 
ATOM      7  C   UNL     1       1.460   8.057  20.449  0.00  0.00    +0.000 A 
ATOM      8  C   UNL     1       2.035   6.769  20.097  0.00  0.00    +0.000 A 
ATOM      9  C   UNL     1       2.617   6.596  18.913  0.00  0.00    +0.000 A 
ATOM     10  N   UNL     1       2.683   7.636  18.035  0.00  0.00    +0.000 N 
ATOM     11  C   UNL     1       2.126   8.885  18.241  0.00  0.00    +0.000 A 
ATOM     12  O   UNL     1       2.182   9.681  17.314  0.00  0.00    +0.000 OA
ATOM     13  C   UNL     1       1.433   9.115  19.592  0.00  0.00    +0.000 A 
ATOM     14  H   UNL     1       3.125   7.515  17.134  0.00  0.00    +0.000 HD
ENDROOT
BRANCH   1  16
ATOM     15  C   UNL     1      -1.295  12.679  20.523  0.00  0.00    +0.000 C 
ATOM     16  C   UNL     1      -0.677  12.364  19.137  0.00  0.00    +0.000 C 
ATOM     17  C   UNL     1      -0.246  13.674  18.438  0.00  0.00    +0.000 C 
BRANCH  16  18
ATOM     18  C   UNL     1      -1.893  11.708  18.417  0.00  0.00    +0.000 A 
ATOM     19  C   UNL     1      -1.726  10.612  17.555  0.00  0.00    +0.000 A 
ATOM     20  C   UNL     1      -2.825   9.850  17.140  0.00  0.00    +0.000 A 
ATOM     21  C   UNL     1      -4.110  10.162  17.582  0.00  0.00    +0.000 A 
ATOM     22  C   UNL     1      -4.299  11.259  18.413  0.00  0.00    +0.000 A 
ATOM     23 CL   UNL     1      -5.871  11.620  19.016  0.00  0.00    +0.000 Cl
ATOM     24  C   UNL     1      -3.211  12.034  18.815  0.00  0.00    +0.000 A 
ENDBRANCH  16  18
ENDBRANCH   1  16
TORSDOF 2
ENDMDL
MODEL 7
REMARK VINA RESULT:      -7.1      8.830     11.295
REMARK  Name = 
REMARK  4 active torsions:
REMARK  status: ('A' for Active; 'I' for Inactive)
REMARK    1  A    between atoms: C_1  and  C_2
REMARK    2  A    between atoms: C_2  and  C_3
REMARK    3  A    between atoms: C_2  and  C_4
REMARK    4  A    between atoms: C_2  and  C_17
REMARK                            x       y       z     vdW  Elec       q    Type
REMARK                         _______ _______ _______ _____ _____    ______ ____
ROOT
ATOM      1  C   UNL     1      -2.798  12.753  20.067  0.00  0.00    +0.000 C 
ATOM      2  O   UNL     1      -2.842  13.805  20.713  0.00  0.00    +0.000 OA
ATOM      3  N   UNL     1      -3.971  12.154  19.538  0.00  0.00    +0.000 N 
ATOM      4  C   UNL     1      -3.905  11.497  18.234  0.00  0.00    +0.000 C 
ATOM      5  C   UNL     1      -5.161  11.601  17.402  0.00  0.00    +0.000 C 
ATOM      6  C   UNL     1      -6.312  11.026  18.195  0.00  0.00    +0.000 C 
ATOM      7  C   UNL     1      -6.305  11.546  19.607  0.00  0.00    +0.000 A 
ATOM      8  C   UNL     1      -7.566  11.328  20.296  0.00  0.00    +0.000 A 
ATOM      9  C   UNL     1      -7.729  11.752  21.546  0.00  0.00    +0.000 A 
ATOM     10  N   UNL     1      -6.711  12.403  22.176  0.00  0.00    +0.000 N 
ATOM     11  C   UNL     1      -5.456  12.619  21.638  0.00  0.00    +0.000 A 
ATOM     12  O   UNL     1      -4.617  13.131  22.368  0.00  0.00    +0.000 OA
ATOM     13  C   UNL     1      -5.228  12.130  20.201  0.00  0.00    +0.000 A 
ATOM     14  H   UNL     1      -6.826  12.731  23.125  0.00  0.00    +0.000 HD
ENDROOT
BRANCH   1  16
ATOM     15  C   UNL     1      -1.284  11.187  18.494  0.00  0.00    +0.000 C 
ATOM     16  C   UNL     1      -1.361  12.169  19.690  0.00  0.00    +0.000 C 
ATOM     17  C   UNL     1      -0.495  13.418  19.409  0.00  0.00    +0.000 C 
BRANCH  16  18
ATOM     18  C   UNL     1      -0.748  11.295  20.826  0.00  0.00    +0.000 A 
ATOM     19  C   UNL     1      -1.194  11.407  22.153  0.00  0.00    +0.000 A 
ATOM     20  C   UNL     1      -0.858  10.439  23.107  0.00  0.00    +0.000 A 
ATOM     21  C   UNL     1      -0.078   9.338  22.755  0.00  0.00    +0.000 A 
ATOM     22  C   UNL     1       0.395   9.224  21.454  0.00  0.00    +0.000 A 
ATOM     23 CL   UNL     1       1.307   7.840  20.989  0.00  0.00    +0.000 Cl
ATOM     24  C   UNL     1       0.081  10.195  20.502  0.00  0.00    +0.000 A 
ENDBRANCH  16  18
ENDBRANCH   1  16
TORSDOF 2
ENDMDL
MODEL 8
REMARK VINA RESULT:      -7.1      2.414      3.877
REMARK  Name = 
REMARK  4 active torsions:
REMARK  status: ('A' for Active; 'I' for Inactive)
REMARK    1  A    between atoms: C_1  and  C_2
REMARK    2  A    between atoms: C_2  and  C_3
REMARK    3  A    between atoms: C_2  and  C_4
REMARK    4  A    between atoms: C_2  and  C_17
REMARK                            x       y       z     vdW  Elec       q    Type
REMARK                         _______ _______ _______ _____ _____    ______ ____
ROOT
ATOM      1  C   UNL     1       3.777   5.552  17.449  0.00  0.00    +0.000 C 
ATOM      2  O   UNL     1       2.863   6.382  17.422  0.00  0.00    +0.000 OA
ATOM      3  N   UNL     1       3.590   4.255  17.994  0.00  0.00    +0.000 N 
ATOM      4  C   UNL     1       4.256   3.117  17.361  0.00  0.00    +0.000 C 
ATOM      5  C   UNL     1       3.483   1.820  17.406  0.00  0.00    +0.000 C 
ATOM      6  C   UNL     1       3.184   1.487  18.848  0.00  0.00    +0.000 C 
ATOM      7  C   UNL     1       2.662   2.693  19.581  0.00  0.00    +0.000 A 
ATOM      8  C   UNL     1       2.021   2.355  20.842  0.00  0.00    +0.000 A 
ATOM      9  C   UNL     1       1.486   3.309  21.599  0.00  0.00    +0.000 A 
ATOM     10  N   UNL     1       1.531   4.605  21.182  0.00  0.00    +0.000 N 
ATOM     11  C   UNL     1       2.158   5.047  20.032  0.00  0.00    +0.000 A 
ATOM     12  O   UNL     1       2.198   6.257  19.847  0.00  0.00    +0.000 OA
ATOM     13  C   UNL     1       2.799   3.974  19.141  0.00  0.00    +0.000 A 
ATOM     14  H   UNL     1       1.125   5.337  21.749  0.00  0.00    +0.000 HD
ENDROOT
BRANCH   1  16
ATOM     15  C   UNL     1       5.892   4.756  15.994  0.00  0.00    +0.000 C 
ATOM     16  C   UNL     1       5.136   5.914  16.694  0.00  0.00    +0.000 C 
ATOM     17  C   UNL     1       4.732   6.987  15.657  0.00  0.00    +0.000 C 
BRANCH  16  18
ATOM     18  C   UNL     1       6.240   6.443  17.659  0.00  0.00    +0.000 A 
ATOM     19  C   UNL     1       6.910   5.581  18.542  0.00  0.00    +0.000 A 
ATOM     20  C   UNL     1       8.082   5.988  19.191  0.00  0.00    +0.000 A 
ATOM     21  C   UNL     1       8.610   7.259  18.968  0.00  0.00    +0.000 A 
ATOM     22  C   UNL     1       7.947   8.135  18.120  0.00  0.00    +0.000 A 
ATOM     23 CL   UNL     1       8.620   9.685  17.786  0.00  0.00    +0.000 Cl
ATOM     24  C   UNL     1       6.769   7.744  17.483  0.00  0.00    +0.000 A 
ENDBRANCH  16  18
ENDBRANCH   1  16
TORSDOF 2
ENDMDL
MODEL 9
REMARK VINA RESULT:      -7.1      1.836      2.111
REMARK  Name = 
REMARK  4 active torsions:
REMARK  status: ('A' for Active; 'I' for Inactive)
REMARK    1  A    between atoms: C_1  and  C_2
REMARK    2  A    between atoms: C_2  and  C_3
REMARK    3  A    between atoms: C_2  and  C_4
REMARK    4  A    between atoms: C_2  and  C_17
REMARK                            x       y       z     vdW  Elec       q    Type
REMARK                         _______ _______ _______ _____ _____    ______ ____
ROOT
ATOM      1  C   UNL     1       5.078   4.648  17.278  0.00  0.00    +0.000 C 
ATOM      2  O   UNL     1       5.739   3.610  17.377  0.00  0.00    +0.000 OA
ATOM      3  N   UNL     1       3.927   4.877  18.077  0.00  0.00    +0.000 N 
ATOM      4  C   UNL     1       3.658   6.231  18.559  0.00  0.00    +0.000 C 
ATOM      5  C   UNL     1       3.010   6.307  19.921  0.00  0.00    +0.000 C 
ATOM      6  C   UNL     1       1.719   5.522  19.884  0.00  0.00    +0.000 C 
ATOM      7  C   UNL     1       1.923   4.184  19.226  0.00  0.00    +0.000 A 
ATOM      8  C   UNL     1       0.835   3.255  19.487  0.00  0.00    +0.000 A 
ATOM      9  C   UNL     1       0.876   2.020  18.994  0.00  0.00    +0.000 A 
ATOM     10  N   UNL     1       1.949   1.625  18.253  0.00  0.00    +0.000 N 
ATOM     11  C   UNL     1       3.011   2.436  17.900  0.00  0.00    +0.000 A 
ATOM     12  O   UNL     1       3.849   1.961  17.144  0.00  0.00    +0.000 OA
ATOM     13  C   UNL     1       2.990   3.873  18.439  0.00  0.00    +0.000 A 
ATOM     14  H   UNL     1       1.990   0.688  17.876  0.00  0.00    +0.000 HD
ENDROOT
BRANCH   1  16
ATOM     15  C   UNL     1       4.693   6.980  15.999  0.00  0.00    +0.000 C 
ATOM     16  C   UNL     1       5.649   5.810  16.346  0.00  0.00    +0.000 C 
ATOM     17  C   UNL     1       6.887   6.344  17.104  0.00  0.00    +0.000 C 
BRANCH  16  18
ATOM     18  C   UNL     1       6.028   5.310  14.920  0.00  0.00    +0.000 A 
ATOM     19  C   UNL     1       7.367   5.255  14.498  0.00  0.00    +0.000 A 
ATOM     20  C   UNL     1       7.728   4.546  13.346  0.00  0.00    +0.000 A 
ATOM     21  C   UNL     1       6.764   3.873  12.597  0.00  0.00    +0.000 A 
ATOM     22  C   UNL     1       5.432   3.937  12.983  0.00  0.00    +0.000 A 
ATOM     23 CL   UNL     1       4.238   3.061  12.104  0.00  0.00    +0.000 Cl
ATOM     24  C   UNL     1       5.061   4.657  14.119  0.00  0.00    +0.000 A 
ENDBRANCH  16  18
ENDBRANCH   1  16
TORSDOF 2
ENDMDL
