MODEL 1
REMARK VINA RESULT:      -8.2      0.000      0.000
REMARK  Name = 
REMARK  10 active torsions:
REMARK  status: ('A' for Active; 'I' for Inactive)
REMARK    1  A    between atoms: C_1  and  O_2
REMARK    2  A    between atoms: O_2  and  C_3
REMARK    3  A    between atoms: C_6  and  C_7
REMARK    4  A    between atoms: C_7  and  N_8
REMARK    5  A    between atoms: C_7  and  C_12
REMARK    6  A    between atoms: C_9  and  C_10
REMARK    7  A    between atoms: C_14  and  N_15
REMARK    8  A    between atoms: C_24  and  O_25
REMARK    9  A    between atoms: C_27  and  O_28
REMARK   10  A    between atoms: O_28  and  C_29
REMARK                            x       y       z     vdW  Elec       q    Type
REMARK                         _______ _______ _______ _____ _____    ______ ____
ROOT
ATOM      1  C   UNL     1       6.473   5.562  17.163  0.00  0.00    +0.000 C 
ENDROOT
BRANCH   1   2
ATOM      2  C   UNL     1       5.218   5.495  18.032  0.00  0.00    +0.000 A 
ATOM      3  C   UNL     1       4.305   6.557  18.026  0.00  0.00    +0.000 A 
ATOM      4  C   UNL     1       3.068   6.407  18.679  0.00  0.00    +0.000 A 
ATOM      5  C   UNL     1       2.686   5.201  19.315  0.00  0.00    +0.000 A 
ATOM      6  C   UNL     1       1.387   4.856  19.755  0.00  0.00    +0.000 A 
ATOM      7  C   UNL     1       1.164   3.657  20.422  0.00  0.00    +0.000 A 
ATOM      8  C   UNL     1       2.251   2.844  20.668  0.00  0.00    +0.000 A 
ATOM      9  N   UNL     1       3.487   3.089  20.189  0.00  0.00    +0.000 NA
ATOM     10  C   UNL     1       3.677   4.224  19.482  0.00  0.00    +0.000 A 
ATOM     11  C   UNL     1       4.900   4.386  18.838  0.00  0.00    +0.000 A 
BRANCH   4  12
ATOM     12  N   UNL     1       2.192   7.565  18.761  0.00  0.00    +0.000 N 
ATOM     13  O   UNL     1       1.800   8.049  17.689  0.00  0.00    +0.000 OA
ATOM     14  O   UNL     1       1.919   7.993  19.892  0.00  0.00    +0.000 OA
ENDBRANCH   4  12
BRANCH  11  15
ATOM     15  O   UNL     1       5.804   3.344  18.961  0.00  0.00    +0.000 OA
ATOM     16  H   UNL     1       5.489   2.856  19.756  0.00  0.00    +0.000 HD
ENDBRANCH  11  15
ENDBRANCH   1   2
BRANCH   1  20
ATOM     17  C   UNL     1       5.926   3.796  13.226  0.00  0.00    +0.000 A 
ATOM     18  C   UNL     1       5.124   3.409  14.316  0.00  0.00    +0.000 A 
ATOM     19  C   UNL     1       5.299   3.981  15.578  0.00  0.00    +0.000 A 
ATOM     20  C   UNL     1       6.310   4.922  15.798  0.00  0.00    +0.000 A 
ATOM     21  C   UNL     1       7.166   5.226  14.729  0.00  0.00    +0.000 A 
ATOM     22  C   UNL     1       6.987   4.682  13.448  0.00  0.00    +0.000 A 
BRANCH  17  24
ATOM     23  C   UNL     1       4.345   3.244  11.557  0.00  0.00    +0.000 C 
ATOM     24  O   UNL     1       5.709   3.280  11.981  0.00  0.00    +0.000 OA
ENDBRANCH  17  24
BRANCH  22  25
ATOM     25  O   UNL     1       7.921   5.148  12.562  0.00  0.00    +0.000 OA
ATOM     26  C   UNL     1       8.943   6.014  13.028  0.00  0.00    +0.000 C 
ENDBRANCH  22  25
ENDBRANCH   1  20
BRANCH   1  27
ATOM     27  N   UNL     1       6.946   6.928  17.040  0.00  0.00    +0.000 N 
ATOM     28  C   UNL     1       7.820   7.521  17.900  0.00  0.00    +0.000 C 
ATOM     29  C   UNL     1       8.105   8.961  17.590  0.00  0.00    +0.000 C 
ATOM     30  O   UNL     1       8.302   6.954  18.883  0.00  0.00    +0.000 OA
ATOM     31  H   UNL     1       6.622   7.427  16.221  0.00  0.00    +0.000 HD
ENDBRANCH   1  27
TORSDOF 7
ENDMDL
MODEL 2
REMARK VINA RESULT:      -7.7      2.758      7.759
REMARK  Name = 
REMARK  10 active torsions:
REMARK  status: ('A' for Active; 'I' for Inactive)
REMARK    1  A    between atoms: C_1  and  O_2
REMARK    2  A    between atoms: O_2  and  C_3
REMARK    3  A    between atoms: C_6  and  C_7
REMARK    4  A    between atoms: C_7  and  N_8
REMARK    5  A    between atoms: C_7  and  C_12
REMARK    6  A    between atoms: C_9  and  C_10
REMARK    7  A    between atoms: C_14  and  N_15
REMARK    8  A    between atoms: C_24  and  O_25
REMARK    9  A    between atoms: C_27  and  O_28
REMARK   10  A    between atoms: O_28  and  C_29
REMARK                            x       y       z     vdW  Elec       q    Type
REMARK                         _______ _______ _______ _____ _____    ______ ____
ROOT
ATOM      1  C   UNL     1       2.899   5.655  20.066  0.00  0.00    +0.000 C 
ENDROOT
BRANCH   1   2
ATOM      2  C   UNL     1       4.041   5.571  19.055  0.00  0.00    +0.000 A 
ATOM      3  C   UNL     1       5.354   5.849  19.456  0.00  0.00    +0.000 A 
ATOM      4  C   UNL     1       6.416   5.588  18.572  0.00  0.00    +0.000 A 
ATOM      5  C   UNL     1       6.216   5.012  17.294  0.00  0.00    +0.000 A 
ATOM      6  C   UNL     1       7.212   4.467  16.451  0.00  0.00    +0.000 A 
ATOM      7  C   UNL     1       6.882   3.986  15.189  0.00  0.00    +0.000 A 
ATOM      8  C   UNL     1       5.569   4.095  14.781  0.00  0.00    +0.000 A 
ATOM      9  N   UNL     1       4.574   4.524  15.583  0.00  0.00    +0.000 NA
ATOM     10  C   UNL     1       4.896   4.922  16.831  0.00  0.00    +0.000 A 
ATOM     11  C   UNL     1       3.853   5.191  17.713  0.00  0.00    +0.000 A 
BRANCH   4  12
ATOM     12  N   UNL     1       7.754   5.998  18.968  0.00  0.00    +0.000 N 
ATOM     13  O   UNL     1       8.379   5.231  19.715  0.00  0.00    +0.000 OA
ATOM     14  O   UNL     1       8.161   7.091  18.547  0.00  0.00    +0.000 OA
ENDBRANCH   4  12
BRANCH  11  15
ATOM     15  O   UNL     1       2.571   4.993  17.228  0.00  0.00    +0.000 OA
ATOM     16  H   UNL     1       2.230   5.906  17.093  0.00  0.00    +0.000 HD
ENDBRANCH  11  15
ENDBRANCH   1   2
BRANCH   1  20
ATOM     17  C   UNL     1       0.652   9.376  19.889  0.00  0.00    +0.000 A 
ATOM     18  C   UNL     1       1.610   9.055  18.908  0.00  0.00    +0.000 A 
ATOM     19  C   UNL     1       2.326   7.858  18.965  0.00  0.00    +0.000 A 
ATOM     20  C   UNL     1       2.141   6.968  20.028  0.00  0.00    +0.000 A 
ATOM     21  C   UNL     1       1.258   7.345  21.051  0.00  0.00    +0.000 A 
ATOM     22  C   UNL     1       0.508   8.530  20.996  0.00  0.00    +0.000 A 
BRANCH  17  24
ATOM     23  C   UNL     1       0.637  11.699  19.453  0.00  0.00    +0.000 C 
ATOM     24  O   UNL     1      -0.090  10.518  19.794  0.00  0.00    +0.000 OA
ENDBRANCH  17  24
BRANCH  22  25
ATOM     25  O   UNL     1      -0.306   8.668  22.087  0.00  0.00    +0.000 OA
ATOM     26  C   UNL     1       0.055   9.582  23.108  0.00  0.00    +0.000 C 
ENDBRANCH  22  25
ENDBRANCH   1  20
BRANCH   1  27
ATOM     27  N   UNL     1       1.994   4.532  19.920  0.00  0.00    +0.000 N 
ATOM     28  C   UNL     1       1.755   3.604  20.889  0.00  0.00    +0.000 C 
ATOM     29  C   UNL     1       0.824   2.504  20.471  0.00  0.00    +0.000 C 
ATOM     30  O   UNL     1       2.292   3.622  21.999  0.00  0.00    +0.000 OA
ATOM     31  H   UNL     1       1.486   4.494  19.045  0.00  0.00    +0.000 HD
ENDBRANCH   1  27
TORSDOF 7
ENDMDL
MODEL 3
REMARK VINA RESULT:      -7.5      6.276      9.461
REMARK  Name = 
REMARK  10 active torsions:
REMARK  status: ('A' for Active; 'I' for Inactive)
REMARK    1  A    between atoms: C_1  and  O_2
REMARK    2  A    between atoms: O_2  and  C_3
REMARK    3  A    between atoms: C_6  and  C_7
REMARK    4  A    between atoms: C_7  and  N_8
REMARK    5  A    between atoms: C_7  and  C_12
REMARK    6  A    between atoms: C_9  and  C_10
REMARK    7  A    between atoms: C_14  and  N_15
REMARK    8  A    between atoms: C_24  and  O_25
REMARK    9  A    between atoms: C_27  and  O_28
REMARK   10  A    between atoms: O_28  and  C_29
REMARK                            x       y       z     vdW  Elec       q    Type
REMARK                         _______ _______ _______ _____ _____    ______ ____
ROOT
ATOM      1  C   UNL     1      -0.350  11.979  18.484  0.00  0.00    +0.000 C 
ENDROOT
BRANCH   1   2
ATOM      2  C   UNL     1       0.294  10.808  19.224  0.00  0.00    +0.000 A 
ATOM      3  C   UNL     1      -0.038  10.559  20.562  0.00  0.00    +0.000 A 
ATOM      4  C   UNL     1       0.412   9.376  21.176  0.00  0.00    +0.000 A 
ATOM      5  C   UNL     1       1.160   8.396  20.479  0.00  0.00    +0.000 A 
ATOM      6  C   UNL     1       1.424   7.075  20.909  0.00  0.00    +0.000 A 
ATOM      7  C   UNL     1       2.228   6.233  20.149  0.00  0.00    +0.000 A 
ATOM      8  C   UNL     1       2.781   6.741  18.993  0.00  0.00    +0.000 A 
ATOM      9  N   UNL     1       2.485   7.961  18.499  0.00  0.00    +0.000 NA
ATOM     10  C   UNL     1       1.648   8.743  19.212  0.00  0.00    +0.000 A 
ATOM     11  C   UNL     1       1.202   9.921  18.617  0.00  0.00    +0.000 A 
BRANCH   4  12
ATOM     12  N   UNL     1       0.157   9.201  22.597  0.00  0.00    +0.000 N 
ATOM     13  O   UNL     1       1.022   9.620  23.379  0.00  0.00    +0.000 OA
ATOM     14  O   UNL     1      -0.896   8.630  22.919  0.00  0.00    +0.000 OA
ENDBRANCH   4  12
BRANCH  11  15
ATOM     15  O   UNL     1       1.642  10.164  17.327  0.00  0.00    +0.000 OA
ATOM     16  H   UNL     1       0.914   9.818  16.763  0.00  0.00    +0.000 HD
ENDBRANCH  11  15
ENDBRANCH   1   2
BRANCH   1  20
ATOM     17  C   UNL     1      -4.613  11.576  17.720  0.00  0.00    +0.000 A 
ATOM     18  C   UNL     1      -4.132  11.950  18.989  0.00  0.00    +0.000 A 
ATOM     19  C   UNL     1      -2.764  12.083  19.230  0.00  0.00    +0.000 A 
ATOM     20  C   UNL     1      -1.834  11.801  18.224  0.00  0.00    +0.000 A 
ATOM     21  C   UNL     1      -2.320  11.333  16.994  0.00  0.00    +0.000 A 
ATOM     22  C   UNL     1      -3.693  11.221  16.726  0.00  0.00    +0.000 A 
BRANCH  17  24
ATOM     23  C   UNL     1      -6.743  10.920  18.508  0.00  0.00    +0.000 C 
ATOM     24  O   UNL     1      -5.954  11.508  17.473  0.00  0.00    +0.000 OA
ENDBRANCH  17  24
BRANCH  22  25
ATOM     25  O   UNL     1      -3.927  10.776  15.453  0.00  0.00    +0.000 OA
ATOM     26  C   UNL     1      -2.909  10.064  14.771  0.00  0.00    +0.000 C 
ENDBRANCH  22  25
ENDBRANCH   1  20
BRANCH   1  27
ATOM     27  N   UNL     1      -0.092  13.231  19.170  0.00  0.00    +0.000 N 
ATOM     28  C   UNL     1       0.999  14.017  18.953  0.00  0.00    +0.000 C 
ATOM     29  C   UNL     1       1.066  15.230  19.834  0.00  0.00    +0.000 C 
ATOM     30  O   UNL     1       1.890  13.742  18.147  0.00  0.00    +0.000 OA
ATOM     31  H   UNL     1      -0.817  13.533  19.809  0.00  0.00    +0.000 HD
ENDBRANCH   1  27
TORSDOF 7
ENDMDL
MODEL 4
REMARK VINA RESULT:      -7.4      2.614      7.337
REMARK  Name = 
REMARK  10 active torsions:
REMARK  status: ('A' for Active; 'I' for Inactive)
REMARK    1  A    between atoms: C_1  and  O_2
REMARK    2  A    between atoms: O_2  and  C_3
REMARK    3  A    between atoms: C_6  and  C_7
REMARK    4  A    between atoms: C_7  and  N_8
REMARK    5  A    between atoms: C_7  and  C_12
REMARK    6  A    between atoms: C_9  and  C_10
REMARK    7  A    between atoms: C_14  and  N_15
REMARK    8  A    between atoms: C_24  and  O_25
REMARK    9  A    between atoms: C_27  and  O_28
REMARK   10  A    between atoms: O_28  and  C_29
REMARK                            x       y       z     vdW  Elec       q    Type
REMARK                         _______ _______ _______ _____ _____    ______ ____
ROOT
ATOM      1  C   UNL     1       2.902   5.530  19.940  0.00  0.00    +0.000 C 
ENDROOT
BRANCH   1   2
ATOM      2  C   UNL     1       4.061   5.508  18.945  0.00  0.00    +0.000 A 
ATOM      3  C   UNL     1       5.360   5.806  19.376  0.00  0.00    +0.000 A 
ATOM      4  C   UNL     1       6.442   5.602  18.501  0.00  0.00    +0.000 A 
ATOM      5  C   UNL     1       6.276   5.062  17.202  0.00  0.00    +0.000 A 
ATOM      6  C   UNL     1       7.299   4.570  16.359  0.00  0.00    +0.000 A 
ATOM      7  C   UNL     1       7.001   4.122  15.077  0.00  0.00    +0.000 A 
ATOM      8  C   UNL     1       5.692   4.210  14.651  0.00  0.00    +0.000 A 
ATOM      9  N   UNL     1       4.673   4.587  15.450  0.00  0.00    +0.000 NA
ATOM     10  C   UNL     1       4.966   4.954  16.716  0.00  0.00    +0.000 A 
ATOM     11  C   UNL     1       3.903   5.166  17.589  0.00  0.00    +0.000 A 
BRANCH   4  12
ATOM     12  N   UNL     1       7.762   6.034  18.932  0.00  0.00    +0.000 N 
ATOM     13  O   UNL     1       8.381   5.274  19.691  0.00  0.00    +0.000 OA
ATOM     14  O   UNL     1       8.161   7.135  18.525  0.00  0.00    +0.000 OA
ENDBRANCH   4  12
BRANCH  11  15
ATOM     15  O   UNL     1       2.634   4.951  17.078  0.00  0.00    +0.000 OA
ATOM     16  H   UNL     1       2.041   5.350  17.754  0.00  0.00    +0.000 HD
ENDBRANCH  11  15
ENDBRANCH   1   2
BRANCH   1  20
ATOM     17  C   UNL     1       0.892   9.381  20.180  0.00  0.00    +0.000 A 
ATOM     18  C   UNL     1       0.788   8.438  21.221  0.00  0.00    +0.000 A 
ATOM     19  C   UNL     1       1.438   7.205  21.143  0.00  0.00    +0.000 A 
ATOM     20  C   UNL     1       2.172   6.858  20.004  0.00  0.00    +0.000 A 
ATOM     21  C   UNL     1       2.186   7.764  18.933  0.00  0.00    +0.000 A 
ATOM     22  C   UNL     1       1.564   9.020  19.005  0.00  0.00    +0.000 A 
BRANCH  17  24
ATOM     23  C   UNL     1      -0.959  10.748  19.643  0.00  0.00    +0.000 C 
ATOM     24  O   UNL     1       0.307  10.609  20.289  0.00  0.00    +0.000 OA
ENDBRANCH  17  24
BRANCH  22  25
ATOM     25  O   UNL     1       1.738   9.741  17.855  0.00  0.00    +0.000 OA
ATOM     26  C   UNL     1       2.419  10.983  17.915  0.00  0.00    +0.000 C 
ENDBRANCH  22  25
ENDBRANCH   1  20
BRANCH   1  27
ATOM     27  N   UNL     1       1.976   4.444  19.681  0.00  0.00    +0.000 N 
ATOM     28  C   UNL     1       1.658   3.472  20.581  0.00  0.00    +0.000 C 
ATOM     29  C   UNL     1       0.722   2.426  20.051  0.00  0.00    +0.000 C 
ATOM     30  O   UNL     1       2.131   3.413  21.718  0.00  0.00    +0.000 OA
ATOM     31  H   UNL     1       1.517   4.470  18.779  0.00  0.00    +0.000 HD
ENDBRANCH   1  27
TORSDOF 7
ENDMDL
MODEL 5
REMARK VINA RESULT:      -7.1      2.853      5.019
REMARK  Name = 
REMARK  10 active torsions:
REMARK  status: ('A' for Active; 'I' for Inactive)
REMARK    1  A    between atoms: C_1  and  O_2
REMARK    2  A    between atoms: O_2  and  C_3
REMARK    3  A    between atoms: C_6  and  C_7
REMARK    4  A    between atoms: C_7  and  N_8
REMARK    5  A    between atoms: C_7  and  C_12
REMARK    6  A    between atoms: C_9  and  C_10
REMARK    7  A    between atoms: C_14  and  N_15
REMARK    8  A    between atoms: C_24  and  O_25
REMARK    9  A    between atoms: C_27  and  O_28
REMARK   10  A    between atoms: O_28  and  C_29
REMARK                            x       y       z     vdW  Elec       q    Type
REMARK                         _______ _______ _______ _____ _____    ______ ____
ROOT
ATOM      1  C   UNL     1       2.468   5.545  18.220  0.00  0.00    +0.000 C 
ENDROOT
BRANCH   1   2
ATOM      2  C   UNL     1       2.137   6.889  18.867  0.00  0.00    +0.000 A 
ATOM      3  C   UNL     1       1.942   8.022  18.068  0.00  0.00    +0.000 A 
ATOM      4  C   UNL     1       1.457   9.205  18.655  0.00  0.00    +0.000 A 
ATOM      5  C   UNL     1       1.114   9.287  20.026  0.00  0.00    +0.000 A 
ATOM      6  C   UNL     1       0.377  10.321  20.648  0.00  0.00    +0.000 A 
ATOM      7  C   UNL     1       0.164  10.306  22.022  0.00  0.00    +0.000 A 
ATOM      8  C   UNL     1       0.724   9.277  22.751  0.00  0.00    +0.000 A 
ATOM      9  N   UNL     1       1.356   8.226  22.189  0.00  0.00    +0.000 NA
ATOM     10  C   UNL     1       1.496   8.217  20.847  0.00  0.00    +0.000 A 
ATOM     11  C   UNL     1       1.982   7.055  20.256  0.00  0.00    +0.000 A 
BRANCH   4  12
ATOM     12  N   UNL     1       1.379  10.398  17.826  0.00  0.00    +0.000 N 
ATOM     13  O   UNL     1       0.246  10.806  17.534  0.00  0.00    +0.000 OA
ATOM     14  O   UNL     1       2.449  10.905  17.459  0.00  0.00    +0.000 OA
ENDBRANCH   4  12
BRANCH  11  15
ATOM     15  O   UNL     1       2.252   5.998  21.109  0.00  0.00    +0.000 OA
ATOM     16  H   UNL     1       1.364   5.622  21.303  0.00  0.00    +0.000 HD
ENDBRANCH  11  15
ENDBRANCH   1   2
BRANCH   1  20
ATOM     17  C   UNL     1       6.232   5.519  16.040  0.00  0.00    +0.000 A 
ATOM     18  C   UNL     1       5.363   4.412  16.006  0.00  0.00    +0.000 A 
ATOM     19  C   UNL     1       4.153   4.424  16.703  0.00  0.00    +0.000 A 
ATOM     20  C   UNL     1       3.798   5.525  17.491  0.00  0.00    +0.000 A 
ATOM     21  C   UNL     1       4.717   6.579  17.596  0.00  0.00    +0.000 A 
ATOM     22  C   UNL     1       5.924   6.596  16.880  0.00  0.00    +0.000 A 
BRANCH  17  24
ATOM     23  C   UNL     1       7.304   4.893  14.028  0.00  0.00    +0.000 C 
ATOM     24  O   UNL     1       7.383   5.525  15.306  0.00  0.00    +0.000 OA
ENDBRANCH  17  24
BRANCH  22  25
ATOM     25  O   UNL     1       6.640   7.738  17.116  0.00  0.00    +0.000 OA
ATOM     26  C   UNL     1       7.810   7.668  17.913  0.00  0.00    +0.000 C 
ENDBRANCH  22  25
ENDBRANCH   1  20
BRANCH   1  27
ATOM     27  N   UNL     1       2.394   4.470  19.190  0.00  0.00    +0.000 N 
ATOM     28  C   UNL     1       1.643   3.343  19.037  0.00  0.00    +0.000 C 
ATOM     29  C   UNL     1       1.688   2.410  20.211  0.00  0.00    +0.000 C 
ATOM     30  O   UNL     1       0.939   3.121  18.049  0.00  0.00    +0.000 OA
ATOM     31  H   UNL     1       2.992   4.574  20.001  0.00  0.00    +0.000 HD
ENDBRANCH   1  27
TORSDOF 7
ENDMDL
MODEL 6
REMARK VINA RESULT:      -7.1      1.535      2.733
REMARK  Name = 
REMARK  10 active torsions:
REMARK  status: ('A' for Active; 'I' for Inactive)
REMARK    1  A    between atoms: C_1  and  O_2
REMARK    2  A    between atoms: O_2  and  C_3
REMARK    3  A    between atoms: C_6  and  C_7
REMARK    4  A    between atoms: C_7  and  N_8
REMARK    5  A    between atoms: C_7  and  C_12
REMARK    6  A    between atoms: C_9  and  C_10
REMARK    7  A    between atoms: C_14  and  N_15
REMARK    8  A    between atoms: C_24  and  O_25
REMARK    9  A    between atoms: C_27  and  O_28
REMARK   10  A    between atoms: O_28  and  C_29
REMARK                            x       y       z     vdW  Elec       q    Type
REMARK                         _______ _______ _______ _____ _____    ______ ____
ROOT
ATOM      1  C   UNL     1       6.470   4.735  17.522  0.00  0.00    +0.000 C 
ENDROOT
BRANCH   1   2
ATOM      2  C   UNL     1       5.116   4.843  18.224  0.00  0.00    +0.000 A 
ATOM      3  C   UNL     1       4.611   3.751  18.942  0.00  0.00    +0.000 A 
ATOM      4  C   UNL     1       3.462   3.920  19.735  0.00  0.00    +0.000 A 
ATOM      5  C   UNL     1       2.811   5.169  19.874  0.00  0.00    +0.000 A 
ATOM      6  C   UNL     1       1.833   5.506  20.838  0.00  0.00    +0.000 A 
ATOM      7  C   UNL     1       1.230   6.759  20.822  0.00  0.00    +0.000 A 
ATOM      8  C   UNL     1       1.589   7.635  19.819  0.00  0.00    +0.000 A 
ATOM      9  N   UNL     1       2.578   7.390  18.936  0.00  0.00    +0.000 NA
ATOM     10  C   UNL     1       3.205   6.197  19.006  0.00  0.00    +0.000 A 
ATOM     11  C   UNL     1       4.339   6.016  18.219  0.00  0.00    +0.000 A 
BRANCH   4  12
ATOM     12  N   UNL     1       2.890   2.742  20.371  0.00  0.00    +0.000 N 
ATOM     13  O   UNL     1       2.002   2.144  19.749  0.00  0.00    +0.000 OA
ATOM     14  O   UNL     1       3.319   2.439  21.494  0.00  0.00    +0.000 OA
ENDBRANCH   4  12
BRANCH  11  15
ATOM     15  O   UNL     1       4.736   7.100  17.453  0.00  0.00    +0.000 OA
ATOM     16  H   UNL     1       5.032   7.760  18.120  0.00  0.00    +0.000 HD
ENDBRANCH  11  15
ENDBRANCH   1   2
BRANCH   1  20
ATOM     17  C   UNL     1       6.107   3.949  13.259  0.00  0.00    +0.000 A 
ATOM     18  C   UNL     1       5.236   3.348  14.188  0.00  0.00    +0.000 A 
ATOM     19  C   UNL     1       5.352   3.605  15.555  0.00  0.00    +0.000 A 
ATOM     20  C   UNL     1       6.370   4.435  16.039  0.00  0.00    +0.000 A 
ATOM     21  C   UNL     1       7.291   4.949  15.114  0.00  0.00    +0.000 A 
ATOM     22  C   UNL     1       7.172   4.724  13.734  0.00  0.00    +0.000 A 
BRANCH  17  24
ATOM     23  C   UNL     1       4.750   3.069  11.536  0.00  0.00    +0.000 C 
ATOM     24  O   UNL     1       5.949   3.743  11.919  0.00  0.00    +0.000 OA
ENDBRANCH  17  24
BRANCH  22  25
ATOM     25  O   UNL     1       8.165   5.350  13.030  0.00  0.00    +0.000 OA
ATOM     26  C   UNL     1       7.828   6.080  11.863  0.00  0.00    +0.000 C 
ENDBRANCH  22  25
ENDBRANCH   1  20
BRANCH   1  27
ATOM     27  N   UNL     1       7.270   5.921  17.756  0.00  0.00    +0.000 N 
ATOM     28  C   UNL     1       7.827   6.251  18.955  0.00  0.00    +0.000 C 
ATOM     29  C   UNL     1       8.559   7.561  18.953  0.00  0.00    +0.000 C 
ATOM     30  O   UNL     1       7.703   5.571  19.976  0.00  0.00    +0.000 OA
ATOM     31  H   UNL     1       7.448   6.493  16.940  0.00  0.00    +0.000 HD
ENDBRANCH   1  27
TORSDOF 7
ENDMDL
MODEL 7
REMARK VINA RESULT:      -7.1      0.932      1.103
REMARK  Name = 
REMARK  10 active torsions:
REMARK  status: ('A' for Active; 'I' for Inactive)
REMARK    1  A    between atoms: C_1  and  O_2
REMARK    2  A    between atoms: O_2  and  C_3
REMARK    3  A    between atoms: C_6  and  C_7
REMARK    4  A    between atoms: C_7  and  N_8
REMARK    5  A    between atoms: C_7  and  C_12
REMARK    6  A    between atoms: C_9  and  C_10
REMARK    7  A    between atoms: C_14  and  N_15
REMARK    8  A    between atoms: C_24  and  O_25
REMARK    9  A    between atoms: C_27  and  O_28
REMARK   10  A    between atoms: O_28  and  C_29
REMARK                            x       y       z     vdW  Elec       q    Type
REMARK                         _______ _______ _______ _____ _____    ______ ____
ROOT
ATOM      1  C   UNL     1       6.572   4.886  17.926  0.00  0.00    +0.000 C 
ENDROOT
BRANCH   1   2
ATOM      2  C   UNL     1       5.216   4.922  18.630  0.00  0.00    +0.000 A 
ATOM      3  C   UNL     1       4.430   6.080  18.576  0.00  0.00    +0.000 A 
ATOM      4  C   UNL     1       3.112   6.042  19.064  0.00  0.00    +0.000 A 
ATOM      5  C   UNL     1       2.524   4.858  19.574  0.00  0.00    +0.000 A 
ATOM      6  C   UNL     1       1.150   4.644  19.831  0.00  0.00    +0.000 A 
ATOM      7  C   UNL     1       0.717   3.448  20.393  0.00  0.00    +0.000 A 
ATOM      8  C   UNL     1       1.670   2.506  20.719  0.00  0.00    +0.000 A 
ATOM      9  N   UNL     1       2.976   2.631  20.410  0.00  0.00    +0.000 NA
ATOM     10  C   UNL     1       3.375   3.768  19.802  0.00  0.00    +0.000 A 
ATOM     11  C   UNL     1       4.680   3.820  19.322  0.00  0.00    +0.000 A 
BRANCH   4  12
ATOM     12  N   UNL     1       2.361   7.287  19.107  0.00  0.00    +0.000 N 
ATOM     13  O   UNL     1       2.070   7.729  20.228  0.00  0.00    +0.000 OA
ATOM     14  O   UNL     1       2.052   7.802  18.023  0.00  0.00    +0.000 OA
ENDBRANCH   4  12
BRANCH  11  15
ATOM     15  O   UNL     1       5.444   2.677  19.491  0.00  0.00    +0.000 OA
ATOM     16  H   UNL     1       6.358   3.024  19.612  0.00  0.00    +0.000 HD
ENDBRANCH  11  15
ENDBRANCH   1   2
BRANCH   1  20
ATOM     17  C   UNL     1       6.257   4.095  13.660  0.00  0.00    +0.000 A 
ATOM     18  C   UNL     1       5.308   3.587  14.567  0.00  0.00    +0.000 A 
ATOM     19  C   UNL     1       5.410   3.845  15.935  0.00  0.00    +0.000 A 
ATOM     20  C   UNL     1       6.486   4.581  16.442  0.00  0.00    +0.000 A 
ATOM     21  C   UNL     1       7.477   4.998  15.541  0.00  0.00    +0.000 A 
ATOM     22  C   UNL     1       7.377   4.771  14.160  0.00  0.00    +0.000 A 
BRANCH  17  24
ATOM     23  C   UNL     1       4.951   3.170  11.920  0.00  0.00    +0.000 C 
ATOM     24  O   UNL     1       6.118   3.892  12.317  0.00  0.00    +0.000 OA
ENDBRANCH  17  24
BRANCH  22  25
ATOM     25  O   UNL     1       8.443   5.295  13.480  0.00  0.00    +0.000 OA
ATOM     26  C   UNL     1       8.211   6.024  12.287  0.00  0.00    +0.000 C 
ENDBRANCH  22  25
ENDBRANCH   1  20
BRANCH   1  27
ATOM     27  N   UNL     1       7.310   6.112  18.159  0.00  0.00    +0.000 N 
ATOM     28  C   UNL     1       7.096   7.279  17.489  0.00  0.00    +0.000 C 
ATOM     29  C   UNL     1       8.033   8.387  17.871  0.00  0.00    +0.000 C 
ATOM     30  O   UNL     1       6.247   7.413  16.605  0.00  0.00    +0.000 OA
ATOM     31  H   UNL     1       7.988   6.075  18.910  0.00  0.00    +0.000 HD
ENDBRANCH   1  27
TORSDOF 7
ENDMDL
MODEL 8
REMARK VINA RESULT:      -7.0      6.438      9.831
REMARK  Name = 
REMARK  10 active torsions:
REMARK  status: ('A' for Active; 'I' for Inactive)
REMARK    1  A    between atoms: C_1  and  O_2
REMARK    2  A    between atoms: O_2  and  C_3
REMARK    3  A    between atoms: C_6  and  C_7
REMARK    4  A    between atoms: C_7  and  N_8
REMARK    5  A    between atoms: C_7  and  C_12
REMARK    6  A    between atoms: C_9  and  C_10
REMARK    7  A    between atoms: C_14  and  N_15
REMARK    8  A    between atoms: C_24  and  O_25
REMARK    9  A    between atoms: C_27  and  O_28
REMARK   10  A    between atoms: O_28  and  C_29
REMARK                            x       y       z     vdW  Elec       q    Type
REMARK                         _______ _______ _______ _____ _____    ______ ____
ROOT
ATOM      1  C   UNL     1      -0.192  12.011  18.552  0.00  0.00    +0.000 C 
ENDROOT
BRANCH   1   2
ATOM      2  C   UNL     1       0.436  10.827  19.287  0.00  0.00    +0.000 A 
ATOM      3  C   UNL     1       0.172  10.629  20.648  0.00  0.00    +0.000 A 
ATOM      4  C   UNL     1       0.599   9.440  21.267  0.00  0.00    +0.000 A 
ATOM      5  C   UNL     1       1.256   8.407  20.556  0.00  0.00    +0.000 A 
ATOM      6  C   UNL     1       1.480   7.086  21.008  0.00  0.00    +0.000 A 
ATOM      7  C   UNL     1       2.197   6.186  20.226  0.00  0.00    +0.000 A 
ATOM      8  C   UNL     1       2.706   6.637  19.026  0.00  0.00    +0.000 A 
ATOM      9  N   UNL     1       2.441   7.857  18.517  0.00  0.00    +0.000 NA
ATOM     10  C   UNL     1       1.685   8.698  19.254  0.00  0.00    +0.000 A 
ATOM     11  C   UNL     1       1.263   9.881  18.654  0.00  0.00    +0.000 A 
BRANCH   4  12
ATOM     12  N   UNL     1       0.418   9.314  22.705  0.00  0.00    +0.000 N 
ATOM     13  O   UNL     1      -0.720   9.031  23.105  0.00  0.00    +0.000 OA
ATOM     14  O   UNL     1       1.409   9.519  23.422  0.00  0.00    +0.000 OA
ENDBRANCH   4  12
BRANCH  11  15
ATOM     15  O   UNL     1       1.639  10.070  17.335  0.00  0.00    +0.000 OA
ATOM     16  H   UNL     1       0.792  10.282  16.879  0.00  0.00    +0.000 HD
ENDBRANCH  11  15
ENDBRANCH   1   2
BRANCH   1  20
ATOM     17  C   UNL     1      -4.477  11.532  17.979  0.00  0.00    +0.000 A 
ATOM     18  C   UNL     1      -3.568  11.261  16.938  0.00  0.00    +0.000 A 
ATOM     19  C   UNL     1      -2.193  11.412  17.126  0.00  0.00    +0.000 A 
ATOM     20  C   UNL     1      -1.689  11.881  18.344  0.00  0.00    +0.000 A 
ATOM     21  C   UNL     1      -2.610  12.241  19.339  0.00  0.00    +0.000 A 
ATOM     22  C   UNL     1      -3.993  12.069  19.178  0.00  0.00    +0.000 A 
BRANCH  17  24
ATOM     23  C   UNL     1      -6.563  12.450  17.352  0.00  0.00    +0.000 C 
ATOM     24  O   UNL     1      -5.816  11.322  17.809  0.00  0.00    +0.000 OA
ENDBRANCH  17  24
BRANCH  22  25
ATOM     25  O   UNL     1      -4.687  12.459  20.291  0.00  0.00    +0.000 OA
ATOM     26  C   UNL     1      -3.987  13.058  21.368  0.00  0.00    +0.000 C 
ENDBRANCH  22  25
ENDBRANCH   1  20
BRANCH   1  27
ATOM     27  N   UNL     1       0.131  13.261  19.211  0.00  0.00    +0.000 N 
ATOM     28  C   UNL     1       1.231  14.016  18.936  0.00  0.00    +0.000 C 
ATOM     29  C   UNL     1       1.373  15.235  19.799  0.00  0.00    +0.000 C 
ATOM     30  O   UNL     1       2.076  13.709  18.092  0.00  0.00    +0.000 OA
ATOM     31  H   UNL     1      -0.554  13.589  19.880  0.00  0.00    +0.000 HD
ENDBRANCH   1  27
TORSDOF 7
ENDMDL
MODEL 9
REMARK VINA RESULT:      -7.0      3.219      5.579
REMARK  Name = 
REMARK  10 active torsions:
REMARK  status: ('A' for Active; 'I' for Inactive)
REMARK    1  A    between atoms: C_1  and  O_2
REMARK    2  A    between atoms: O_2  and  C_3
REMARK    3  A    between atoms: C_6  and  C_7
REMARK    4  A    between atoms: C_7  and  N_8
REMARK    5  A    between atoms: C_7  and  C_12
REMARK    6  A    between atoms: C_9  and  C_10
REMARK    7  A    between atoms: C_14  and  N_15
REMARK    8  A    between atoms: C_24  and  O_25
REMARK    9  A    between atoms: C_27  and  O_28
REMARK   10  A    between atoms: O_28  and  C_29
REMARK                            x       y       z     vdW  Elec       q    Type
REMARK                         _______ _______ _______ _____ _____    ______ ____
ROOT
ATOM      1  C   UNL     1       2.334   6.213  18.289  0.00  0.00    +0.000 C 
ENDROOT
BRANCH   1   2
ATOM      2  C   UNL     1       1.955   7.488  19.042  0.00  0.00    +0.000 A 
ATOM      3  C   UNL     1       1.866   8.706  18.355  0.00  0.00    +0.000 A 
ATOM      4  C   UNL     1       1.338   9.831  19.013  0.00  0.00    +0.000 A 
ATOM      5  C   UNL     1       0.848   9.775  20.340  0.00  0.00    +0.000 A 
ATOM      6  C   UNL     1       0.063  10.755  20.990  0.00  0.00    +0.000 A 
ATOM      7  C   UNL     1      -0.300  10.598  22.323  0.00  0.00    +0.000 A 
ATOM      8  C   UNL     1       0.161   9.482  22.989  0.00  0.00    +0.000 A 
ATOM      9  N   UNL     1       0.835   8.481  22.387  0.00  0.00    +0.000 NA
ATOM     10  C   UNL     1       1.121   8.613  21.075  0.00  0.00    +0.000 A 
ATOM     11  C   UNL     1       1.652   7.508  20.415  0.00  0.00    +0.000 A 
BRANCH   4  12
ATOM     12  N   UNL     1       1.369  11.108  18.317  0.00  0.00    +0.000 N 
ATOM     13  O   UNL     1       0.285  11.686  18.154  0.00  0.00    +0.000 OA
ATOM     14  O   UNL     1       2.473  11.513  17.924  0.00  0.00    +0.000 OA
ENDBRANCH   4  12
BRANCH  11  15
ATOM     15  O   UNL     1       1.810   6.358  21.171  0.00  0.00    +0.000 OA
ATOM     16  H   UNL     1       2.584   5.912  20.756  0.00  0.00    +0.000 HD
ENDBRANCH  11  15
ENDBRANCH   1   2
BRANCH   1  20
ATOM     17  C   UNL     1       6.596   5.351  18.140  0.00  0.00    +0.000 A 
ATOM     18  C   UNL     1       5.874   5.253  19.345  0.00  0.00    +0.000 A 
ATOM     19  C   UNL     1       4.505   5.526  19.389  0.00  0.00    +0.000 A 
ATOM     20  C   UNL     1       3.827   5.949  18.241  0.00  0.00    +0.000 A 
ATOM     21  C   UNL     1       4.577   6.139  17.070  0.00  0.00    +0.000 A 
ATOM     22  C   UNL     1       5.946   5.842  17.001  0.00  0.00    +0.000 A 
BRANCH  17  24
ATOM     23  C   UNL     1       8.638   5.169  19.316  0.00  0.00    +0.000 C 
ATOM     24  O   UNL     1       7.919   5.022  18.091  0.00  0.00    +0.000 OA
ENDBRANCH  17  24
BRANCH  22  25
ATOM     25  O   UNL     1       6.455   6.075  15.752  0.00  0.00    +0.000 OA
ATOM     26  C   UNL     1       6.634   4.985  14.864  0.00  0.00    +0.000 C 
ENDBRANCH  22  25
ENDBRANCH   1  20
BRANCH   1  27
ATOM     27  N   UNL     1       1.624   5.066  18.822  0.00  0.00    +0.000 N 
ATOM     28  C   UNL     1       1.468   3.884  18.164  0.00  0.00    +0.000 C 
ATOM     29  C   UNL     1       0.640   2.874  18.903  0.00  0.00    +0.000 C 
ATOM     30  O   UNL     1       1.915   3.665  17.036  0.00  0.00    +0.000 OA
ATOM     31  H   UNL     1       1.278   5.171  19.767  0.00  0.00    +0.000 HD
ENDBRANCH   1  27
TORSDOF 7
ENDMDL
