MODEL 1
REMARK VINA RESULT:      -7.5      0.000      0.000
REMARK  Name = 
REMARK  8 active torsions:
REMARK  status: ('A' for Active; 'I' for Inactive)
REMARK    1  A    between atoms: C_1  and  O_2
REMARK    2  A    between atoms: O_2  and  C_3
REMARK    3  A    between atoms: C_3  and  C_4
REMARK    4  A    between atoms: C_6  and  O_7
REMARK    5  A    between atoms: C_9  and  S_10
REMARK    6  A    between atoms: S_10  and  C_11
REMARK    7  A    between atoms: C_12  and  O_13
REMARK    8  A    between atoms: C_22  and  C_23
REMARK                            x       y       z     vdW  Elec       q    Type
REMARK                         _______ _______ _______ _____ _____    ______ ____
ROOT
ATOM      1  C   UNL     1       2.718   6.675  18.350  0.00  0.00    +0.000 A 
ATOM      2  C   UNL     1       2.750   7.971  17.818  0.00  0.00    +0.000 A 
ATOM      3  N   UNL     1       2.149   9.043  18.356  0.00  0.00    +0.000 NA
ATOM      4  C   UNL     1       1.510   8.890  19.507  0.00  0.00    +0.000 A 
ATOM      5  C   UNL     1       0.901  10.032  20.014  0.00  0.00    +0.000 A 
ATOM      6  C   UNL     1       0.224  10.013  21.227  0.00  0.00    +0.000 A 
ATOM      7 CL   UNL     1      -0.532  11.440  21.816  0.00  0.00    +0.000 Cl
ATOM      8  C   UNL     1       0.176   8.850  21.970  0.00  0.00    +0.000 A 
ATOM      9  C   UNL     1       0.793   7.697  21.475  0.00  0.00    +0.000 A 
ATOM     10  C   UNL     1       1.442   7.656  20.202  0.00  0.00    +0.000 A 
ATOM     11  C   UNL     1       2.020   6.481  19.580  0.00  0.00    +0.000 A 
ENDROOT
BRANCH  11  12
ATOM     12  C   UNL     1       1.857   5.121  20.212  0.00  0.00    +0.000 A 
ATOM     13  C   UNL     1       2.640   4.714  21.316  0.00  0.00    +0.000 A 
ATOM     14  C   UNL     1       2.574   3.416  21.840  0.00  0.00    +0.000 A 
ATOM     15  C   UNL     1       1.632   2.517  21.354  0.00  0.00    +0.000 A 
ATOM     16  C   UNL     1       0.792   2.905  20.326  0.00  0.00    +0.000 A 
ATOM     17  C   UNL     1       0.942   4.165  19.736  0.00  0.00    +0.000 A 
ENDBRANCH  11  12
BRANCH   2  18
ATOM     18  O   UNL     1       3.395   8.267  16.647  0.00  0.00    +0.000 OA
ATOM     19  H   UNL     1       4.218   8.728  16.890  0.00  0.00    +0.000 HD
ENDBRANCH   2  18
BRANCH   1  20
ATOM     20  S   UNL     1       3.484   5.379  17.362  0.00  0.00    +0.000 S 
BRANCH  20  25
ATOM     21  C   UNL     1       6.964   7.247  17.675  0.00  0.00    +0.000 A 
ATOM     22  C   UNL     1       7.875   6.216  17.798  0.00  0.00    +0.000 A 
ATOM     23  C   UNL     1       7.341   4.954  17.790  0.00  0.00    +0.000 A 
ATOM     24  N   UNL     1       6.037   4.685  17.675  0.00  0.00    +0.000 NA
ATOM     25  C   UNL     1       5.227   5.741  17.544  0.00  0.00    +0.000 A 
ATOM     26  N   UNL     1       5.634   7.022  17.552  0.00  0.00    +0.000 NA
BRANCH  23  27
ATOM     27  O   UNL     1       8.141   3.854  17.912  0.00  0.00    +0.000 OA
ATOM     28  H   UNL     1       8.677   3.948  18.712  0.00  0.00    +0.000 HD
ENDBRANCH  23  27
BRANCH  21  29
ATOM     29  C   UNL     1       7.452   8.676  17.656  0.00  0.00    +0.000 C 
BRANCH  29  31
ATOM     30  C   UNL     1       8.990  10.137  18.687  0.00  0.00    +0.000 C 
ATOM     31  O   UNL     1       8.583   8.785  18.522  0.00  0.00    +0.000 OA
ENDBRANCH  29  31
ENDBRANCH  21  29
ENDBRANCH  20  25
ENDBRANCH   1  20
TORSDOF 7
ENDMDL
MODEL 2
REMARK VINA RESULT:      -7.3      0.893      1.257
REMARK  Name = 
REMARK  8 active torsions:
REMARK  status: ('A' for Active; 'I' for Inactive)
REMARK    1  A    between atoms: C_1  and  O_2
REMARK    2  A    between atoms: O_2  and  C_3
REMARK    3  A    between atoms: C_3  and  C_4
REMARK    4  A    between atoms: C_6  and  O_7
REMARK    5  A    between atoms: C_9  and  S_10
REMARK    6  A    between atoms: S_10  and  C_11
REMARK    7  A    between atoms: C_12  and  O_13
REMARK    8  A    between atoms: C_22  and  C_23
REMARK                            x       y       z     vdW  Elec       q    Type
REMARK                         _______ _______ _______ _____ _____    ______ ____
ROOT
ATOM      1  C   UNL     1       2.969   6.714  18.480  0.00  0.00    +0.000 A 
ATOM      2  C   UNL     1       2.991   8.006  17.936  0.00  0.00    +0.000 A 
ATOM      3  N   UNL     1       2.222   9.028  18.339  0.00  0.00    +0.000 NA
ATOM      4  C   UNL     1       1.406   8.831  19.364  0.00  0.00    +0.000 A 
ATOM      5  C   UNL     1       0.629   9.922  19.735  0.00  0.00    +0.000 A 
ATOM      6  C   UNL     1      -0.246   9.856  20.813  0.00  0.00    +0.000 A 
ATOM      7 CL   UNL     1      -1.203  11.220  21.232  0.00  0.00    +0.000 Cl
ATOM      8  C   UNL     1      -0.330   8.698  21.559  0.00  0.00    +0.000 A 
ATOM      9  C   UNL     1       0.453   7.595  21.202  0.00  0.00    +0.000 A 
ATOM     10  C   UNL     1       1.315   7.600  20.062  0.00  0.00    +0.000 A 
ATOM     11  C   UNL     1       2.085   6.472  19.574  0.00  0.00    +0.000 A 
ENDROOT
BRANCH  11  12
ATOM     12  C   UNL     1       1.921   5.107  20.195  0.00  0.00    +0.000 A 
ATOM     13  C   UNL     1       1.078   4.125  19.626  0.00  0.00    +0.000 A 
ATOM     14  C   UNL     1       0.834   2.896  20.253  0.00  0.00    +0.000 A 
ATOM     15  C   UNL     1       1.521   2.558  21.413  0.00  0.00    +0.000 A 
ATOM     16  C   UNL     1       2.416   3.462  21.958  0.00  0.00    +0.000 A 
ATOM     17  C   UNL     1       2.569   4.730  21.385  0.00  0.00    +0.000 A 
ENDBRANCH  11  12
BRANCH   2  18
ATOM     18  O   UNL     1       3.805   8.346  16.889  0.00  0.00    +0.000 OA
ATOM     19  H   UNL     1       3.221   8.568  16.142  0.00  0.00    +0.000 HD
ENDBRANCH   2  18
BRANCH   1  20
ATOM     20  S   UNL     1       3.996   5.479  17.666  0.00  0.00    +0.000 S 
BRANCH  20  25
ATOM     21  C   UNL     1       7.505   7.306  17.883  0.00  0.00    +0.000 A 
ATOM     22  C   UNL     1       8.145   6.657  18.920  0.00  0.00    +0.000 A 
ATOM     23  C   UNL     1       7.423   5.662  19.526  0.00  0.00    +0.000 A 
ATOM     24  N   UNL     1       6.184   5.305  19.177  0.00  0.00    +0.000 NA
ATOM     25  C   UNL     1       5.645   5.974  18.152  0.00  0.00    +0.000 A 
ATOM     26  N   UNL     1       6.251   6.977  17.491  0.00  0.00    +0.000 NA
BRANCH  23  27
ATOM     27  O   UNL     1       7.948   4.953  20.569  0.00  0.00    +0.000 OA
ATOM     28  H   UNL     1       7.234   4.459  20.998  0.00  0.00    +0.000 HD
ENDBRANCH  23  27
BRANCH  21  29
ATOM     29  C   UNL     1       8.220   8.408  17.137  0.00  0.00    +0.000 C 
BRANCH  29  31
ATOM     30  C   UNL     1       8.993  10.165  18.508  0.00  0.00    +0.000 C 
ATOM     31  O   UNL     1       7.902   9.658  17.752  0.00  0.00    +0.000 OA
ENDBRANCH  29  31
ENDBRANCH  21  29
ENDBRANCH  20  25
ENDBRANCH   1  20
TORSDOF 7
ENDMDL
MODEL 3
REMARK VINA RESULT:      -7.1      3.651      4.964
REMARK  Name = 
REMARK  8 active torsions:
REMARK  status: ('A' for Active; 'I' for Inactive)
REMARK    1  A    between atoms: C_1  and  O_2
REMARK    2  A    between atoms: O_2  and  C_3
REMARK    3  A    between atoms: C_3  and  C_4
REMARK    4  A    between atoms: C_6  and  O_7
REMARK    5  A    between atoms: C_9  and  S_10
REMARK    6  A    between atoms: S_10  and  C_11
REMARK    7  A    between atoms: C_12  and  O_13
REMARK    8  A    between atoms: C_22  and  C_23
REMARK                            x       y       z     vdW  Elec       q    Type
REMARK                         _______ _______ _______ _____ _____    ______ ____
ROOT
ATOM      1  C   UNL     1       5.727   5.640  17.283  0.00  0.00    +0.000 A 
ATOM      2  C   UNL     1       6.008   6.979  16.981  0.00  0.00    +0.000 A 
ATOM      3  N   UNL     1       5.149   8.001  17.119  0.00  0.00    +0.000 NA
ATOM      4  C   UNL     1       3.951   7.746  17.625  0.00  0.00    +0.000 A 
ATOM      5  C   UNL     1       3.100   8.839  17.740  0.00  0.00    +0.000 A 
ATOM      6  C   UNL     1       1.828   8.713  18.283  0.00  0.00    +0.000 A 
ATOM      7 CL   UNL     1       0.797  10.083  18.394  0.00  0.00    +0.000 Cl
ATOM      8  C   UNL     1       1.400   7.487  18.752  0.00  0.00    +0.000 A 
ATOM      9  C   UNL     1       2.249   6.381  18.652  0.00  0.00    +0.000 A 
ATOM     10  C   UNL     1       3.539   6.454  18.040  0.00  0.00    +0.000 A 
ATOM     11  C   UNL     1       4.437   5.338  17.813  0.00  0.00    +0.000 A 
ENDROOT
BRANCH  11  12
ATOM     12  C   UNL     1       3.994   3.926  18.110  0.00  0.00    +0.000 A 
ATOM     13  C   UNL     1       3.103   3.231  17.261  0.00  0.00    +0.000 A 
ATOM     14  C   UNL     1       2.600   1.964  17.583  0.00  0.00    +0.000 A 
ATOM     15  C   UNL     1       3.066   1.296  18.709  0.00  0.00    +0.000 A 
ATOM     16  C   UNL     1       4.000   1.912  19.524  0.00  0.00    +0.000 A 
ATOM     17  C   UNL     1       4.411   3.222  19.253  0.00  0.00    +0.000 A 
ENDBRANCH  11  12
BRANCH   2  18
ATOM     18  O   UNL     1       7.215   7.379  16.472  0.00  0.00    +0.000 OA
ATOM     19  H   UNL     1       7.865   7.285  17.190  0.00  0.00    +0.000 HD
ENDBRANCH   2  18
BRANCH   1  20
ATOM     20  S   UNL     1       7.002   4.437  16.873  0.00  0.00    +0.000 S 
BRANCH  20  25
ATOM     21  C   UNL     1       6.250   3.753  13.044  0.00  0.00    +0.000 A 
ATOM     22  C   UNL     1       7.111   4.609  12.387  0.00  0.00    +0.000 A 
ATOM     23  C   UNL     1       7.896   5.389  13.194  0.00  0.00    +0.000 A 
ATOM     24  N   UNL     1       7.870   5.362  14.530  0.00  0.00    +0.000 NA
ATOM     25  C   UNL     1       7.019   4.492  15.085  0.00  0.00    +0.000 A 
ATOM     26  N   UNL     1       6.191   3.688  14.395  0.00  0.00    +0.000 NA
BRANCH  23  27
ATOM     27  O   UNL     1       8.783   6.280  12.660  0.00  0.00    +0.000 OA
ATOM     28  H   UNL     1       9.481   5.788  12.205  0.00  0.00    +0.000 HD
ENDBRANCH  23  27
BRANCH  21  29
ATOM     29  C   UNL     1       5.352   2.838  12.245  0.00  0.00    +0.000 C 
BRANCH  29  31
ATOM     30  C   UNL     1       3.603   3.125  10.689  0.00  0.00    +0.000 C 
ATOM     31  O   UNL     1       4.145   3.536  11.936  0.00  0.00    +0.000 OA
ENDBRANCH  29  31
ENDBRANCH  21  29
ENDBRANCH  20  25
ENDBRANCH   1  20
TORSDOF 7
ENDMDL
MODEL 4
REMARK VINA RESULT:      -7.1      4.117      6.979
REMARK  Name = 
REMARK  8 active torsions:
REMARK  status: ('A' for Active; 'I' for Inactive)
REMARK    1  A    between atoms: C_1  and  O_2
REMARK    2  A    between atoms: O_2  and  C_3
REMARK    3  A    between atoms: C_3  and  C_4
REMARK    4  A    between atoms: C_6  and  O_7
REMARK    5  A    between atoms: C_9  and  S_10
REMARK    6  A    between atoms: S_10  and  C_11
REMARK    7  A    between atoms: C_12  and  O_13
REMARK    8  A    between atoms: C_22  and  C_23
REMARK                            x       y       z     vdW  Elec       q    Type
REMARK                         _______ _______ _______ _____ _____    ______ ____
ROOT
ATOM      1  C   UNL     1       6.087   5.210  17.482  0.00  0.00    +0.000 A 
ATOM      2  C   UNL     1       7.184   5.867  16.909  0.00  0.00    +0.000 A 
ATOM      3  N   UNL     1       7.591   5.729  15.638  0.00  0.00    +0.000 NA
ATOM      4  C   UNL     1       6.883   4.947  14.836  0.00  0.00    +0.000 A 
ATOM      5  C   UNL     1       7.355   4.835  13.534  0.00  0.00    +0.000 A 
ATOM      6  C   UNL     1       6.686   4.071  12.584  0.00  0.00    +0.000 A 
ATOM      7 CL   UNL     1       7.309   3.941  10.987  0.00  0.00    +0.000 Cl
ATOM      8  C   UNL     1       5.511   3.431  12.922  0.00  0.00    +0.000 A 
ATOM      9  C   UNL     1       5.020   3.544  14.226  0.00  0.00    +0.000 A 
ATOM     10  C   UNL     1       5.711   4.264  15.249  0.00  0.00    +0.000 A 
ATOM     11  C   UNL     1       5.318   4.349  16.643  0.00  0.00    +0.000 A 
ENDROOT
BRANCH  11  12
ATOM     12  C   UNL     1       4.160   3.534  17.163  0.00  0.00    +0.000 A 
ATOM     13  C   UNL     1       2.820   3.944  16.981  0.00  0.00    +0.000 A 
ATOM     14  C   UNL     1       1.744   3.254  17.553  0.00  0.00    +0.000 A 
ATOM     15  C   UNL     1       1.963   2.059  18.228  0.00  0.00    +0.000 A 
ATOM     16  C   UNL     1       3.256   1.583  18.359  0.00  0.00    +0.000 A 
ATOM     17  C   UNL     1       4.333   2.337  17.879  0.00  0.00    +0.000 A 
ENDBRANCH  11  12
BRANCH   2  18
ATOM     18  O   UNL     1       7.984   6.718  17.623  0.00  0.00    +0.000 OA
ATOM     19  H   UNL     1       8.846   6.276  17.720  0.00  0.00    +0.000 HD
ENDBRANCH   2  18
BRANCH   1  20
ATOM     20  S   UNL     1       5.833   5.456  19.248  0.00  0.00    +0.000 S 
BRANCH  20  25
ATOM     21  C   UNL     1       2.480   7.484  18.666  0.00  0.00    +0.000 A 
ATOM     22  C   UNL     1       1.567   6.841  19.479  0.00  0.00    +0.000 A 
ATOM     23  C   UNL     1       2.054   5.768  20.177  0.00  0.00    +0.000 A 
ATOM     24  N   UNL     1       3.316   5.332  20.112  0.00  0.00    +0.000 NA
ATOM     25  C   UNL     1       4.137   6.023  19.314  0.00  0.00    +0.000 A 
ATOM     26  N   UNL     1       3.769   7.081  18.571  0.00  0.00    +0.000 NA
BRANCH  23  27
ATOM     27  O   UNL     1       1.245   5.047  21.009  0.00  0.00    +0.000 OA
ATOM     28  H   UNL     1       0.476   4.743  20.506  0.00  0.00    +0.000 HD
ENDBRANCH  23  27
BRANCH  21  29
ATOM     29  C   UNL     1       2.047   8.690  17.866  0.00  0.00    +0.000 C 
BRANCH  29  31
ATOM     30  C   UNL     1       1.266  10.737  18.739  0.00  0.00    +0.000 C 
ATOM     31  O   UNL     1       0.995   9.352  18.568  0.00  0.00    +0.000 OA
ENDBRANCH  29  31
ENDBRANCH  21  29
ENDBRANCH  20  25
ENDBRANCH   1  20
TORSDOF 7
ENDMDL
MODEL 5
REMARK VINA RESULT:      -7.1      4.175      7.353
REMARK  Name = 
REMARK  8 active torsions:
REMARK  status: ('A' for Active; 'I' for Inactive)
REMARK    1  A    between atoms: C_1  and  O_2
REMARK    2  A    between atoms: O_2  and  C_3
REMARK    3  A    between atoms: C_3  and  C_4
REMARK    4  A    between atoms: C_6  and  O_7
REMARK    5  A    between atoms: C_9  and  S_10
REMARK    6  A    between atoms: S_10  and  C_11
REMARK    7  A    between atoms: C_12  and  O_13
REMARK    8  A    between atoms: C_22  and  C_23
REMARK                            x       y       z     vdW  Elec       q    Type
REMARK                         _______ _______ _______ _____ _____    ______ ____
ROOT
ATOM      1  C   UNL     1       6.199   5.246  17.362  0.00  0.00    +0.000 A 
ATOM      2  C   UNL     1       7.263   5.936  16.766  0.00  0.00    +0.000 A 
ATOM      3  N   UNL     1       7.649   5.808  15.487  0.00  0.00    +0.000 NA
ATOM      4  C   UNL     1       6.949   5.003  14.701  0.00  0.00    +0.000 A 
ATOM      5  C   UNL     1       7.397   4.903  13.389  0.00  0.00    +0.000 A 
ATOM      6  C   UNL     1       6.734   4.117  12.454  0.00  0.00    +0.000 A 
ATOM      7 CL   UNL     1       7.327   4.004  10.845  0.00  0.00    +0.000 Cl
ATOM      8  C   UNL     1       5.585   3.442  12.816  0.00  0.00    +0.000 A 
ATOM      9  C   UNL     1       5.118   3.542  14.130  0.00  0.00    +0.000 A 
ATOM     10  C   UNL     1       5.807   4.286  15.138  0.00  0.00    +0.000 A 
ATOM     11  C   UNL     1       5.440   4.361  16.539  0.00  0.00    +0.000 A 
ENDROOT
BRANCH  11  12
ATOM     12  C   UNL     1       4.318   3.511  17.084  0.00  0.00    +0.000 A 
ATOM     13  C   UNL     1       2.961   3.831  16.850  0.00  0.00    +0.000 A 
ATOM     14  C   UNL     1       1.913   3.114  17.442  0.00  0.00    +0.000 A 
ATOM     15  C   UNL     1       2.185   1.975  18.191  0.00  0.00    +0.000 A 
ATOM     16  C   UNL     1       3.499   1.584  18.376  0.00  0.00    +0.000 A 
ATOM     17  C   UNL     1       4.542   2.370  17.874  0.00  0.00    +0.000 A 
ENDBRANCH  11  12
BRANCH   2  18
ATOM     18  O   UNL     1       8.051   6.812  17.463  0.00  0.00    +0.000 OA
ATOM     19  H   UNL     1       8.316   6.358  18.282  0.00  0.00    +0.000 HD
ENDBRANCH   2  18
BRANCH   1  20
ATOM     20  S   UNL     1       5.973   5.487  19.132  0.00  0.00    +0.000 S 
BRANCH  20  25
ATOM     21  C   UNL     1       2.123   5.509  20.064  0.00  0.00    +0.000 A 
ATOM     22  C   UNL     1       1.621   6.576  19.345  0.00  0.00    +0.000 A 
ATOM     23  C   UNL     1       2.539   7.264  18.595  0.00  0.00    +0.000 A 
ATOM     24  N   UNL     1       3.839   6.964  18.528  0.00  0.00    +0.000 NA
ATOM     25  C   UNL     1       4.237   5.905  19.242  0.00  0.00    +0.000 A 
ATOM     26  N   UNL     1       3.432   5.165  20.025  0.00  0.00    +0.000 NA
BRANCH  23  27
ATOM     27  O   UNL     1       2.164   8.343  17.847  0.00  0.00    +0.000 OA
ATOM     28  H   UNL     1       1.205   8.315  17.721  0.00  0.00    +0.000 HD
ENDBRANCH  23  27
BRANCH  21  29
ATOM     29  C   UNL     1       1.190   4.675  20.911  0.00  0.00    +0.000 C 
BRANCH  29  31
ATOM     30  C   UNL     1       1.482   2.467  21.688  0.00  0.00    +0.000 C 
ATOM     31  O   UNL     1       1.972   3.801  21.726  0.00  0.00    +0.000 OA
ENDBRANCH  29  31
ENDBRANCH  21  29
ENDBRANCH  20  25
ENDBRANCH   1  20
TORSDOF 7
ENDMDL
MODEL 6
REMARK VINA RESULT:      -7.0      7.035     11.232
REMARK  Name = 
REMARK  8 active torsions:
REMARK  status: ('A' for Active; 'I' for Inactive)
REMARK    1  A    between atoms: C_1  and  O_2
REMARK    2  A    between atoms: O_2  and  C_3
REMARK    3  A    between atoms: C_3  and  C_4
REMARK    4  A    between atoms: C_6  and  O_7
REMARK    5  A    between atoms: C_9  and  S_10
REMARK    6  A    between atoms: S_10  and  C_11
REMARK    7  A    between atoms: C_12  and  O_13
REMARK    8  A    between atoms: C_22  and  C_23
REMARK                            x       y       z     vdW  Elec       q    Type
REMARK                         _______ _______ _______ _____ _____    ______ ____
ROOT
ATOM      1  C   UNL     1      -3.769  11.643  18.144  0.00  0.00    +0.000 A 
ATOM      2  C   UNL     1      -3.522  10.773  17.073  0.00  0.00    +0.000 A 
ATOM      3  N   UNL     1      -2.378  10.103  16.868  0.00  0.00    +0.000 NA
ATOM      4  C   UNL     1      -1.412  10.226  17.767  0.00  0.00    +0.000 A 
ATOM      5  C   UNL     1      -0.248   9.516  17.501  0.00  0.00    +0.000 A 
ATOM      6  C   UNL     1       0.829   9.535  18.379  0.00  0.00    +0.000 A 
ATOM      7 CL   UNL     1       2.260   8.657  18.009  0.00  0.00    +0.000 Cl
ATOM      8  C   UNL     1       0.740  10.245  19.560  0.00  0.00    +0.000 A 
ATOM      9  C   UNL     1      -0.429  10.957  19.844  0.00  0.00    +0.000 A 
ATOM     10  C   UNL     1      -1.533  11.017  18.938  0.00  0.00    +0.000 A 
ATOM     11  C   UNL     1      -2.737  11.805  19.116  0.00  0.00    +0.000 A 
ENDROOT
BRANCH  11  12
ATOM     12  C   UNL     1      -2.859  12.766  20.273  0.00  0.00    +0.000 A 
ATOM     13  C   UNL     1      -3.498  12.402  21.480  0.00  0.00    +0.000 A 
ATOM     14  C   UNL     1      -3.714  13.319  22.517  0.00  0.00    +0.000 A 
ATOM     15  C   UNL     1      -3.189  14.603  22.431  0.00  0.00    +0.000 A 
ATOM     16  C   UNL     1      -2.487  14.973  21.297  0.00  0.00    +0.000 A 
ATOM     17  C   UNL     1      -2.374  14.085  20.221  0.00  0.00    +0.000 A 
ENDBRANCH  11  12
BRANCH   2  18
ATOM     18  O   UNL     1      -4.445  10.542  16.088  0.00  0.00    +0.000 OA
ATOM     19  H   UNL     1      -4.252  11.171  15.371  0.00  0.00    +0.000 HD
ENDBRANCH   2  18
BRANCH   1  20
ATOM     20  S   UNL     1      -5.334  12.533  18.115  0.00  0.00    +0.000 S 
BRANCH  20  25
ATOM     21  C   UNL     1      -7.467  11.439  21.269  0.00  0.00    +0.000 A 
ATOM     22  C   UNL     1      -7.800  10.127  20.997  0.00  0.00    +0.000 A 
ATOM     23  C   UNL     1      -7.341   9.640  19.801  0.00  0.00    +0.000 A 
ATOM     24  N   UNL     1      -6.618  10.342  18.925  0.00  0.00    +0.000 NA
ATOM     25  C   UNL     1      -6.326  11.600  19.276  0.00  0.00    +0.000 A 
ATOM     26  N   UNL     1      -6.733  12.189  20.414  0.00  0.00    +0.000 NA
BRANCH  23  27
ATOM     27  O   UNL     1      -7.612   8.357  19.417  0.00  0.00    +0.000 OA
ATOM     28  H   UNL     1      -6.861   7.797  19.655  0.00  0.00    +0.000 HD
ENDBRANCH  23  27
BRANCH  21  29
ATOM     29  C   UNL     1      -7.911  12.068  22.569  0.00  0.00    +0.000 C 
BRANCH  29  31
ATOM     30  C   UNL     1      -6.944  13.008  24.504  0.00  0.00    +0.000 C 
ATOM     31  O   UNL     1      -6.829  12.010  23.499  0.00  0.00    +0.000 OA
ENDBRANCH  29  31
ENDBRANCH  21  29
ENDBRANCH  20  25
ENDBRANCH   1  20
TORSDOF 7
ENDMDL
MODEL 7
REMARK VINA RESULT:      -7.0      6.314      9.083
REMARK  Name = 
REMARK  8 active torsions:
REMARK  status: ('A' for Active; 'I' for Inactive)
REMARK    1  A    between atoms: C_1  and  O_2
REMARK    2  A    between atoms: O_2  and  C_3
REMARK    3  A    between atoms: C_3  and  C_4
REMARK    4  A    between atoms: C_6  and  O_7
REMARK    5  A    between atoms: C_9  and  S_10
REMARK    6  A    between atoms: S_10  and  C_11
REMARK    7  A    between atoms: C_12  and  O_13
REMARK    8  A    between atoms: C_22  and  C_23
REMARK                            x       y       z     vdW  Elec       q    Type
REMARK                         _______ _______ _______ _____ _____    ______ ____
ROOT
ATOM      1  C   UNL     1       0.541  11.208  19.308  0.00  0.00    +0.000 A 
ATOM      2  C   UNL     1       1.575  11.338  18.372  0.00  0.00    +0.000 A 
ATOM      3  N   UNL     1       2.396  12.394  18.269  0.00  0.00    +0.000 NA
ATOM      4  C   UNL     1       2.261  13.380  19.145  0.00  0.00    +0.000 A 
ATOM      5  C   UNL     1       3.132  14.450  18.986  0.00  0.00    +0.000 A 
ATOM      6  C   UNL     1       3.115  15.534  19.856  0.00  0.00    +0.000 A 
ATOM      7 CL   UNL     1       4.197  16.848  19.619  0.00  0.00    +0.000 Cl
ATOM      8  C   UNL     1       2.240  15.543  20.923  0.00  0.00    +0.000 A 
ATOM      9  C   UNL     1       1.364  14.468  21.100  0.00  0.00    +0.000 A 
ATOM     10  C   UNL     1       1.304  13.366  20.191  0.00  0.00    +0.000 A 
ATOM     11  C   UNL     1       0.364  12.264  20.251  0.00  0.00    +0.000 A 
ENDROOT
BRANCH  11  12
ATOM     12  C   UNL     1      -0.758  12.270  21.260  0.00  0.00    +0.000 A 
ATOM     13  C   UNL     1      -1.875  13.126  21.127  0.00  0.00    +0.000 A 
ATOM     14  C   UNL     1      -2.866  13.218  22.113  0.00  0.00    +0.000 A 
ATOM     15  C   UNL     1      -2.838  12.366  23.211  0.00  0.00    +0.000 A 
ATOM     16  C   UNL     1      -1.801  11.457  23.336  0.00  0.00    +0.000 A 
ATOM     17  C   UNL     1      -0.758  11.451  22.403  0.00  0.00    +0.000 A 
ENDBRANCH  11  12
BRANCH   2  18
ATOM     18  O   UNL     1       1.834  10.382  17.427  0.00  0.00    +0.000 OA
ATOM     19  H   UNL     1       1.720  10.808  16.560  0.00  0.00    +0.000 HD
ENDBRANCH   2  18
BRANCH   1  20
ATOM     20  S   UNL     1      -0.512   9.756  19.148  0.00  0.00    +0.000 S 
BRANCH  20  25
ATOM     21  C   UNL     1      -2.793  10.416  15.977  0.00  0.00    +0.000 A 
ATOM     22  C   UNL     1      -3.766  11.275  16.451  0.00  0.00    +0.000 A 
ATOM     23  C   UNL     1      -3.666  11.603  17.777  0.00  0.00    +0.000 A 
ATOM     24  N   UNL     1      -2.714  11.152  18.599  0.00  0.00    +0.000 NA
ATOM     25  C   UNL     1      -1.803  10.339  18.055  0.00  0.00    +0.000 A 
ATOM     26  N   UNL     1      -1.807   9.937  16.771  0.00  0.00    +0.000 NA
BRANCH  23  27
ATOM     27  O   UNL     1      -4.575  12.438  18.362  0.00  0.00    +0.000 OA
ATOM     28  H   UNL     1      -4.098  13.166  18.786  0.00  0.00    +0.000 HD
ENDBRANCH  23  27
BRANCH  21  29
ATOM     29  C   UNL     1      -2.804  10.005  14.524  0.00  0.00    +0.000 C 
BRANCH  29  31
ATOM     30  C   UNL     1      -4.257   9.866  12.672  0.00  0.00    +0.000 C 
ATOM     31  O   UNL     1      -4.159   9.894  14.089  0.00  0.00    +0.000 OA
ENDBRANCH  29  31
ENDBRANCH  21  29
ENDBRANCH  20  25
ENDBRANCH   1  20
TORSDOF 7
ENDMDL
MODEL 8
REMARK VINA RESULT:      -6.9      2.696      4.623
REMARK  Name = 
REMARK  8 active torsions:
REMARK  status: ('A' for Active; 'I' for Inactive)
REMARK    1  A    between atoms: C_1  and  O_2
REMARK    2  A    between atoms: O_2  and  C_3
REMARK    3  A    between atoms: C_3  and  C_4
REMARK    4  A    between atoms: C_6  and  O_7
REMARK    5  A    between atoms: C_9  and  S_10
REMARK    6  A    between atoms: S_10  and  C_11
REMARK    7  A    between atoms: C_12  and  O_13
REMARK    8  A    between atoms: C_22  and  C_23
REMARK                            x       y       z     vdW  Elec       q    Type
REMARK                         _______ _______ _______ _____ _____    ______ ____
ROOT
ATOM      1  C   UNL     1       4.107   5.365  17.619  0.00  0.00    +0.000 A 
ATOM      2  C   UNL     1       4.590   4.050  17.671  0.00  0.00    +0.000 A 
ATOM      3  N   UNL     1       4.182   3.110  18.537  0.00  0.00    +0.000 NA
ATOM      4  C   UNL     1       3.213   3.420  19.386  0.00  0.00    +0.000 A 
ATOM      5  C   UNL     1       2.836   2.411  20.264  0.00  0.00    +0.000 A 
ATOM      6  C   UNL     1       1.812   2.597  21.185  0.00  0.00    +0.000 A 
ATOM      7 CL   UNL     1       1.384   1.332  22.267  0.00  0.00    +0.000 Cl
ATOM      8  C   UNL     1       1.125   3.794  21.216  0.00  0.00    +0.000 A 
ATOM      9  C   UNL     1       1.489   4.815  20.331  0.00  0.00    +0.000 A 
ATOM     10  C   UNL     1       2.579   4.688  19.415  0.00  0.00    +0.000 A 
ATOM     11  C   UNL     1       3.076   5.728  18.536  0.00  0.00    +0.000 A 
ENDROOT
BRANCH  11  12
ATOM     12  C   UNL     1       2.527   7.131  18.623  0.00  0.00    +0.000 A 
ATOM     13  C   UNL     1       2.091   7.685  19.848  0.00  0.00    +0.000 A 
ATOM     14  C   UNL     1       1.479   8.943  19.922  0.00  0.00    +0.000 A 
ATOM     15  C   UNL     1       1.393   9.743  18.788  0.00  0.00    +0.000 A 
ATOM     16  C   UNL     1       1.881   9.267  17.584  0.00  0.00    +0.000 A 
ATOM     17  C   UNL     1       2.389   7.965  17.500  0.00  0.00    +0.000 A 
ENDBRANCH  11  12
BRANCH   2  18
ATOM     18  O   UNL     1       5.574   3.597  16.834  0.00  0.00    +0.000 OA
ATOM     19  H   UNL     1       5.197   3.591  15.937  0.00  0.00    +0.000 HD
ENDBRANCH   2  18
BRANCH   1  20
ATOM     20  S   UNL     1       4.920   6.476  16.458  0.00  0.00    +0.000 S 
BRANCH  20  25
ATOM     21  C   UNL     1       7.953   8.581  17.893  0.00  0.00    +0.000 A 
ATOM     22  C   UNL     1       8.564   7.712  18.774  0.00  0.00    +0.000 A 
ATOM     23  C   UNL     1       7.972   6.481  18.891  0.00  0.00    +0.000 A 
ATOM     24  N   UNL     1       6.882   6.099  18.221  0.00  0.00    +0.000 NA
ATOM     25  C   UNL     1       6.365   6.997  17.375  0.00  0.00    +0.000 A 
ATOM     26  N   UNL     1       6.849   8.237  17.189  0.00  0.00    +0.000 NA
BRANCH  23  27
ATOM     27  O   UNL     1       8.481   5.538  19.738  0.00  0.00    +0.000 OA
ATOM     28  H   UNL     1       9.219   5.926  20.228  0.00  0.00    +0.000 HD
ENDBRANCH  23  27
BRANCH  21  29
ATOM     29  C   UNL     1       8.536   9.959  17.679  0.00  0.00    +0.000 C 
BRANCH  29  31
ATOM     30  C   UNL     1       9.654  11.712  18.792  0.00  0.00    +0.000 C 
ATOM     31  O   UNL     1       9.180  10.375  18.883  0.00  0.00    +0.000 OA
ENDBRANCH  29  31
ENDBRANCH  21  29
ENDBRANCH  20  25
ENDBRANCH   1  20
TORSDOF 7
ENDMDL
MODEL 9
REMARK VINA RESULT:      -6.9      3.708      6.416
REMARK  Name = 
REMARK  8 active torsions:
REMARK  status: ('A' for Active; 'I' for Inactive)
REMARK    1  A    between atoms: C_1  and  O_2
REMARK    2  A    between atoms: O_2  and  C_3
REMARK    3  A    between atoms: C_3  and  C_4
REMARK    4  A    between atoms: C_6  and  O_7
REMARK    5  A    between atoms: C_9  and  S_10
REMARK    6  A    between atoms: S_10  and  C_11
REMARK    7  A    between atoms: C_12  and  O_13
REMARK    8  A    between atoms: C_22  and  C_23
REMARK                            x       y       z     vdW  Elec       q    Type
REMARK                         _______ _______ _______ _____ _____    ______ ____
ROOT
ATOM      1  C   UNL     1       2.398   7.334  19.027  0.00  0.00    +0.000 A 
ATOM      2  C   UNL     1       2.995   8.281  18.184  0.00  0.00    +0.000 A 
ATOM      3  N   UNL     1       3.860   8.003  17.198  0.00  0.00    +0.000 NA
ATOM      4  C   UNL     1       4.147   6.731  16.958  0.00  0.00    +0.000 A 
ATOM      5  C   UNL     1       5.054   6.502  15.930  0.00  0.00    +0.000 A 
ATOM      6  C   UNL     1       5.416   5.213  15.558  0.00  0.00    +0.000 A 
ATOM      7 CL   UNL     1       6.553   4.967  14.293  0.00  0.00    +0.000 Cl
ATOM      8  C   UNL     1       4.846   4.128  16.194  0.00  0.00    +0.000 A 
ATOM      9  C   UNL     1       3.925   4.345  17.224  0.00  0.00    +0.000 A 
ATOM     10  C   UNL     1       3.575   5.654  17.681  0.00  0.00    +0.000 A 
ATOM     11  C   UNL     1       2.705   5.959  18.800  0.00  0.00    +0.000 A 
ENDROOT
BRANCH  11  12
ATOM     12  C   UNL     1       2.180   4.855  19.685  0.00  0.00    +0.000 A 
ATOM     13  C   UNL     1       2.703   4.626  20.978  0.00  0.00    +0.000 A 
ATOM     14  C   UNL     1       2.300   3.537  21.763  0.00  0.00    +0.000 A 
ATOM     15  C   UNL     1       1.271   2.710  21.331  0.00  0.00    +0.000 A 
ATOM     16  C   UNL     1       0.679   2.950  20.103  0.00  0.00    +0.000 A 
ATOM     17  C   UNL     1       1.165   3.972  19.279  0.00  0.00    +0.000 A 
ENDBRANCH  11  12
BRANCH   2  18
ATOM     18  O   UNL     1       2.765   9.625  18.313  0.00  0.00    +0.000 OA
ATOM     19  H   UNL     1       3.581  10.015  18.672  0.00  0.00    +0.000 HD
ENDBRANCH   2  18
BRANCH   1  20
ATOM     20  S   UNL     1       1.382   7.975  20.368  0.00  0.00    +0.000 S 
BRANCH  20  25
ATOM     21  C   UNL     1       0.394  11.737  19.617  0.00  0.00    +0.000 A 
ATOM     22  C   UNL     1      -0.430  11.642  18.514  0.00  0.00    +0.000 A 
ATOM     23  C   UNL     1      -0.631  10.373  18.037  0.00  0.00    +0.000 A 
ATOM     24  N   UNL     1      -0.091   9.272  18.566  0.00  0.00    +0.000 NA
ATOM     25  C   UNL     1       0.681   9.453  19.643  0.00  0.00    +0.000 A 
ATOM     26  N   UNL     1       0.961  10.649  20.190  0.00  0.00    +0.000 NA
BRANCH  23  27
ATOM     27  O   UNL     1      -1.422  10.152  16.945  0.00  0.00    +0.000 OA
ATOM     28  H   UNL     1      -1.214  10.816  16.273  0.00  0.00    +0.000 HD
ENDBRANCH  23  27
BRANCH  21  29
ATOM     29  C   UNL     1       0.668  13.091  20.230  0.00  0.00    +0.000 C 
BRANCH  29  31
ATOM     30  C   UNL     1       2.784  13.869  20.922  0.00  0.00    +0.000 C 
ATOM     31  O   UNL     1       1.725  12.957  21.181  0.00  0.00    +0.000 OA
ENDBRANCH  29  31
ENDBRANCH  21  29
ENDBRANCH  20  25
ENDBRANCH   1  20
TORSDOF 7
ENDMDL
