MODEL 1
REMARK VINA RESULT:      -7.5      0.000      0.000
REMARK  Name = 
REMARK  5 active torsions:
REMARK  status: ('A' for Active; 'I' for Inactive)
REMARK    1  A    between atoms: C_2  and  O_3
REMARK    2  A    between atoms: C_2  and  C_12
REMARK    3  A    between atoms: O_3  and  C_4
REMARK    4  A    between atoms: C_4  and  C_5
REMARK    5  A    between atoms: C_17  and  O_18
REMARK                            x       y       z     vdW  Elec       q    Type
REMARK                         _______ _______ _______ _____ _____    ______ ____
ROOT
ATOM      1  O   UNL     1       2.507   3.325  16.583  0.00  0.00    +0.000 OA
ATOM      2  C   UNL     1       3.294   3.436  17.498  0.00  0.00    +0.000 C 
ENDROOT
BRANCH   2   3
ATOM      3  C   UNL     1       2.821   3.370  18.924  0.00  0.00    +0.000 A 
ATOM      4  C   UNL     1       1.519   3.824  19.241  0.00  0.00    +0.000 A 
ATOM      5  C   UNL     1       1.011   3.723  20.548  0.00  0.00    +0.000 A 
ATOM      6  C   UNL     1       1.766   3.099  21.535  0.00  0.00    +0.000 A 
ATOM      7  C   UNL     1       3.034   2.603  21.231  0.00  0.00    +0.000 A 
ATOM      8  C   UNL     1       3.563   2.761  19.940  0.00  0.00    +0.000 A 
BRANCH   8   9
ATOM      9  O   UNL     1       4.817   2.286  19.678  0.00  0.00    +0.000 OA
ATOM     10  H   UNL     1       5.217   2.792  18.956  0.00  0.00    +0.000 HD
ENDBRANCH   8   9
ENDBRANCH   2   3
BRANCH   2  11
ATOM     11  O   UNL     1       4.653   3.616  17.330  0.00  0.00    +0.000 OA
BRANCH  11  12
ATOM     12  C   UNL     1       5.170   4.186  16.102  0.00  0.00    +0.000 C 
BRANCH  12  13
ATOM     13  C   UNL     1       5.669   5.645  16.184  0.00  0.00    +0.000 C 
ATOM     14  O   UNL     1       5.124   6.548  15.544  0.00  0.00    +0.000 OA
ATOM     15  N   UNL     1       6.685   5.906  17.091  0.00  0.00    +0.000 N 
ATOM     16  C   UNL     1       7.404   4.939  17.894  0.00  0.00    +0.000 C 
ATOM     17  C   UNL     1       7.772   5.738  19.130  0.00  0.00    +0.000 C 
ATOM     18  C   UNL     1       8.127   7.106  18.551  0.00  0.00    +0.000 C 
ATOM     19  C   UNL     1       7.250   7.236  17.297  0.00  0.00    +0.000 C 
ENDBRANCH  12  13
ENDBRANCH  11  12
ENDBRANCH   2  11
TORSDOF 5
ENDMDL
MODEL 2
REMARK VINA RESULT:      -7.2      1.896      3.154
REMARK  Name = 
REMARK  5 active torsions:
REMARK  status: ('A' for Active; 'I' for Inactive)
REMARK    1  A    between atoms: C_2  and  O_3
REMARK    2  A    between atoms: C_2  and  C_12
REMARK    3  A    between atoms: O_3  and  C_4
REMARK    4  A    between atoms: C_4  and  C_5
REMARK    5  A    between atoms: C_17  and  O_18
REMARK                            x       y       z     vdW  Elec       q    Type
REMARK                         _______ _______ _______ _____ _____    ______ ____
ROOT
ATOM      1  O   UNL     1       4.979   1.708  21.305  0.00  0.00    +0.000 OA
ATOM      2  C   UNL     1       4.583   2.293  20.320  0.00  0.00    +0.000 C 
ENDROOT
BRANCH   2   3
ATOM      3  C   UNL     1       3.115   2.550  20.123  0.00  0.00    +0.000 A 
ATOM      4  C   UNL     1       2.435   3.401  21.025  0.00  0.00    +0.000 A 
ATOM      5  C   UNL     1       1.079   3.721  20.845  0.00  0.00    +0.000 A 
ATOM      6  C   UNL     1       0.405   3.256  19.720  0.00  0.00    +0.000 A 
ATOM      7  C   UNL     1       1.071   2.453  18.794  0.00  0.00    +0.000 A 
ATOM      8  C   UNL     1       2.408   2.085  19.010  0.00  0.00    +0.000 A 
BRANCH   8   9
ATOM      9  O   UNL     1       3.027   1.278  18.097  0.00  0.00    +0.000 OA
ATOM     10  H   UNL     1       3.573   0.622  18.553  0.00  0.00    +0.000 HD
ENDBRANCH   8   9
ENDBRANCH   2   3
BRANCH   2  11
ATOM     11  O   UNL     1       5.410   2.775  19.323  0.00  0.00    +0.000 OA
BRANCH  11  12
ATOM     12  C   UNL     1       5.386   4.179  18.966  0.00  0.00    +0.000 C 
BRANCH  12  13
ATOM     13  C   UNL     1       6.559   4.681  18.097  0.00  0.00    +0.000 C 
ATOM     14  O   UNL     1       7.667   4.918  18.587  0.00  0.00    +0.000 OA
ATOM     15  N   UNL     1       6.338   4.749  16.730  0.00  0.00    +0.000 N 
ATOM     16  C   UNL     1       5.091   4.503  16.037  0.00  0.00    +0.000 C 
ATOM     17  C   UNL     1       5.555   3.980  14.690  0.00  0.00    +0.000 C 
ATOM     18  C   UNL     1       6.775   4.850  14.396  0.00  0.00    +0.000 C 
ATOM     19  C   UNL     1       7.353   5.187  15.777  0.00  0.00    +0.000 C 
ENDBRANCH  12  13
ENDBRANCH  11  12
ENDBRANCH   2  11
TORSDOF 5
ENDMDL
MODEL 3
REMARK VINA RESULT:      -7.1      2.241      3.183
REMARK  Name = 
REMARK  5 active torsions:
REMARK  status: ('A' for Active; 'I' for Inactive)
REMARK    1  A    between atoms: C_2  and  O_3
REMARK    2  A    between atoms: C_2  and  C_12
REMARK    3  A    between atoms: O_3  and  C_4
REMARK    4  A    between atoms: C_4  and  C_5
REMARK    5  A    between atoms: C_17  and  O_18
REMARK                            x       y       z     vdW  Elec       q    Type
REMARK                         _______ _______ _______ _____ _____    ______ ____
ROOT
ATOM      1  O   UNL     1       3.146   7.015  18.394  0.00  0.00    +0.000 OA
ATOM      2  C   UNL     1       3.480   5.974  18.917  0.00  0.00    +0.000 C 
ENDROOT
BRANCH   2   3
ATOM      3  C   UNL     1       2.474   4.881  19.153  0.00  0.00    +0.000 A 
ATOM      4  C   UNL     1       2.017   4.115  18.056  0.00  0.00    +0.000 A 
ATOM      5  C   UNL     1       1.126   3.043  18.236  0.00  0.00    +0.000 A 
ATOM      6  C   UNL     1       0.743   2.675  19.521  0.00  0.00    +0.000 A 
ATOM      7  C   UNL     1       1.220   3.389  20.621  0.00  0.00    +0.000 A 
ATOM      8  C   UNL     1       2.060   4.499  20.432  0.00  0.00    +0.000 A 
BRANCH   8   9
ATOM      9  O   UNL     1       2.493   5.193  21.526  0.00  0.00    +0.000 OA
ATOM     10  H   UNL     1       3.321   5.649  21.321  0.00  0.00    +0.000 HD
ENDBRANCH   8   9
ENDBRANCH   2   3
BRANCH   2  11
ATOM     11  O   UNL     1       4.771   5.693  19.323  0.00  0.00    +0.000 OA
BRANCH  11  12
ATOM     12  C   UNL     1       5.427   4.476  18.889  0.00  0.00    +0.000 C 
BRANCH  12  13
ATOM     13  C   UNL     1       6.655   4.654  17.970  0.00  0.00    +0.000 C 
ATOM     14  O   UNL     1       7.804   4.620  18.419  0.00  0.00    +0.000 OA
ATOM     15  N   UNL     1       6.407   4.746  16.609  0.00  0.00    +0.000 N 
ATOM     16  C   UNL     1       5.113   4.801  15.962  0.00  0.00    +0.000 C 
ATOM     17  C   UNL     1       5.384   4.151  14.618  0.00  0.00    +0.000 C 
ATOM     18  C   UNL     1       6.769   4.687  14.261  0.00  0.00    +0.000 C 
ATOM     19  C   UNL     1       7.463   4.900  15.613  0.00  0.00    +0.000 C 
ENDBRANCH  12  13
ENDBRANCH  11  12
ENDBRANCH   2  11
TORSDOF 5
ENDMDL
MODEL 4
REMARK VINA RESULT:      -7.1      0.800      1.695
REMARK  Name = 
REMARK  5 active torsions:
REMARK  status: ('A' for Active; 'I' for Inactive)
REMARK    1  A    between atoms: C_2  and  O_3
REMARK    2  A    between atoms: C_2  and  C_12
REMARK    3  A    between atoms: O_3  and  C_4
REMARK    4  A    between atoms: C_4  and  C_5
REMARK    5  A    between atoms: C_17  and  O_18
REMARK                            x       y       z     vdW  Elec       q    Type
REMARK                         _______ _______ _______ _____ _____    ______ ____
ROOT
ATOM      1  O   UNL     1       4.260   1.855  17.492  0.00  0.00    +0.000 OA
ATOM      2  C   UNL     1       3.735   2.884  17.858  0.00  0.00    +0.000 C 
ENDROOT
BRANCH   2   3
ATOM      3  C   UNL     1       2.847   2.898  19.072  0.00  0.00    +0.000 A 
ATOM      4  C   UNL     1       3.411   2.635  20.342  0.00  0.00    +0.000 A 
ATOM      5  C   UNL     1       2.635   2.699  21.512  0.00  0.00    +0.000 A 
ATOM      6  C   UNL     1       1.306   3.102  21.435  0.00  0.00    +0.000 A 
ATOM      7  C   UNL     1       0.743   3.410  20.196  0.00  0.00    +0.000 A 
ATOM      8  C   UNL     1       1.505   3.284  19.023  0.00  0.00    +0.000 A 
BRANCH   8   9
ATOM      9  O   UNL     1       0.920   3.571  17.822  0.00  0.00    +0.000 OA
ATOM     10  H   UNL     1       0.703   2.751  17.357  0.00  0.00    +0.000 HD
ENDBRANCH   8   9
ENDBRANCH   2   3
BRANCH   2  11
ATOM     11  O   UNL     1       3.900   4.103  17.228  0.00  0.00    +0.000 OA
BRANCH  11  12
ATOM     12  C   UNL     1       4.930   4.275  16.224  0.00  0.00    +0.000 C 
BRANCH  12  13
ATOM     13  C   UNL     1       5.625   5.653  16.190  0.00  0.00    +0.000 C 
ATOM     14  O   UNL     1       5.244   6.546  15.429  0.00  0.00    +0.000 OA
ATOM     15  N   UNL     1       6.622   5.872  17.128  0.00  0.00    +0.000 N 
ATOM     16  C   UNL     1       7.159   4.910  18.068  0.00  0.00    +0.000 C 
ATOM     17  C   UNL     1       7.574   5.782  19.238  0.00  0.00    +0.000 C 
ATOM     18  C   UNL     1       8.146   7.019  18.547  0.00  0.00    +0.000 C 
ATOM     19  C   UNL     1       7.359   7.127  17.234  0.00  0.00    +0.000 C 
ENDBRANCH  12  13
ENDBRANCH  11  12
ENDBRANCH   2  11
TORSDOF 5
ENDMDL
MODEL 5
REMARK VINA RESULT:      -7.1      1.577      2.365
REMARK  Name = 
REMARK  5 active torsions:
REMARK  status: ('A' for Active; 'I' for Inactive)
REMARK    1  A    between atoms: C_2  and  O_3
REMARK    2  A    between atoms: C_2  and  C_12
REMARK    3  A    between atoms: O_3  and  C_4
REMARK    4  A    between atoms: C_4  and  C_5
REMARK    5  A    between atoms: C_17  and  O_18
REMARK                            x       y       z     vdW  Elec       q    Type
REMARK                         _______ _______ _______ _____ _____    ______ ____
ROOT
ATOM      1  O   UNL     1       3.161   3.436  16.936  0.00  0.00    +0.000 OA
ATOM      2  C   UNL     1       2.879   4.195  17.838  0.00  0.00    +0.000 C 
ENDROOT
BRANCH   2   3
ATOM      3  C   UNL     1       2.632   3.672  19.227  0.00  0.00    +0.000 A 
ATOM      4  C   UNL     1       1.350   3.828  19.804  0.00  0.00    +0.000 A 
ATOM      5  C   UNL     1       1.053   3.300  21.072  0.00  0.00    +0.000 A 
ATOM      6  C   UNL     1       2.008   2.544  21.745  0.00  0.00    +0.000 A 
ATOM      7  C   UNL     1       3.263   2.340  21.172  0.00  0.00    +0.000 A 
ATOM      8  C   UNL     1       3.577   2.922  19.932  0.00  0.00    +0.000 A 
BRANCH   8   9
ATOM      9  O   UNL     1       4.822   2.724  19.406  0.00  0.00    +0.000 OA
ATOM     10  H   UNL     1       4.965   3.326  18.663  0.00  0.00    +0.000 HD
ENDBRANCH   8   9
ENDBRANCH   2   3
BRANCH   2  11
ATOM     11  O   UNL     1       2.773   5.564  17.691  0.00  0.00    +0.000 OA
BRANCH  11  12
ATOM     12  C   UNL     1       3.852   6.433  18.115  0.00  0.00    +0.000 C 
BRANCH  12  13
ATOM     13  C   UNL     1       5.271   5.824  18.080  0.00  0.00    +0.000 C 
ATOM     14  O   UNL     1       5.845   5.473  19.114  0.00  0.00    +0.000 OA
ATOM     15  N   UNL     1       5.819   5.592  16.828  0.00  0.00    +0.000 N 
ATOM     16  C   UNL     1       5.250   5.959  15.547  0.00  0.00    +0.000 C 
ATOM     17  C   UNL     1       5.790   4.883  14.623  0.00  0.00    +0.000 C 
ATOM     18  C   UNL     1       7.217   4.690  15.131  0.00  0.00    +0.000 C 
ATOM     19  C   UNL     1       7.141   5.006  16.631  0.00  0.00    +0.000 C 
ENDBRANCH  12  13
ENDBRANCH  11  12
ENDBRANCH   2  11
TORSDOF 5
ENDMDL
MODEL 6
REMARK VINA RESULT:      -7.1      1.099      1.409
REMARK  Name = 
REMARK  5 active torsions:
REMARK  status: ('A' for Active; 'I' for Inactive)
REMARK    1  A    between atoms: C_2  and  O_3
REMARK    2  A    between atoms: C_2  and  C_12
REMARK    3  A    between atoms: O_3  and  C_4
REMARK    4  A    between atoms: C_4  and  C_5
REMARK    5  A    between atoms: C_17  and  O_18
REMARK                            x       y       z     vdW  Elec       q    Type
REMARK                         _______ _______ _______ _____ _____    ______ ____
ROOT
ATOM      1  O   UNL     1       2.564   3.140  16.234  0.00  0.00    +0.000 OA
ATOM      2  C   UNL     1       3.247   3.494  17.171  0.00  0.00    +0.000 C 
ENDROOT
BRANCH   2   3
ATOM      3  C   UNL     1       2.609   3.896  18.472  0.00  0.00    +0.000 A 
ATOM      4  C   UNL     1       2.813   5.206  18.964  0.00  0.00    +0.000 A 
ATOM      5  C   UNL     1       2.186   5.648  20.142  0.00  0.00    +0.000 A 
ATOM      6  C   UNL     1       1.290   4.813  20.800  0.00  0.00    +0.000 A 
ATOM      7  C   UNL     1       1.040   3.532  20.305  0.00  0.00    +0.000 A 
ATOM      8  C   UNL     1       1.715   3.073  19.163  0.00  0.00    +0.000 A 
BRANCH   8   9
ATOM      9  O   UNL     1       1.467   1.806  18.714  0.00  0.00    +0.000 OA
ATOM     10  H   UNL     1       1.698   1.738  17.777  0.00  0.00    +0.000 HD
ENDBRANCH   8   9
ENDBRANCH   2   3
BRANCH   2  11
ATOM     11  O   UNL     1       4.627   3.550  17.142  0.00  0.00    +0.000 OA
BRANCH  11  12
ATOM     12  C   UNL     1       5.314   4.112  15.996  0.00  0.00    +0.000 C 
BRANCH  12  13
ATOM     13  C   UNL     1       5.750   5.588  16.120  0.00  0.00    +0.000 C 
ATOM     14  O   UNL     1       5.176   6.483  15.494  0.00  0.00    +0.000 OA
ATOM     15  N   UNL     1       6.743   5.869  17.046  0.00  0.00    +0.000 N 
ATOM     16  C   UNL     1       7.492   4.913  17.835  0.00  0.00    +0.000 C 
ATOM     17  C   UNL     1       7.810   5.697  19.095  0.00  0.00    +0.000 C 
ATOM     18  C   UNL     1       8.115   7.092  18.553  0.00  0.00    +0.000 C 
ATOM     19  C   UNL     1       7.250   7.215  17.291  0.00  0.00    +0.000 C 
ENDBRANCH  12  13
ENDBRANCH  11  12
ENDBRANCH   2  11
TORSDOF 5
ENDMDL
MODEL 7
REMARK VINA RESULT:      -7.0      1.765      5.842
REMARK  Name = 
REMARK  5 active torsions:
REMARK  status: ('A' for Active; 'I' for Inactive)
REMARK    1  A    between atoms: C_2  and  O_3
REMARK    2  A    between atoms: C_2  and  C_12
REMARK    3  A    between atoms: O_3  and  C_4
REMARK    4  A    between atoms: C_4  and  C_5
REMARK    5  A    between atoms: C_17  and  O_18
REMARK                            x       y       z     vdW  Elec       q    Type
REMARK                         _______ _______ _______ _____ _____    ______ ____
ROOT
ATOM      1  O   UNL     1       6.530   4.017  14.630  0.00  0.00    +0.000 OA
ATOM      2  C   UNL     1       6.117   4.044  15.769  0.00  0.00    +0.000 C 
ENDROOT
BRANCH   2   3
ATOM      3  C   UNL     1       6.650   5.049  16.752  0.00  0.00    +0.000 A 
ATOM      4  C   UNL     1       7.498   4.612  17.796  0.00  0.00    +0.000 A 
ATOM      5  C   UNL     1       8.071   5.522  18.700  0.00  0.00    +0.000 A 
ATOM      6  C   UNL     1       7.867   6.887  18.525  0.00  0.00    +0.000 A 
ATOM      7  C   UNL     1       7.072   7.342  17.473  0.00  0.00    +0.000 A 
ATOM      8  C   UNL     1       6.450   6.425  16.610  0.00  0.00    +0.000 A 
BRANCH   8   9
ATOM      9  O   UNL     1       5.658   6.900  15.603  0.00  0.00    +0.000 OA
ATOM     10  H   UNL     1       6.194   7.078  14.818  0.00  0.00    +0.000 HD
ENDBRANCH   8   9
ENDBRANCH   2   3
BRANCH   2  11
ATOM     11  O   UNL     1       5.144   3.193  16.258  0.00  0.00    +0.000 OA
BRANCH  11  12
ATOM     12  C   UNL     1       4.052   3.711  17.058  0.00  0.00    +0.000 C 
BRANCH  12  13
ATOM     13  C   UNL     1       3.358   2.701  17.997  0.00  0.00    +0.000 C 
ATOM     14  O   UNL     1       3.645   1.501  17.977  0.00  0.00    +0.000 OA
ATOM     15  N   UNL     1       2.478   3.223  18.933  0.00  0.00    +0.000 N 
ATOM     16  C   UNL     1       2.057   4.604  19.055  0.00  0.00    +0.000 C 
ATOM     17  C   UNL     1       1.781   4.738  20.541  0.00  0.00    +0.000 C 
ATOM     18  C   UNL     1       1.131   3.398  20.883  0.00  0.00    +0.000 C 
ATOM     19  C   UNL     1       1.758   2.401  19.900  0.00  0.00    +0.000 C 
ENDBRANCH  12  13
ENDBRANCH  11  12
ENDBRANCH   2  11
TORSDOF 5
ENDMDL
MODEL 8
REMARK VINA RESULT:      -7.0      2.360      3.574
REMARK  Name = 
REMARK  5 active torsions:
REMARK  status: ('A' for Active; 'I' for Inactive)
REMARK    1  A    between atoms: C_2  and  O_3
REMARK    2  A    between atoms: C_2  and  C_12
REMARK    3  A    between atoms: O_3  and  C_4
REMARK    4  A    between atoms: C_4  and  C_5
REMARK    5  A    between atoms: C_17  and  O_18
REMARK                            x       y       z     vdW  Elec       q    Type
REMARK                         _______ _______ _______ _____ _____    ______ ____
ROOT
ATOM      1  O   UNL     1       3.981   6.281  17.402  0.00  0.00    +0.000 OA
ATOM      2  C   UNL     1       4.108   5.174  17.878  0.00  0.00    +0.000 C 
ENDROOT
BRANCH   2   3
ATOM      3  C   UNL     1       3.030   4.589  18.749  0.00  0.00    +0.000 A 
ATOM      4  C   UNL     1       2.842   5.102  20.053  0.00  0.00    +0.000 A 
ATOM      5  C   UNL     1       1.808   4.631  20.880  0.00  0.00    +0.000 A 
ATOM      6  C   UNL     1       0.902   3.698  20.386  0.00  0.00    +0.000 A 
ATOM      7  C   UNL     1       1.043   3.213  19.085  0.00  0.00    +0.000 A 
ATOM      8  C   UNL     1       2.114   3.640  18.285  0.00  0.00    +0.000 A 
BRANCH   8   9
ATOM      9  O   UNL     1       2.240   3.130  17.023  0.00  0.00    +0.000 OA
ATOM     10  H   UNL     1       1.386   2.791  16.719  0.00  0.00    +0.000 HD
ENDBRANCH   8   9
ENDBRANCH   2   3
BRANCH   2  11
ATOM     11  O   UNL     1       5.208   4.364  17.669  0.00  0.00    +0.000 OA
BRANCH  11  12
ATOM     12  C   UNL     1       5.497   3.848  16.346  0.00  0.00    +0.000 C 
BRANCH  12  13
ATOM     13  C   UNL     1       6.641   4.546  15.578  0.00  0.00    +0.000 C 
ATOM     14  O   UNL     1       7.585   5.074  16.170  0.00  0.00    +0.000 OA
ATOM     15  N   UNL     1       6.608   4.455  14.194  0.00  0.00    +0.000 N 
ATOM     16  C   UNL     1       5.560   3.869  13.385  0.00  0.00    +0.000 C 
ATOM     17  C   UNL     1       6.317   3.369  12.169  0.00  0.00    +0.000 C 
ATOM     18  C   UNL     1       7.341   4.478  11.933  0.00  0.00    +0.000 C 
ATOM     19  C   UNL     1       7.625   5.047  13.331  0.00  0.00    +0.000 C 
ENDBRANCH  12  13
ENDBRANCH  11  12
ENDBRANCH   2  11
TORSDOF 5
ENDMDL
MODEL 9
REMARK VINA RESULT:      -7.0      2.285      3.414
REMARK  Name = 
REMARK  5 active torsions:
REMARK  status: ('A' for Active; 'I' for Inactive)
REMARK    1  A    between atoms: C_2  and  O_3
REMARK    2  A    between atoms: C_2  and  C_12
REMARK    3  A    between atoms: O_3  and  C_4
REMARK    4  A    between atoms: C_4  and  C_5
REMARK    5  A    between atoms: C_17  and  O_18
REMARK                            x       y       z     vdW  Elec       q    Type
REMARK                         _______ _______ _______ _____ _____    ______ ____
ROOT
ATOM      1  O   UNL     1       5.958   4.774  19.693  0.00  0.00    +0.000 OA
ATOM      2  C   UNL     1       5.216   4.234  18.901  0.00  0.00    +0.000 C 
ENDROOT
BRANCH   2   3
ATOM      3  C   UNL     1       3.828   3.828  19.310  0.00  0.00    +0.000 A 
ATOM      4  C   UNL     1       3.006   4.762  19.983  0.00  0.00    +0.000 A 
ATOM      5  C   UNL     1       1.679   4.449  20.329  0.00  0.00    +0.000 A 
ATOM      6  C   UNL     1       1.135   3.231  19.939  0.00  0.00    +0.000 A 
ATOM      7  C   UNL     1       1.915   2.314  19.233  0.00  0.00    +0.000 A 
ATOM      8  C   UNL     1       3.258   2.605  18.945  0.00  0.00    +0.000 A 
BRANCH   8   9
ATOM      9  O   UNL     1       4.005   1.678  18.273  0.00  0.00    +0.000 OA
ATOM     10  H   UNL     1       4.711   1.346  18.845  0.00  0.00    +0.000 HD
ENDBRANCH   8   9
ENDBRANCH   2   3
BRANCH   2  11
ATOM     11  O   UNL     1       5.555   3.958  17.590  0.00  0.00    +0.000 OA
BRANCH  11  12
ATOM     12  C   UNL     1       5.303   4.932  16.547  0.00  0.00    +0.000 C 
BRANCH  12  13
ATOM     13  C   UNL     1       6.506   5.294  15.649  0.00  0.00    +0.000 C 
ATOM     14  O   UNL     1       7.498   5.869  16.105  0.00  0.00    +0.000 OA
ATOM     15  N   UNL     1       6.461   4.848  14.337  0.00  0.00    +0.000 N 
ATOM     16  C   UNL     1       5.359   4.171  13.686  0.00  0.00    +0.000 C 
ATOM     17  C   UNL     1       6.062   3.302  12.659  0.00  0.00    +0.000 C 
ATOM     18  C   UNL     1       7.186   4.211  12.165  0.00  0.00    +0.000 C 
ATOM     19  C   UNL     1       7.527   5.096  13.372  0.00  0.00    +0.000 C 
ENDBRANCH  12  13
ENDBRANCH  11  12
ENDBRANCH   2  11
TORSDOF 5
ENDMDL
