MODEL 1
REMARK VINA RESULT:      -8.2      0.000      0.000
REMARK  Name = 
REMARK  6 active torsions:
REMARK  status: ('A' for Active; 'I' for Inactive)
REMARK    1  A    between atoms: O_1  and  N_2
REMARK    2  A    between atoms: C_3  and  C_12
REMARK    3  A    between atoms: N_4  and  C_5
REMARK    4  A    between atoms: C_5  and  C_6
REMARK    5  A    between atoms: C_15  and  O_16
REMARK    6  A    between atoms: O_16  and  C_17
REMARK                            x       y       z     vdW  Elec       q    Type
REMARK                         _______ _______ _______ _____ _____    ______ ____
ROOT
ATOM      1  C   UNL     1       1.280   9.228  19.292  0.00  0.00    +0.000 A 
ATOM      2  C   UNL     1       1.818   8.906  18.042  0.00  0.00    +0.000 A 
ATOM      3  C   UNL     1       2.611   7.766  17.911  0.00  0.00    +0.000 A 
ATOM      4  C   UNL     1       2.838   6.993  19.041  0.00  0.00    +0.000 A 
ATOM      5  N   UNL     1       2.280   7.246  20.248  0.00  0.00    +0.000 NA
ATOM      6  C   UNL     1       1.533   8.372  20.352  0.00  0.00    +0.000 A 
ENDROOT
BRANCH   1   8
ATOM      7  N   UNL     1       1.210  11.562  19.694  0.00  0.00    +0.000 NA
ATOM      8  C   UNL     1       0.500  10.489  19.507  0.00  0.00    +0.000 C 
ATOM      9  N   UNL     1      -0.871  10.357  19.462  0.00  0.00    +0.000 N 
ATOM     10  H   UNL     1      -1.268   9.498  19.824  0.00  0.00    +0.000 HD
BRANCH   7  11
ATOM     11  O   UNL     1       0.441  12.698  19.952  0.00  0.00    +0.000 OA
ATOM     12  H   UNL     1       0.452  13.155  19.092  0.00  0.00    +0.000 HD
ENDBRANCH   7  11
BRANCH   9  13
ATOM     13  C   UNL     1      -1.829  11.401  19.189  0.00  0.00    +0.000 C 
BRANCH  13  14
ATOM     14  C   UNL     1      -2.564  11.046  17.917  0.00  0.00    +0.000 A 
ATOM     15  C   UNL     1      -1.971  10.206  16.962  0.00  0.00    +0.000 A 
ATOM     16  C   UNL     1      -2.640   9.917  15.769  0.00  0.00    +0.000 A 
ATOM     17  C   UNL     1      -3.894  10.468  15.519  0.00  0.00    +0.000 A 
ATOM     18  C   UNL     1      -4.488  11.311  16.457  0.00  0.00    +0.000 A 
ATOM     19  C   UNL     1      -3.822  11.604  17.648  0.00  0.00    +0.000 A 
ENDBRANCH  13  14
ENDBRANCH   9  13
ENDBRANCH   1   8
BRANCH   4  20
ATOM     20  O   UNL     1       3.731   5.936  18.910  0.00  0.00    +0.000 OA
BRANCH  20  21
ATOM     21  C   UNL     1       3.223   4.658  19.049  0.00  0.00    +0.000 A 
ATOM     22  C   UNL     1       2.612   4.225  20.235  0.00  0.00    +0.000 A 
ATOM     23  C   UNL     1       2.076   2.941  20.320  0.00  0.00    +0.000 A 
ATOM     24 CL   UNL     1       1.261   2.456  21.755  0.00  0.00    +0.000 Cl
ATOM     25  C   UNL     1       2.186   2.061  19.250  0.00  0.00    +0.000 A 
ATOM     26  C   UNL     1       2.852   2.461  18.089  0.00  0.00    +0.000 A 
ATOM     27  C   UNL     1       3.374   3.756  17.989  0.00  0.00    +0.000 A 
ATOM     28 CL   UNL     1       4.202   4.197  16.539  0.00  0.00    +0.000 Cl
ENDBRANCH  20  21
ENDBRANCH   4  20
TORSDOF 6
ENDMDL
MODEL 2
REMARK VINA RESULT:      -8.1      1.322      1.579
REMARK  Name = 
REMARK  6 active torsions:
REMARK  status: ('A' for Active; 'I' for Inactive)
REMARK    1  A    between atoms: O_1  and  N_2
REMARK    2  A    between atoms: C_3  and  C_12
REMARK    3  A    between atoms: N_4  and  C_5
REMARK    4  A    between atoms: C_5  and  C_6
REMARK    5  A    between atoms: C_15  and  O_16
REMARK    6  A    between atoms: O_16  and  C_17
REMARK                            x       y       z     vdW  Elec       q    Type
REMARK                         _______ _______ _______ _____ _____    ______ ____
ROOT
ATOM      1  C   UNL     1       1.432   9.231  19.146  0.00  0.00    +0.000 A 
ATOM      2  C   UNL     1       1.740   8.143  19.967  0.00  0.00    +0.000 A 
ATOM      3  C   UNL     1       2.530   7.108  19.465  0.00  0.00    +0.000 A 
ATOM      4  C   UNL     1       2.979   7.203  18.156  0.00  0.00    +0.000 A 
ATOM      5  N   UNL     1       2.748   8.272  17.359  0.00  0.00    +0.000 NA
ATOM      6  C   UNL     1       1.959   9.252  17.864  0.00  0.00    +0.000 A 
ENDROOT
BRANCH   1   8
ATOM      7  N   UNL     1       1.091  11.346  20.157  0.00  0.00    +0.000 NA
ATOM      8  C   UNL     1       0.512  10.322  19.604  0.00  0.00    +0.000 C 
ATOM      9  N   UNL     1      -0.828  10.111  19.365  0.00  0.00    +0.000 N 
ATOM     10  H   UNL     1      -1.169   9.159  19.431  0.00  0.00    +0.000 HD
BRANCH   7  11
ATOM     11  O   UNL     1       0.191  12.307  20.623  0.00  0.00    +0.000 OA
ATOM     12  H   UNL     1       0.744  12.828  21.234  0.00  0.00    +0.000 HD
ENDBRANCH   7  11
BRANCH   9  13
ATOM     13  C   UNL     1      -1.856  11.119  19.277  0.00  0.00    +0.000 C 
BRANCH  13  14
ATOM     14  C   UNL     1      -2.600  10.922  17.975  0.00  0.00    +0.000 A 
ATOM     15  C   UNL     1      -2.051  10.133  16.953  0.00  0.00    +0.000 A 
ATOM     16  C   UNL     1      -2.725   9.991  15.737  0.00  0.00    +0.000 A 
ATOM     17  C   UNL     1      -3.941  10.637  15.531  0.00  0.00    +0.000 A 
ATOM     18  C   UNL     1      -4.491  11.430  16.536  0.00  0.00    +0.000 A 
ATOM     19  C   UNL     1      -3.819  11.577  17.752  0.00  0.00    +0.000 A 
ENDBRANCH  13  14
ENDBRANCH   9  13
ENDBRANCH   1   8
BRANCH   4  20
ATOM     20  O   UNL     1       3.656   6.103  17.642  0.00  0.00    +0.000 OA
BRANCH  20  21
ATOM     21  C   UNL     1       3.448   4.886  18.263  0.00  0.00    +0.000 A 
ATOM     22  C   UNL     1       2.210   4.227  18.211  0.00  0.00    +0.000 A 
ATOM     23  C   UNL     1       2.054   2.981  18.817  0.00  0.00    +0.000 A 
ATOM     24 CL   UNL     1       0.553   2.152  18.674  0.00  0.00    +0.000 Cl
ATOM     25  C   UNL     1       3.105   2.403  19.520  0.00  0.00    +0.000 A 
ATOM     26  C   UNL     1       4.319   3.084  19.634  0.00  0.00    +0.000 A 
ATOM     27  C   UNL     1       4.490   4.326  19.011  0.00  0.00    +0.000 A 
ATOM     28 CL   UNL     1       6.005   5.134  19.195  0.00  0.00    +0.000 Cl
ENDBRANCH  20  21
ENDBRANCH   4  20
TORSDOF 6
ENDMDL
MODEL 3
REMARK VINA RESULT:      -8.1      2.352      3.377
REMARK  Name = 
REMARK  6 active torsions:
REMARK  status: ('A' for Active; 'I' for Inactive)
REMARK    1  A    between atoms: O_1  and  N_2
REMARK    2  A    between atoms: C_3  and  C_12
REMARK    3  A    between atoms: N_4  and  C_5
REMARK    4  A    between atoms: C_5  and  C_6
REMARK    5  A    between atoms: C_15  and  O_16
REMARK    6  A    between atoms: O_16  and  C_17
REMARK                            x       y       z     vdW  Elec       q    Type
REMARK                         _______ _______ _______ _____ _____    ______ ____
ROOT
ATOM      1  C   UNL     1       0.593   9.900  18.864  0.00  0.00    +0.000 A 
ATOM      2  C   UNL     1       1.280   9.334  17.786  0.00  0.00    +0.000 A 
ATOM      3  C   UNL     1       2.109   8.233  18.003  0.00  0.00    +0.000 A 
ATOM      4  C   UNL     1       2.220   7.743  19.296  0.00  0.00    +0.000 A 
ATOM      5  N   UNL     1       1.521   8.232  20.348  0.00  0.00    +0.000 NA
ATOM      6  C   UNL     1       0.741   9.315  20.113  0.00  0.00    +0.000 A 
ENDROOT
BRANCH   1   8
ATOM      7  N   UNL     1      -1.251  11.031  17.898  0.00  0.00    +0.000 NA
ATOM      8  C   UNL     1      -0.235  11.138  18.703  0.00  0.00    +0.000 C 
ATOM      9  N   UNL     1       0.171  12.228  19.441  0.00  0.00    +0.000 N 
ATOM     10  H   UNL     1       1.168  12.351  19.579  0.00  0.00    +0.000 HD
BRANCH   7  11
ATOM     11  O   UNL     1      -1.954  12.225  17.731  0.00  0.00    +0.000 OA
ATOM     12  H   UNL     1      -1.291  12.797  17.303  0.00  0.00    +0.000 HD
ENDBRANCH   7  11
BRANCH   9  13
ATOM     13  C   UNL     1      -0.640  13.356  19.831  0.00  0.00    +0.000 C 
BRANCH  13  14
ATOM     14  C   UNL     1      -1.443  12.960  21.049  0.00  0.00    +0.000 A 
ATOM     15  C   UNL     1      -0.821  12.339  22.142  0.00  0.00    +0.000 A 
ATOM     16  C   UNL     1      -1.579  11.937  23.246  0.00  0.00    +0.000 A 
ATOM     17  C   UNL     1      -2.956  12.144  23.263  0.00  0.00    +0.000 A 
ATOM     18  C   UNL     1      -3.585  12.752  22.178  0.00  0.00    +0.000 A 
ATOM     19  C   UNL     1      -2.832  13.152  21.072  0.00  0.00    +0.000 A 
ENDBRANCH  13  14
ENDBRANCH   9  13
ENDBRANCH   1   8
BRANCH   4  20
ATOM     20  O   UNL     1       3.147   6.729  19.506  0.00  0.00    +0.000 OA
BRANCH  20  21
ATOM     21  C   UNL     1       2.958   5.548  18.813  0.00  0.00    +0.000 A 
ATOM     22  C   UNL     1       1.951   4.634  19.160  0.00  0.00    +0.000 A 
ATOM     23  C   UNL     1       1.768   3.474  18.409  0.00  0.00    +0.000 A 
ATOM     24 CL   UNL     1       0.478   2.406  18.801  0.00  0.00    +0.000 Cl
ATOM     25  C   UNL     1       2.612   3.185  17.343  0.00  0.00    +0.000 A 
ATOM     26  C   UNL     1       3.660   4.056  17.034  0.00  0.00    +0.000 A 
ATOM     27  C   UNL     1       3.837   5.233  17.769  0.00  0.00    +0.000 A 
ATOM     28 CL   UNL     1       5.156   6.268  17.356  0.00  0.00    +0.000 Cl
ENDBRANCH  20  21
ENDBRANCH   4  20
TORSDOF 6
ENDMDL
MODEL 4
REMARK VINA RESULT:      -8.1      1.524      1.793
REMARK  Name = 
REMARK  6 active torsions:
REMARK  status: ('A' for Active; 'I' for Inactive)
REMARK    1  A    between atoms: O_1  and  N_2
REMARK    2  A    between atoms: C_3  and  C_12
REMARK    3  A    between atoms: N_4  and  C_5
REMARK    4  A    between atoms: C_5  and  C_6
REMARK    5  A    between atoms: C_15  and  O_16
REMARK    6  A    between atoms: O_16  and  C_17
REMARK                            x       y       z     vdW  Elec       q    Type
REMARK                         _______ _______ _______ _____ _____    ______ ____
ROOT
ATOM      1  C   UNL     1       1.044   9.347  19.719  0.00  0.00    +0.000 A 
ATOM      2  C   UNL     1       1.340   9.380  18.353  0.00  0.00    +0.000 A 
ATOM      3  C   UNL     1       2.122   8.367  17.796  0.00  0.00    +0.000 A 
ATOM      4  C   UNL     1       2.580   7.359  18.632  0.00  0.00    +0.000 A 
ATOM      5  N   UNL     1       2.259   7.268  19.944  0.00  0.00    +0.000 NA
ATOM      6  C   UNL     1       1.518   8.277  20.464  0.00  0.00    +0.000 A 
ENDROOT
BRANCH   1   8
ATOM      7  N   UNL     1       0.869  10.985  21.421  0.00  0.00    +0.000 NA
ATOM      8  C   UNL     1       0.289  10.456  20.384  0.00  0.00    +0.000 C 
ATOM      9  N   UNL     1      -0.915  10.790  19.803  0.00  0.00    +0.000 N 
ATOM     10  H   UNL     1      -1.458  10.038  19.394  0.00  0.00    +0.000 HD
BRANCH   7  11
ATOM     11  O   UNL     1       0.100  11.970  22.044  0.00  0.00    +0.000 OA
ATOM     12  H   UNL     1      -0.447  11.447  22.658  0.00  0.00    +0.000 HD
ENDBRANCH   7  11
BRANCH   9  13
ATOM     13  C   UNL     1      -1.613  12.046  19.928  0.00  0.00    +0.000 C 
BRANCH  13  14
ATOM     14  C   UNL     1      -2.899  11.951  19.140  0.00  0.00    +0.000 A 
ATOM     15  C   UNL     1      -2.896  11.454  17.827  0.00  0.00    +0.000 A 
ATOM     16  C   UNL     1      -4.083  11.410  17.091  0.00  0.00    +0.000 A 
ATOM     17  C   UNL     1      -5.273  11.864  17.652  0.00  0.00    +0.000 A 
ATOM     18  C   UNL     1      -5.286  12.368  18.952  0.00  0.00    +0.000 A 
ATOM     19  C   UNL     1      -4.102  12.416  19.690  0.00  0.00    +0.000 A 
ENDBRANCH  13  14
ENDBRANCH   9  13
ENDBRANCH   1   8
BRANCH   4  20
ATOM     20  O   UNL     1       3.458   6.434  18.079  0.00  0.00    +0.000 OA
BRANCH  20  21
ATOM     21  C   UNL     1       3.344   5.124  18.502  0.00  0.00    +0.000 A 
ATOM     22  C   UNL     1       2.131   4.422  18.430  0.00  0.00    +0.000 A 
ATOM     23  C   UNL     1       2.068   3.087  18.829  0.00  0.00    +0.000 A 
ATOM     24 CL   UNL     1       0.591   2.222  18.659  0.00  0.00    +0.000 Cl
ATOM     25  C   UNL     1       3.191   2.455  19.347  0.00  0.00    +0.000 A 
ATOM     26  C   UNL     1       4.385   3.166  19.485  0.00  0.00    +0.000 A 
ATOM     27  C   UNL     1       4.462   4.499  19.068  0.00  0.00    +0.000 A 
ATOM     28 CL   UNL     1       5.957   5.339  19.274  0.00  0.00    +0.000 Cl
ENDBRANCH  20  21
ENDBRANCH   4  20
TORSDOF 6
ENDMDL
MODEL 5
REMARK VINA RESULT:      -8.1      1.262      1.630
REMARK  Name = 
REMARK  6 active torsions:
REMARK  status: ('A' for Active; 'I' for Inactive)
REMARK    1  A    between atoms: O_1  and  N_2
REMARK    2  A    between atoms: C_3  and  C_12
REMARK    3  A    between atoms: N_4  and  C_5
REMARK    4  A    between atoms: C_5  and  C_6
REMARK    5  A    between atoms: C_15  and  O_16
REMARK    6  A    between atoms: O_16  and  C_17
REMARK                            x       y       z     vdW  Elec       q    Type
REMARK                         _______ _______ _______ _____ _____    ______ ____
ROOT
ATOM      1  C   UNL     1       1.220   9.362  19.327  0.00  0.00    +0.000 A 
ATOM      2  C   UNL     1       1.625   9.312  17.989  0.00  0.00    +0.000 A 
ATOM      3  C   UNL     1       2.423   8.254  17.554  0.00  0.00    +0.000 A 
ATOM      4  C   UNL     1       2.788   7.286  18.478  0.00  0.00    +0.000 A 
ATOM      5  N   UNL     1       2.361   7.275  19.763  0.00  0.00    +0.000 NA
ATOM      6  C   UNL     1       1.605   8.326  20.164  0.00  0.00    +0.000 A 
ENDROOT
BRANCH   1   8
ATOM      7  N   UNL     1       1.149  11.464  20.415  0.00  0.00    +0.000 NA
ATOM      8  C   UNL     1       0.441  10.522  19.867  0.00  0.00    +0.000 C 
ATOM      9  N   UNL     1      -0.924  10.454  19.698  0.00  0.00    +0.000 N 
ATOM     10  H   UNL     1      -1.356   9.539  19.756  0.00  0.00    +0.000 HD
BRANCH   7  11
ATOM     11  O   UNL     1       0.377  12.493  20.959  0.00  0.00    +0.000 OA
ATOM     12  H   UNL     1       0.099  12.984  20.165  0.00  0.00    +0.000 HD
ENDBRANCH   7  11
BRANCH   9  13
ATOM     13  C   UNL     1      -1.849  11.562  19.698  0.00  0.00    +0.000 C 
BRANCH  13  14
ATOM     14  C   UNL     1      -2.708  11.457  18.459  0.00  0.00    +0.000 A 
ATOM     15  C   UNL     1      -4.072  11.783  18.507  0.00  0.00    +0.000 A 
ATOM     16  C   UNL     1      -4.869  11.643  17.367  0.00  0.00    +0.000 A 
ATOM     17  C   UNL     1      -4.315  11.172  16.180  0.00  0.00    +0.000 A 
ATOM     18  C   UNL     1      -2.963  10.836  16.123  0.00  0.00    +0.000 A 
ATOM     19  C   UNL     1      -2.165  10.973  17.260  0.00  0.00    +0.000 A 
ENDBRANCH  13  14
ENDBRANCH   9  13
ENDBRANCH   1   8
BRANCH   4  20
ATOM     20  O   UNL     1       3.684   6.314  18.049  0.00  0.00    +0.000 OA
BRANCH  20  21
ATOM     21  C   UNL     1       3.490   5.027  18.514  0.00  0.00    +0.000 A 
ATOM     22  C   UNL     1       2.244   4.387  18.433  0.00  0.00    +0.000 A 
ATOM     23  C   UNL     1       2.101   3.072  18.876  0.00  0.00    +0.000 A 
ATOM     24 CL   UNL     1       0.586   2.279  18.696  0.00  0.00    +0.000 Cl
ATOM     25  C   UNL     1       3.176   2.402  19.447  0.00  0.00    +0.000 A 
ATOM     26  C   UNL     1       4.402   3.055  19.592  0.00  0.00    +0.000 A 
ATOM     27  C   UNL     1       4.559   4.367  19.131  0.00  0.00    +0.000 A 
ATOM     28 CL   UNL     1       6.091   5.135  19.349  0.00  0.00    +0.000 Cl
ENDBRANCH  20  21
ENDBRANCH   4  20
TORSDOF 6
ENDMDL
MODEL 6
REMARK VINA RESULT:      -8.1      1.047      1.482
REMARK  Name = 
REMARK  6 active torsions:
REMARK  status: ('A' for Active; 'I' for Inactive)
REMARK    1  A    between atoms: O_1  and  N_2
REMARK    2  A    between atoms: C_3  and  C_12
REMARK    3  A    between atoms: N_4  and  C_5
REMARK    4  A    between atoms: C_5  and  C_6
REMARK    5  A    between atoms: C_15  and  O_16
REMARK    6  A    between atoms: O_16  and  C_17
REMARK                            x       y       z     vdW  Elec       q    Type
REMARK                         _______ _______ _______ _____ _____    ______ ____
ROOT
ATOM      1  C   UNL     1       1.034   9.610  19.082  0.00  0.00    +0.000 A 
ATOM      2  C   UNL     1       1.770   9.224  17.958  0.00  0.00    +0.000 A 
ATOM      3  C   UNL     1       2.584   8.093  18.028  0.00  0.00    +0.000 A 
ATOM      4  C   UNL     1       2.631   7.392  19.224  0.00  0.00    +0.000 A 
ATOM      5  N   UNL     1       1.882   7.707  20.308  0.00  0.00    +0.000 NA
ATOM      6  C   UNL     1       1.119   8.823  20.220  0.00  0.00    +0.000 A 
ENDROOT
BRANCH   1   8
ATOM      7  N   UNL     1       0.831  11.934  18.672  0.00  0.00    +0.000 NA
ATOM      8  C   UNL     1       0.219  10.867  19.091  0.00  0.00    +0.000 C 
ATOM      9  N   UNL     1      -1.082  10.730  19.523  0.00  0.00    +0.000 N 
ATOM     10  H   UNL     1      -1.260  10.057  20.260  0.00  0.00    +0.000 HD
BRANCH   7  11
ATOM     11  O   UNL     1       0.052  13.090  18.757  0.00  0.00    +0.000 OA
ATOM     12  H   UNL     1       0.443  13.654  18.065  0.00  0.00    +0.000 HD
ENDBRANCH   7  11
BRANCH   9  13
ATOM     13  C   UNL     1      -2.186  11.612  19.228  0.00  0.00    +0.000 C 
BRANCH  13  14
ATOM     14  C   UNL     1      -2.763  11.212  17.889  0.00  0.00    +0.000 A 
ATOM     15  C   UNL     1      -3.998  11.722  17.464  0.00  0.00    +0.000 A 
ATOM     16  C   UNL     1      -4.545  11.313  16.244  0.00  0.00    +0.000 A 
ATOM     17  C   UNL     1      -3.870  10.391  15.448  0.00  0.00    +0.000 A 
ATOM     18  C   UNL     1      -2.646   9.871  15.866  0.00  0.00    +0.000 A 
ATOM     19  C   UNL     1      -2.098  10.275  17.085  0.00  0.00    +0.000 A 
ENDBRANCH  13  14
ENDBRANCH   9  13
ENDBRANCH   1   8
BRANCH   4  20
ATOM     20  O   UNL     1       3.542   6.346  19.305  0.00  0.00    +0.000 OA
BRANCH  20  21
ATOM     21  C   UNL     1       3.213   5.170  18.659  0.00  0.00    +0.000 A 
ATOM     22  C   UNL     1       2.152   4.358  19.088  0.00  0.00    +0.000 A 
ATOM     23  C   UNL     1       1.826   3.199  18.384  0.00  0.00    +0.000 A 
ATOM     24 CL   UNL     1       0.473   2.260  18.879  0.00  0.00    +0.000 Cl
ATOM     25  C   UNL     1       2.580   2.811  17.283  0.00  0.00    +0.000 A 
ATOM     26  C   UNL     1       3.679   3.578  16.890  0.00  0.00    +0.000 A 
ATOM     27  C   UNL     1       3.999   4.753  17.579  0.00  0.00    +0.000 A 
ATOM     28 CL   UNL     1       5.377   5.657  17.063  0.00  0.00    +0.000 Cl
ENDBRANCH  20  21
ENDBRANCH   4  20
TORSDOF 6
ENDMDL
MODEL 7
REMARK VINA RESULT:      -8.0      3.473      8.580
REMARK  Name = 
REMARK  6 active torsions:
REMARK  status: ('A' for Active; 'I' for Inactive)
REMARK    1  A    between atoms: O_1  and  N_2
REMARK    2  A    between atoms: C_3  and  C_12
REMARK    3  A    between atoms: N_4  and  C_5
REMARK    4  A    between atoms: C_5  and  C_6
REMARK    5  A    between atoms: C_15  and  O_16
REMARK    6  A    between atoms: O_16  and  C_17
REMARK                            x       y       z     vdW  Elec       q    Type
REMARK                         _______ _______ _______ _____ _____    ______ ____
ROOT
ATOM      1  C   UNL     1       2.196   6.874  19.834  0.00  0.00    +0.000 A 
ATOM      2  C   UNL     1       1.472   7.529  20.835  0.00  0.00    +0.000 A 
ATOM      3  C   UNL     1       0.986   8.815  20.600  0.00  0.00    +0.000 A 
ATOM      4  C   UNL     1       1.247   9.398  19.368  0.00  0.00    +0.000 A 
ATOM      5  N   UNL     1       1.891   8.766  18.359  0.00  0.00    +0.000 NA
ATOM      6  C   UNL     1       2.372   7.527  18.623  0.00  0.00    +0.000 A 
ENDROOT
BRANCH   1   8
ATOM      7  N   UNL     1       2.114   4.704  20.780  0.00  0.00    +0.000 NA
ATOM      8  C   UNL     1       2.819   5.532  20.068  0.00  0.00    +0.000 C 
ATOM      9  N   UNL     1       4.052   5.338  19.485  0.00  0.00    +0.000 N 
ATOM     10  H   UNL     1       4.675   6.136  19.435  0.00  0.00    +0.000 HD
BRANCH   7  11
ATOM     11  O   UNL     1       2.762   3.491  21.024  0.00  0.00    +0.000 OA
ATOM     12  H   UNL     1       3.511   3.529  20.402  0.00  0.00    +0.000 HD
ENDBRANCH   7  11
BRANCH   9  13
ATOM     13  C   UNL     1       4.662   4.071  19.162  0.00  0.00    +0.000 C 
BRANCH  13  14
ATOM     14  C   UNL     1       5.398   4.223  17.850  0.00  0.00    +0.000 A 
ATOM     15  C   UNL     1       6.758   4.564  17.830  0.00  0.00    +0.000 A 
ATOM     16  C   UNL     1       7.419   4.745  16.612  0.00  0.00    +0.000 A 
ATOM     17  C   UNL     1       6.730   4.596  15.412  0.00  0.00    +0.000 A 
ATOM     18  C   UNL     1       5.375   4.267  15.421  0.00  0.00    +0.000 A 
ATOM     19  C   UNL     1       4.710   4.088  16.635  0.00  0.00    +0.000 A 
ENDBRANCH  13  14
ENDBRANCH   9  13
ENDBRANCH   1   8
BRANCH   4  20
ATOM     20  O   UNL     1       0.861  10.724  19.206  0.00  0.00    +0.000 OA
BRANCH  20  21
ATOM     21  C   UNL     1      -0.464  10.963  18.896  0.00  0.00    +0.000 A 
ATOM     22  C   UNL     1      -1.090  10.363  17.793  0.00  0.00    +0.000 A 
ATOM     23  C   UNL     1      -2.441  10.599  17.539  0.00  0.00    +0.000 A 
ATOM     24 CL   UNL     1      -3.209   9.792  16.229  0.00  0.00    +0.000 Cl
ATOM     25  C   UNL     1      -3.167  11.467  18.345  0.00  0.00    +0.000 A 
ATOM     26  C   UNL     1      -2.534  12.121  19.405  0.00  0.00    +0.000 A 
ATOM     27  C   UNL     1      -1.184  11.873  19.679  0.00  0.00    +0.000 A 
ATOM     28 CL   UNL     1      -0.445  12.718  20.991  0.00  0.00    +0.000 Cl
ENDBRANCH  20  21
ENDBRANCH   4  20
TORSDOF 6
ENDMDL
MODEL 8
REMARK VINA RESULT:      -8.0      0.961      1.064
REMARK  Name = 
REMARK  6 active torsions:
REMARK  status: ('A' for Active; 'I' for Inactive)
REMARK    1  A    between atoms: O_1  and  N_2
REMARK    2  A    between atoms: C_3  and  C_12
REMARK    3  A    between atoms: N_4  and  C_5
REMARK    4  A    between atoms: C_5  and  C_6
REMARK    5  A    between atoms: C_15  and  O_16
REMARK    6  A    between atoms: O_16  and  C_17
REMARK                            x       y       z     vdW  Elec       q    Type
REMARK                         _______ _______ _______ _____ _____    ______ ____
ROOT
ATOM      1  C   UNL     1       1.087   9.388  19.330  0.00  0.00    +0.000 A 
ATOM      2  C   UNL     1       1.765   9.049  18.155  0.00  0.00    +0.000 A 
ATOM      3  C   UNL     1       2.598   7.929  18.143  0.00  0.00    +0.000 A 
ATOM      4  C   UNL     1       2.721   7.193  19.312  0.00  0.00    +0.000 A 
ATOM      5  N   UNL     1       2.030   7.461  20.445  0.00  0.00    +0.000 NA
ATOM      6  C   UNL     1       1.247   8.567  20.436  0.00  0.00    +0.000 A 
ENDROOT
BRANCH   1   8
ATOM      7  N   UNL     1       0.921  11.747  19.469  0.00  0.00    +0.000 NA
ATOM      8  C   UNL     1       0.256  10.631  19.424  0.00  0.00    +0.000 C 
ATOM      9  N   UNL     1      -1.108  10.436  19.431  0.00  0.00    +0.000 N 
ATOM     10  H   UNL     1      -1.458   9.607  19.898  0.00  0.00    +0.000 HD
BRANCH   7  11
ATOM     11  O   UNL     1       0.107  12.871  19.620  0.00  0.00    +0.000 OA
ATOM     12  H   UNL     1       0.229  13.330  18.769  0.00  0.00    +0.000 HD
ENDBRANCH   7  11
BRANCH   9  13
ATOM     13  C   UNL     1      -2.118  11.401  19.070  0.00  0.00    +0.000 C 
BRANCH  13  14
ATOM     14  C   UNL     1      -2.700  10.996  17.735  0.00  0.00    +0.000 A 
ATOM     15  C   UNL     1      -2.016  10.098  16.902  0.00  0.00    +0.000 A 
ATOM     16  C   UNL     1      -2.541   9.762  15.650  0.00  0.00    +0.000 A 
ATOM     17  C   UNL     1      -3.740  10.323  15.221  0.00  0.00    +0.000 A 
ATOM     18  C   UNL     1      -4.423  11.224  16.036  0.00  0.00    +0.000 A 
ATOM     19  C   UNL     1      -3.901  11.564  17.286  0.00  0.00    +0.000 A 
ENDBRANCH  13  14
ENDBRANCH   9  13
ENDBRANCH   1   8
BRANCH   4  20
ATOM     20  O   UNL     1       3.651   6.160  19.309  0.00  0.00    +0.000 OA
BRANCH  20  21
ATOM     21  C   UNL     1       3.296   4.992  18.660  0.00  0.00    +0.000 A 
ATOM     22  C   UNL     1       2.192   4.224  19.061  0.00  0.00    +0.000 A 
ATOM     23  C   UNL     1       1.843   3.074  18.354  0.00  0.00    +0.000 A 
ATOM     24 CL   UNL     1       0.441   2.191  18.812  0.00  0.00    +0.000 Cl
ATOM     25  C   UNL     1       2.613   2.650  17.277  0.00  0.00    +0.000 A 
ATOM     26  C   UNL     1       3.752   3.371  16.913  0.00  0.00    +0.000 A 
ATOM     27  C   UNL     1       4.097   4.538  17.605  0.00  0.00    +0.000 A 
ATOM     28 CL   UNL     1       5.524   5.385  17.126  0.00  0.00    +0.000 Cl
ENDBRANCH  20  21
ENDBRANCH   4  20
TORSDOF 6
ENDMDL
MODEL 9
REMARK VINA RESULT:      -8.0      3.505      8.584
REMARK  Name = 
REMARK  6 active torsions:
REMARK  status: ('A' for Active; 'I' for Inactive)
REMARK    1  A    between atoms: O_1  and  N_2
REMARK    2  A    between atoms: C_3  and  C_12
REMARK    3  A    between atoms: N_4  and  C_5
REMARK    4  A    between atoms: C_5  and  C_6
REMARK    5  A    between atoms: C_15  and  O_16
REMARK    6  A    between atoms: O_16  and  C_17
REMARK                            x       y       z     vdW  Elec       q    Type
REMARK                         _______ _______ _______ _____ _____    ______ ____
ROOT
ATOM      1  C   UNL     1       2.438   6.644  19.388  0.00  0.00    +0.000 A 
ATOM      2  C   UNL     1       1.764   7.215  20.472  0.00  0.00    +0.000 A 
ATOM      3  C   UNL     1       1.276   8.518  20.366  0.00  0.00    +0.000 A 
ATOM      4  C   UNL     1       1.484   9.201  19.177  0.00  0.00    +0.000 A 
ATOM      5  N   UNL     1       2.078   8.653  18.091  0.00  0.00    +0.000 NA
ATOM      6  C   UNL     1       2.563   7.395  18.228  0.00  0.00    +0.000 A 
ENDROOT
BRANCH   1   8
ATOM      7  N   UNL     1       2.231   4.295  19.606  0.00  0.00    +0.000 NA
ATOM      8  C   UNL     1       3.062   5.286  19.481  0.00  0.00    +0.000 C 
ATOM      9  N   UNL     1       4.438   5.256  19.404  0.00  0.00    +0.000 N 
ATOM     10  H   UNL     1       4.944   6.029  19.819  0.00  0.00    +0.000 HD
BRANCH   7  11
ATOM     11  O   UNL     1       2.861   3.057  19.752  0.00  0.00    +0.000 OA
ATOM     12  H   UNL     1       2.580   2.787  20.645  0.00  0.00    +0.000 HD
ENDBRANCH   7  11
BRANCH   9  13
ATOM     13  C   UNL     1       5.255   4.129  19.023  0.00  0.00    +0.000 C 
BRANCH  13  14
ATOM     14  C   UNL     1       5.700   4.333  17.592  0.00  0.00    +0.000 A 
ATOM     15  C   UNL     1       4.844   4.015  16.527  0.00  0.00    +0.000 A 
ATOM     16  C   UNL     1       5.279   4.166  15.208  0.00  0.00    +0.000 A 
ATOM     17  C   UNL     1       6.566   4.626  14.943  0.00  0.00    +0.000 A 
ATOM     18  C   UNL     1       7.427   4.936  15.993  0.00  0.00    +0.000 A 
ATOM     19  C   UNL     1       6.998   4.784  17.313  0.00  0.00    +0.000 A 
ENDBRANCH  13  14
ENDBRANCH   9  13
ENDBRANCH   1   8
BRANCH   4  20
ATOM     20  O   UNL     1       1.100  10.536  19.143  0.00  0.00    +0.000 OA
BRANCH  20  21
ATOM     21  C   UNL     1      -0.231  10.804  18.885  0.00  0.00    +0.000 A 
ATOM     22  C   UNL     1      -0.904  10.241  17.790  0.00  0.00    +0.000 A 
ATOM     23  C   UNL     1      -2.259  10.505  17.589  0.00  0.00    +0.000 A 
ATOM     24 CL   UNL     1      -3.085   9.743  16.287  0.00  0.00    +0.000 Cl
ATOM     25  C   UNL     1      -2.942  11.366  18.439  0.00  0.00    +0.000 A 
ATOM     26  C   UNL     1      -2.262  11.983  19.492  0.00  0.00    +0.000 A 
ATOM     27  C   UNL     1      -0.908  11.707  19.713  0.00  0.00    +0.000 A 
ATOM     28 CL   UNL     1      -0.110  12.508  21.019  0.00  0.00    +0.000 Cl
ENDBRANCH  20  21
ENDBRANCH   4  20
TORSDOF 6
ENDMDL
