MODEL 1
REMARK VINA RESULT:      -8.0      0.000      0.000
REMARK  Name = 
REMARK  8 active torsions:
REMARK  status: ('A' for Active; 'I' for Inactive)
REMARK    1  A    between atoms: C_1  and  O_2
REMARK    2  A    between atoms: O_2  and  C_3
REMARK    3  A    between atoms: C_3  and  C_4
REMARK    4  A    between atoms: C_4  and  O_5
REMARK    5  A    between atoms: O_5  and  C_6
REMARK    6  A    between atoms: C_9  and  N_10
REMARK    7  A    between atoms: C_16  and  S_17
REMARK    8  A    between atoms: S_17  and  N_20
REMARK                            x       y       z     vdW  Elec       q    Type
REMARK                         _______ _______ _______ _____ _____    ______ ____
ROOT
ATOM      1  N   UNL     1       0.849   8.393  20.342  0.00  0.00    +0.000 N 
ATOM      2  C   UNL     1       1.107   9.232  19.126  0.00  0.00    +0.000 C 
ATOM      3  C   UNL     1       1.699   8.613  17.904  0.00  0.00    +0.000 C 
ATOM      4  O   UNL     1       3.015   8.212  18.285  0.00  0.00    +0.000 OA
ATOM      5  C   UNL     1       2.820   7.177  19.177  0.00  0.00    +0.000 A 
ATOM      6  C   UNL     1       3.550   6.059  18.712  0.00  0.00    +0.000 A 
ATOM      7  C   UNL     1       3.128   4.789  19.063  0.00  0.00    +0.000 A 
ATOM      8  C   UNL     1       2.123   4.690  20.034  0.00  0.00    +0.000 A 
ATOM      9  C   UNL     1       1.479   5.878  20.615  0.00  0.00    +0.000 A 
ATOM     10  C   UNL     1       1.797   7.202  20.184  0.00  0.00    +0.000 A 
ENDROOT
BRANCH   1  14
ATOM     11  C   UNL     1      -1.040  11.629  22.726  0.00  0.00    +0.000 A 
ATOM     12  C   UNL     1      -0.740  10.412  23.330  0.00  0.00    +0.000 A 
ATOM     13  C   UNL     1       0.063   9.394  22.641  0.00  0.00    +0.000 A 
ATOM     14  C   UNL     1       0.670   9.624  21.372  0.00  0.00    +0.000 A 
ATOM     15  C   UNL     1       0.448  10.964  20.899  0.00  0.00    +0.000 A 
ATOM     16  C   UNL     1      -0.463  11.876  21.497  0.00  0.00    +0.000 A 
BRANCH  11  17
ATOM     17  O   UNL     1      -1.917  12.612  23.111  0.00  0.00    +0.000 OA
BRANCH  17  18
ATOM     18  C   UNL     1      -3.333  12.445  23.093  0.00  0.00    +0.000 C 
BRANCH  18  19
ATOM     19  C   UNL     1      -3.960  12.491  24.488  0.00  0.00    +0.000 C 
BRANCH  19  21
ATOM     20  C   UNL     1      -6.098  13.063  23.670  0.00  0.00    +0.000 C 
ATOM     21  O   UNL     1      -5.339  12.118  24.416  0.00  0.00    +0.000 OA
ENDBRANCH  19  21
ENDBRANCH  18  19
ENDBRANCH  17  18
ENDBRANCH  11  17
ENDBRANCH   1  14
BRANCH   7  22
ATOM     22  S   UNL     1       3.929   3.440  18.208  0.00  0.00    +0.000 S 
ATOM     23  O   UNL     1       3.984   2.340  19.148  0.00  0.00    +0.000 OA
ATOM     24  O   UNL     1       3.262   3.278  16.933  0.00  0.00    +0.000 OA
BRANCH  22  25
ATOM     25  N   UNL     1       5.561   3.830  17.867  0.00  0.00    +0.000 N 
ATOM     26  C   UNL     1       5.803   4.301  16.555  0.00  0.00    +0.000 A 
ATOM     27  N   UNL     1       6.221   3.481  15.621  0.00  0.00    +0.000 NA
ATOM     28  C   UNL     1       6.492   4.241  14.490  0.00  0.00    +0.000 A 
ATOM     29  N   UNL     1       6.401   5.571  14.532  0.00  0.00    +0.000 NA
ATOM     30  S   UNL     1       5.945   5.944  16.099  0.00  0.00    +0.000 S 
ATOM     31  H   UNL     1       6.038   2.923  17.888  0.00  0.00    +0.000 HD
ENDBRANCH  22  25
ENDBRANCH   7  22
TORSDOF 7
ENDMDL
MODEL 2
REMARK VINA RESULT:      -7.7      3.798     11.157
REMARK  Name = 
REMARK  8 active torsions:
REMARK  status: ('A' for Active; 'I' for Inactive)
REMARK    1  A    between atoms: C_1  and  O_2
REMARK    2  A    between atoms: O_2  and  C_3
REMARK    3  A    between atoms: C_3  and  C_4
REMARK    4  A    between atoms: C_4  and  O_5
REMARK    5  A    between atoms: O_5  and  C_6
REMARK    6  A    between atoms: C_9  and  N_10
REMARK    7  A    between atoms: C_16  and  S_17
REMARK    8  A    between atoms: S_17  and  N_20
REMARK                            x       y       z     vdW  Elec       q    Type
REMARK                         _______ _______ _______ _____ _____    ______ ____
ROOT
ATOM      1  N   UNL     1       3.249   5.852  17.492  0.00  0.00    +0.000 N 
ATOM      2  C   UNL     1       2.848   4.528  18.068  0.00  0.00    +0.000 C 
ATOM      3  C   UNL     1       1.800   4.462  19.128  0.00  0.00    +0.000 C 
ATOM      4  O   UNL     1       2.364   5.128  20.257  0.00  0.00    +0.000 OA
ATOM      5  C   UNL     1       2.436   6.454  19.879  0.00  0.00    +0.000 A 
ATOM      6  C   UNL     1       1.760   7.222  20.854  0.00  0.00    +0.000 A 
ATOM      7  C   UNL     1       1.210   8.437  20.488  0.00  0.00    +0.000 A 
ATOM      8  C   UNL     1       1.538   8.937  19.221  0.00  0.00    +0.000 A 
ATOM      9  C   UNL     1       2.371   8.179  18.275  0.00  0.00    +0.000 A 
ATOM     10  C   UNL     1       2.850   6.865  18.568  0.00  0.00    +0.000 A 
ENDROOT
BRANCH   1  14
ATOM     11  C   UNL     1       6.073   4.107  14.542  0.00  0.00    +0.000 A 
ATOM     12  C   UNL     1       5.972   5.489  14.666  0.00  0.00    +0.000 A 
ATOM     13  C   UNL     1       5.209   6.105  15.759  0.00  0.00    +0.000 A 
ATOM     14  C   UNL     1       4.621   5.341  16.811  0.00  0.00    +0.000 A 
ATOM     15  C   UNL     1       4.916   3.939  16.693  0.00  0.00    +0.000 A 
ATOM     16  C   UNL     1       5.513   3.346  15.547  0.00  0.00    +0.000 A 
BRANCH  11  17
ATOM     17  O   UNL     1       6.563   3.348  13.508  0.00  0.00    +0.000 OA
BRANCH  17  18
ATOM     18  C   UNL     1       6.181   3.544  12.148  0.00  0.00    +0.000 C 
BRANCH  18  19
ATOM     19  C   UNL     1       5.559   2.297  11.515  0.00  0.00    +0.000 C 
BRANCH  19  21
ATOM     20  C   UNL     1       6.168   0.032  11.244  0.00  0.00    +0.000 C 
ATOM     21  O   UNL     1       6.589   1.387  11.118  0.00  0.00    +0.000 OA
ENDBRANCH  19  21
ENDBRANCH  18  19
ENDBRANCH  17  18
ENDBRANCH  11  17
ENDBRANCH   1  14
BRANCH   7  22
ATOM     22  S   UNL     1       0.137   9.201  21.696  0.00  0.00    +0.000 S 
ATOM     23  O   UNL     1      -0.917   8.244  21.964  0.00  0.00    +0.000 OA
ATOM     24  O   UNL     1       0.974   9.686  22.774  0.00  0.00    +0.000 OA
BRANCH  22  25
ATOM     25  N   UNL     1      -0.647  10.566  21.025  0.00  0.00    +0.000 N 
ATOM     26  C   UNL     1      -0.420  11.785  21.708  0.00  0.00    +0.000 A 
ATOM     27  N   UNL     1      -1.283  12.221  22.592  0.00  0.00    +0.000 NA
ATOM     28  C   UNL     1      -0.865  13.483  22.995  0.00  0.00    +0.000 A 
ATOM     29  N   UNL     1       0.188  14.063  22.416  0.00  0.00    +0.000 NA
ATOM     30  S   UNL     1       0.726  12.975  21.262  0.00  0.00    +0.000 S 
ATOM     31  H   UNL     1      -1.642  10.382  21.189  0.00  0.00    +0.000 HD
ENDBRANCH  22  25
ENDBRANCH   7  22
TORSDOF 7
ENDMDL
MODEL 3
REMARK VINA RESULT:      -7.6      2.369      3.146
REMARK  Name = 
REMARK  8 active torsions:
REMARK  status: ('A' for Active; 'I' for Inactive)
REMARK    1  A    between atoms: C_1  and  O_2
REMARK    2  A    between atoms: O_2  and  C_3
REMARK    3  A    between atoms: C_3  and  C_4
REMARK    4  A    between atoms: C_4  and  O_5
REMARK    5  A    between atoms: O_5  and  C_6
REMARK    6  A    between atoms: C_9  and  N_10
REMARK    7  A    between atoms: C_16  and  S_17
REMARK    8  A    between atoms: S_17  and  N_20
REMARK                            x       y       z     vdW  Elec       q    Type
REMARK                         _______ _______ _______ _____ _____    ______ ____
ROOT
ATOM      1  N   UNL     1       0.758  10.828  19.708  0.00  0.00    +0.000 N 
ATOM      2  C   UNL     1       0.690  10.794  21.205  0.00  0.00    +0.000 C 
ATOM      3  C   UNL     1       1.413   9.729  21.961  0.00  0.00    +0.000 C 
ATOM      4  O   UNL     1       0.770   8.508  21.598  0.00  0.00    +0.000 OA
ATOM      5  C   UNL     1       1.102   8.321  20.271  0.00  0.00    +0.000 A 
ATOM      6  C   UNL     1       1.689   7.041  20.146  0.00  0.00    +0.000 A 
ATOM      7  C   UNL     1       2.578   6.809  19.112  0.00  0.00    +0.000 A 
ATOM      8  C   UNL     1       2.686   7.795  18.122  0.00  0.00    +0.000 A 
ATOM      9  C   UNL     1       1.946   9.064  18.200  0.00  0.00    +0.000 A 
ATOM     10  C   UNL     1       1.118   9.393  19.317  0.00  0.00    +0.000 A 
ENDROOT
BRANCH   1  14
ATOM     11  C   UNL     1      -3.344  12.515  19.920  0.00  0.00    +0.000 A 
ATOM     12  C   UNL     1      -2.351  13.008  20.761  0.00  0.00    +0.000 A 
ATOM     13  C   UNL     1      -0.944  12.627  20.587  0.00  0.00    +0.000 A 
ATOM     14  C   UNL     1      -0.494  11.825  19.497  0.00  0.00    +0.000 A 
ATOM     15  C   UNL     1      -1.559  11.500  18.587  0.00  0.00    +0.000 A 
ATOM     16  C   UNL     1      -2.934  11.738  18.857  0.00  0.00    +0.000 A 
BRANCH  11  17
ATOM     17  O   UNL     1      -4.710  12.591  20.030  0.00  0.00    +0.000 OA
BRANCH  17  18
ATOM     18  C   UNL     1      -5.374  13.020  21.217  0.00  0.00    +0.000 C 
BRANCH  18  19
ATOM     19  C   UNL     1      -6.816  12.516  21.312  0.00  0.00    +0.000 C 
BRANCH  19  21
ATOM     20  C   UNL     1      -7.532  10.490  20.335  0.00  0.00    +0.000 C 
ATOM     21  O   UNL     1      -6.828  11.089  21.418  0.00  0.00    +0.000 OA
ENDBRANCH  19  21
ENDBRANCH  18  19
ENDBRANCH  17  18
ENDBRANCH  11  17
ENDBRANCH   1  14
BRANCH   7  22
ATOM     22  S   UNL     1       3.483   5.270  19.194  0.00  0.00    +0.000 S 
ATOM     23  O   UNL     1       3.048   4.609  20.408  0.00  0.00    +0.000 OA
ATOM     24  O   UNL     1       3.338   4.613  17.913  0.00  0.00    +0.000 OA
BRANCH  22  25
ATOM     25  N   UNL     1       5.155   5.568  19.412  0.00  0.00    +0.000 N 
ATOM     26  C   UNL     1       5.937   5.481  18.237  0.00  0.00    +0.000 A 
ATOM     27  N   UNL     1       6.579   4.375  17.947  0.00  0.00    +0.000 NA
ATOM     28  C   UNL     1       7.354   4.625  16.821  0.00  0.00    +0.000 A 
ATOM     29  N   UNL     1       7.415   5.852  16.302  0.00  0.00    +0.000 NA
ATOM     30  S   UNL     1       6.441   6.804  17.276  0.00  0.00    +0.000 S 
ATOM     31  H   UNL     1       5.473   4.771  19.972  0.00  0.00    +0.000 HD
ENDBRANCH  22  25
ENDBRANCH   7  22
TORSDOF 7
ENDMDL
MODEL 4
REMARK VINA RESULT:      -7.6      4.538     10.789
REMARK  Name = 
REMARK  8 active torsions:
REMARK  status: ('A' for Active; 'I' for Inactive)
REMARK    1  A    between atoms: C_1  and  O_2
REMARK    2  A    between atoms: O_2  and  C_3
REMARK    3  A    between atoms: C_3  and  C_4
REMARK    4  A    between atoms: C_4  and  O_5
REMARK    5  A    between atoms: O_5  and  C_6
REMARK    6  A    between atoms: C_9  and  N_10
REMARK    7  A    between atoms: C_16  and  S_17
REMARK    8  A    between atoms: S_17  and  N_20
REMARK                            x       y       z     vdW  Elec       q    Type
REMARK                         _______ _______ _______ _____ _____    ______ ____
ROOT
ATOM      1  N   UNL     1       1.888   8.318  19.934  0.00  0.00    +0.000 N 
ATOM      2  C   UNL     1       1.937   9.121  18.669  0.00  0.00    +0.000 C 
ATOM      3  C   UNL     1       1.354  10.494  18.634  0.00  0.00    +0.000 C 
ATOM      4  O   UNL     1      -0.048  10.312  18.827  0.00  0.00    +0.000 OA
ATOM      5  C   UNL     1      -0.168   9.884  20.134  0.00  0.00    +0.000 A 
ATOM      6  C   UNL     1      -1.067  10.752  20.795  0.00  0.00    +0.000 A 
ATOM      7  C   UNL     1      -0.961  10.911  22.165  0.00  0.00    +0.000 A 
ATOM      8  C   UNL     1      -0.103  10.040  22.850  0.00  0.00    +0.000 A 
ATOM      9  C   UNL     1       0.716   9.040  22.149  0.00  0.00    +0.000 A 
ATOM     10  C   UNL     1       0.730   8.933  20.724  0.00  0.00    +0.000 A 
ENDROOT
BRANCH   1  14
ATOM     11  C   UNL     1       4.164   4.825  18.405  0.00  0.00    +0.000 A 
ATOM     12  C   UNL     1       3.509   4.739  19.629  0.00  0.00    +0.000 A 
ATOM     13  C   UNL     1       2.585   5.788  20.077  0.00  0.00    +0.000 A 
ATOM     14  C   UNL     1       2.218   6.892  19.252  0.00  0.00    +0.000 A 
ATOM     15  C   UNL     1       2.810   6.812  17.944  0.00  0.00    +0.000 A 
ATOM     16  C   UNL     1       3.826   5.884  17.588  0.00  0.00    +0.000 A 
BRANCH  11  17
ATOM     17  O   UNL     1       5.191   4.068  17.899  0.00  0.00    +0.000 OA
BRANCH  17  18
ATOM     18  C   UNL     1       6.526   4.553  17.766  0.00  0.00    +0.000 C 
BRANCH  18  19
ATOM     19  C   UNL     1       6.934   4.794  16.311  0.00  0.00    +0.000 C 
BRANCH  19  21
ATOM     20  C   UNL     1       7.360   6.881  17.329  0.00  0.00    +0.000 C 
ATOM     21  O   UNL     1       7.601   6.054  16.194  0.00  0.00    +0.000 OA
ENDBRANCH  19  21
ENDBRANCH  18  19
ENDBRANCH  17  18
ENDBRANCH  11  17
ENDBRANCH   1  14
BRANCH   7  22
ATOM     22  S   UNL     1      -1.939  12.229  22.873  0.00  0.00    +0.000 S 
ATOM     23  O   UNL     1      -2.945  11.590  23.695  0.00  0.00    +0.000 OA
ATOM     24  O   UNL     1      -1.021  13.186  23.454  0.00  0.00    +0.000 OA
BRANCH  22  25
ATOM     25  N   UNL     1      -2.807  13.055  21.650  0.00  0.00    +0.000 N 
ATOM     26  C   UNL     1      -4.204  13.136  21.858  0.00  0.00    +0.000 A 
ATOM     27  N   UNL     1      -5.011  12.272  21.291  0.00  0.00    +0.000 NA
ATOM     28  C   UNL     1      -6.312  12.673  21.566  0.00  0.00    +0.000 A 
ATOM     29  N   UNL     1      -6.544  13.816  22.213  0.00  0.00    +0.000 NA
ATOM     30  S   UNL     1      -5.036  14.478  22.516  0.00  0.00    +0.000 S 
ATOM     31  H   UNL     1      -2.721  12.442  20.834  0.00  0.00    +0.000 HD
ENDBRANCH  22  25
ENDBRANCH   7  22
TORSDOF 7
ENDMDL
MODEL 5
REMARK VINA RESULT:      -7.5      5.203     11.389
REMARK  Name = 
REMARK  8 active torsions:
REMARK  status: ('A' for Active; 'I' for Inactive)
REMARK    1  A    between atoms: C_1  and  O_2
REMARK    2  A    between atoms: O_2  and  C_3
REMARK    3  A    between atoms: C_3  and  C_4
REMARK    4  A    between atoms: C_4  and  O_5
REMARK    5  A    between atoms: O_5  and  C_6
REMARK    6  A    between atoms: C_9  and  N_10
REMARK    7  A    between atoms: C_16  and  S_17
REMARK    8  A    between atoms: S_17  and  N_20
REMARK                            x       y       z     vdW  Elec       q    Type
REMARK                         _______ _______ _______ _____ _____    ______ ____
ROOT
ATOM      1  N   UNL     1      -0.135   9.622  20.631  0.00  0.00    +0.000 N 
ATOM      2  C   UNL     1       0.044   9.063  22.010  0.00  0.00    +0.000 C 
ATOM      3  C   UNL     1      -0.736   9.626  23.151  0.00  0.00    +0.000 C 
ATOM      4  O   UNL     1      -0.268  10.966  23.301  0.00  0.00    +0.000 OA
ATOM      5  C   UNL     1      -0.720  11.622  22.174  0.00  0.00    +0.000 A 
ATOM      6  C   UNL     1      -1.459  12.751  22.595  0.00  0.00    +0.000 A 
ATOM      7  C   UNL     1      -2.447  13.254  21.766  0.00  0.00    +0.000 A 
ATOM      8  C   UNL     1      -2.516  12.742  20.463  0.00  0.00    +0.000 A 
ATOM      9  C   UNL     1      -1.631  11.663  20.000  0.00  0.00    +0.000 A 
ATOM     10  C   UNL     1      -0.687  11.031  20.867  0.00  0.00    +0.000 A 
ENDROOT
BRANCH   1  14
ATOM     11  C   UNL     1       2.561   6.834  18.468  0.00  0.00    +0.000 A 
ATOM     12  C   UNL     1       2.146   8.010  17.851  0.00  0.00    +0.000 A 
ATOM     13  C   UNL     1       1.426   9.051  18.596  0.00  0.00    +0.000 A 
ATOM     14  C   UNL     1       1.204   8.975  20.002  0.00  0.00    +0.000 A 
ATOM     15  C   UNL     1       1.812   7.809  20.585  0.00  0.00    +0.000 A 
ATOM     16  C   UNL     1       2.359   6.737  19.829  0.00  0.00    +0.000 A 
BRANCH  11  17
ATOM     17  O   UNL     1       3.063   5.680  17.920  0.00  0.00    +0.000 OA
BRANCH  17  18
ATOM     18  C   UNL     1       2.242   4.580  17.530  0.00  0.00    +0.000 C 
BRANCH  18  19
ATOM     19  C   UNL     1       2.780   3.231  18.013  0.00  0.00    +0.000 C 
BRANCH  19  21
ATOM     20  C   UNL     1       4.313   2.879  19.773  0.00  0.00    +0.000 C 
ATOM     21  O   UNL     1       2.987   3.268  19.428  0.00  0.00    +0.000 OA
ENDBRANCH  19  21
ENDBRANCH  18  19
ENDBRANCH  17  18
ENDBRANCH  11  17
ENDBRANCH   1  14
BRANCH   7  22
ATOM     22  S   UNL     1      -3.514  14.491  22.490  0.00  0.00    +0.000 S 
ATOM     23  O   UNL     1      -3.593  14.182  23.902  0.00  0.00    +0.000 OA
ATOM     24  O   UNL     1      -3.036  15.785  22.052  0.00  0.00    +0.000 OA
BRANCH  22  25
ATOM     25  N   UNL     1      -5.111  14.326  21.897  0.00  0.00    +0.000 N 
ATOM     26  C   UNL     1      -6.041  13.790  22.819  0.00  0.00    +0.000 A 
ATOM     27  N   UNL     1      -6.329  12.511  22.803  0.00  0.00    +0.000 NA
ATOM     28  C   UNL     1      -7.351  12.302  23.721  0.00  0.00    +0.000 A 
ATOM     29  N   UNL     1      -7.914  13.334  24.351  0.00  0.00    +0.000 NA
ATOM     30  S   UNL     1      -7.131  14.698  23.775  0.00  0.00    +0.000 S 
ATOM     31  H   UNL     1      -5.033  13.595  21.183  0.00  0.00    +0.000 HD
ENDBRANCH  22  25
ENDBRANCH   7  22
TORSDOF 7
ENDMDL
MODEL 6
REMARK VINA RESULT:      -7.5      3.839     10.731
REMARK  Name = 
REMARK  8 active torsions:
REMARK  status: ('A' for Active; 'I' for Inactive)
REMARK    1  A    between atoms: C_1  and  O_2
REMARK    2  A    between atoms: O_2  and  C_3
REMARK    3  A    between atoms: C_3  and  C_4
REMARK    4  A    between atoms: C_4  and  O_5
REMARK    5  A    between atoms: O_5  and  C_6
REMARK    6  A    between atoms: C_9  and  N_10
REMARK    7  A    between atoms: C_16  and  S_17
REMARK    8  A    between atoms: S_17  and  N_20
REMARK                            x       y       z     vdW  Elec       q    Type
REMARK                         _______ _______ _______ _____ _____    ______ ____
ROOT
ATOM      1  N   UNL     1       3.082   5.869  17.845  0.00  0.00    +0.000 N 
ATOM      2  C   UNL     1       2.631   4.705  18.676  0.00  0.00    +0.000 C 
ATOM      3  C   UNL     1       1.569   4.892  19.707  0.00  0.00    +0.000 C 
ATOM      4  O   UNL     1       2.142   5.761  20.684  0.00  0.00    +0.000 OA
ATOM      5  C   UNL     1       2.263   6.977  20.041  0.00  0.00    +0.000 A 
ATOM      6  C   UNL     1       1.601   7.950  20.824  0.00  0.00    +0.000 A 
ATOM      7  C   UNL     1       1.095   9.079  20.204  0.00  0.00    +0.000 A 
ATOM      8  C   UNL     1       1.454   9.294  18.867  0.00  0.00    +0.000 A 
ATOM      9  C   UNL     1       2.273   8.333  18.113  0.00  0.00    +0.000 A 
ATOM     10  C   UNL     1       2.704   7.094  18.681  0.00  0.00    +0.000 A 
ENDROOT
BRANCH   1  14
ATOM     11  C   UNL     1       6.250   4.428  15.086  0.00  0.00    +0.000 A 
ATOM     12  C   UNL     1       6.439   5.610  15.796  0.00  0.00    +0.000 A 
ATOM     13  C   UNL     1       5.515   6.016  16.863  0.00  0.00    +0.000 A 
ATOM     14  C   UNL     1       4.444   5.187  17.309  0.00  0.00    +0.000 A 
ATOM     15  C   UNL     1       4.425   3.916  16.636  0.00  0.00    +0.000 A 
ATOM     16  C   UNL     1       5.220   3.609  15.498  0.00  0.00    +0.000 A 
BRANCH  11  17
ATOM     17  O   UNL     1       6.870   3.975  13.949  0.00  0.00    +0.000 OA
BRANCH  17  18
ATOM     18  C   UNL     1       6.222   3.910  12.679  0.00  0.00    +0.000 C 
BRANCH  18  19
ATOM     19  C   UNL     1       6.421   2.567  11.973  0.00  0.00    +0.000 C 
BRANCH  19  21
ATOM     20  C   UNL     1       4.231   3.191  11.350  0.00  0.00    +0.000 C 
ATOM     21  O   UNL     1       5.188   2.137  11.388  0.00  0.00    +0.000 OA
ENDBRANCH  19  21
ENDBRANCH  18  19
ENDBRANCH  17  18
ENDBRANCH  11  17
ENDBRANCH   1  14
BRANCH   7  22
ATOM     22  S   UNL     1       0.035  10.108  21.209  0.00  0.00    +0.000 S 
ATOM     23  O   UNL     1      -0.714   9.208  22.062  0.00  0.00    +0.000 OA
ATOM     24  O   UNL     1       0.861  11.146  21.789  0.00  0.00    +0.000 OA
BRANCH  22  25
ATOM     25  N   UNL     1      -1.136  10.893  20.237  0.00  0.00    +0.000 N 
ATOM     26  C   UNL     1      -0.861  12.250  19.946  0.00  0.00    +0.000 A 
ATOM     27  N   UNL     1      -1.399  13.205  20.665  0.00  0.00    +0.000 NA
ATOM     28  C   UNL     1      -1.057  14.415  20.074  0.00  0.00    +0.000 A 
ATOM     29  N   UNL     1      -0.387  14.438  18.920  0.00  0.00    +0.000 NA
ATOM     30  S   UNL     1      -0.149  12.834  18.504  0.00  0.00    +0.000 S 
ATOM     31  H   UNL     1      -1.962  10.940  20.841  0.00  0.00    +0.000 HD
ENDBRANCH  22  25
ENDBRANCH   7  22
TORSDOF 7
ENDMDL
MODEL 7
REMARK VINA RESULT:      -7.5      0.925      1.027
REMARK  Name = 
REMARK  8 active torsions:
REMARK  status: ('A' for Active; 'I' for Inactive)
REMARK    1  A    between atoms: C_1  and  O_2
REMARK    2  A    between atoms: O_2  and  C_3
REMARK    3  A    between atoms: C_3  and  C_4
REMARK    4  A    between atoms: C_4  and  O_5
REMARK    5  A    between atoms: O_5  and  C_6
REMARK    6  A    between atoms: C_9  and  N_10
REMARK    7  A    between atoms: C_16  and  S_17
REMARK    8  A    between atoms: S_17  and  N_20
REMARK                            x       y       z     vdW  Elec       q    Type
REMARK                         _______ _______ _______ _____ _____    ______ ____
ROOT
ATOM      1  N   UNL     1       0.748   8.465  20.463  0.00  0.00    +0.000 N 
ATOM      2  C   UNL     1       0.973   9.275  19.221  0.00  0.00    +0.000 C 
ATOM      3  C   UNL     1       1.592   8.642  18.019  0.00  0.00    +0.000 C 
ATOM      4  O   UNL     1       2.923   8.310  18.413  0.00  0.00    +0.000 OA
ATOM      5  C   UNL     1       2.771   7.297  19.338  0.00  0.00    +0.000 A 
ATOM      6  C   UNL     1       3.548   6.197  18.909  0.00  0.00    +0.000 A 
ATOM      7  C   UNL     1       3.181   4.922  19.301  0.00  0.00    +0.000 A 
ATOM      8  C   UNL     1       2.179   4.812  20.274  0.00  0.00    +0.000 A 
ATOM      9  C   UNL     1       1.484   5.989  20.817  0.00  0.00    +0.000 A 
ATOM     10  C   UNL     1       1.747   7.311  20.343  0.00  0.00    +0.000 A 
ENDROOT
BRANCH   1  14
ATOM     11  C   UNL     1      -1.253  11.781  22.636  0.00  0.00    +0.000 A 
ATOM     12  C   UNL     1      -1.022  10.572  23.284  0.00  0.00    +0.000 A 
ATOM     13  C   UNL     1      -0.189   9.526  22.677  0.00  0.00    +0.000 A 
ATOM     14  C   UNL     1       0.516   9.720  21.452  0.00  0.00    +0.000 A 
ATOM     15  C   UNL     1       0.354  11.053  20.938  0.00  0.00    +0.000 A 
ATOM     16  C   UNL     1      -0.582  11.993  21.449  0.00  0.00    +0.000 A 
BRANCH  11  17
ATOM     17  O   UNL     1      -2.138  12.786  22.935  0.00  0.00    +0.000 OA
BRANCH  17  18
ATOM     18  C   UNL     1      -3.548  12.585  23.022  0.00  0.00    +0.000 C 
BRANCH  18  19
ATOM     19  C   UNL     1      -4.077  12.668  24.456  0.00  0.00    +0.000 C 
BRANCH  19  21
ATOM     20  C   UNL     1      -6.407  12.773  24.097  0.00  0.00    +0.000 C 
ATOM     21  O   UNL     1      -5.323  11.972  24.557  0.00  0.00    +0.000 OA
ENDBRANCH  19  21
ENDBRANCH  18  19
ENDBRANCH  17  18
ENDBRANCH  11  17
ENDBRANCH   1  14
BRANCH   7  22
ATOM     22  S   UNL     1       4.039   3.582  18.489  0.00  0.00    +0.000 S 
ATOM     23  O   UNL     1       5.430   3.697  18.877  0.00  0.00    +0.000 OA
ATOM     24  O   UNL     1       3.303   2.366  18.764  0.00  0.00    +0.000 OA
BRANCH  22  25
ATOM     25  N   UNL     1       4.021   3.798  16.791  0.00  0.00    +0.000 N 
ATOM     26  C   UNL     1       5.124   4.512  16.266  0.00  0.00    +0.000 A 
ATOM     27  N   UNL     1       5.031   5.799  16.031  0.00  0.00    +0.000 NA
ATOM     28  C   UNL     1       6.208   6.195  15.407  0.00  0.00    +0.000 A 
ATOM     29  N   UNL     1       7.132   5.292  15.073  0.00  0.00    +0.000 NA
ATOM     30  S   UNL     1       6.515   3.813  15.557  0.00  0.00    +0.000 S 
ATOM     31  H   UNL     1       3.230   4.431  16.634  0.00  0.00    +0.000 HD
ENDBRANCH  22  25
ENDBRANCH   7  22
TORSDOF 7
ENDMDL
MODEL 8
REMARK VINA RESULT:      -7.5      1.537      1.921
REMARK  Name = 
REMARK  8 active torsions:
REMARK  status: ('A' for Active; 'I' for Inactive)
REMARK    1  A    between atoms: C_1  and  O_2
REMARK    2  A    between atoms: O_2  and  C_3
REMARK    3  A    between atoms: C_3  and  C_4
REMARK    4  A    between atoms: C_4  and  O_5
REMARK    5  A    between atoms: O_5  and  C_6
REMARK    6  A    between atoms: C_9  and  N_10
REMARK    7  A    between atoms: C_16  and  S_17
REMARK    8  A    between atoms: S_17  and  N_20
REMARK                            x       y       z     vdW  Elec       q    Type
REMARK                         _______ _______ _______ _____ _____    ______ ____
ROOT
ATOM      1  N   UNL     1       0.748   8.889  20.422  0.00  0.00    +0.000 N 
ATOM      2  C   UNL     1       0.805   9.632  19.121  0.00  0.00    +0.000 C 
ATOM      3  C   UNL     1       1.235   8.928  17.878  0.00  0.00    +0.000 C 
ATOM      4  O   UNL     1       2.603   8.583  18.094  0.00  0.00    +0.000 OA
ATOM      5  C   UNL     1       2.568   7.619  19.082  0.00  0.00    +0.000 A 
ATOM      6  C   UNL     1       3.257   6.482  18.603  0.00  0.00    +0.000 A 
ATOM      7  C   UNL     1       2.927   5.236  19.108  0.00  0.00    +0.000 A 
ATOM      8  C   UNL     1       2.074   5.197  20.218  0.00  0.00    +0.000 A 
ATOM      9  C   UNL     1       1.484   6.415  20.793  0.00  0.00    +0.000 A 
ATOM     10  C   UNL     1       1.698   7.706  20.220  0.00  0.00    +0.000 A 
ENDROOT
BRANCH   1  14
ATOM     11  C   UNL     1      -0.638  12.712  22.205  0.00  0.00    +0.000 A 
ATOM     12  C   UNL     1      -0.895  11.512  22.861  0.00  0.00    +0.000 A 
ATOM     13  C   UNL     1      -0.285  10.253  22.416  0.00  0.00    +0.000 A 
ATOM     14  C   UNL     1       0.681  10.195  21.369  0.00  0.00    +0.000 A 
ATOM     15  C   UNL     1       1.011  11.499  20.863  0.00  0.00    +0.000 A 
ATOM     16  C   UNL     1       0.294  12.682  21.189  0.00  0.00    +0.000 A 
BRANCH  11  17
ATOM     17  O   UNL     1      -1.245  13.936  22.337  0.00  0.00    +0.000 OA
BRANCH  17  18
ATOM     18  C   UNL     1      -2.371  14.162  23.184  0.00  0.00    +0.000 C 
BRANCH  18  19
ATOM     19  C   UNL     1      -1.986  14.722  24.555  0.00  0.00    +0.000 C 
BRANCH  19  21
ATOM     20  C   UNL     1      -0.517  16.532  24.931  0.00  0.00    +0.000 C 
ATOM     21  O   UNL     1      -0.626  15.168  24.535  0.00  0.00    +0.000 OA
ENDBRANCH  19  21
ENDBRANCH  18  19
ENDBRANCH  17  18
ENDBRANCH  11  17
ENDBRANCH   1  14
BRANCH   7  22
ATOM     22  S   UNL     1       3.637   3.838  18.251  0.00  0.00    +0.000 S 
ATOM     23  O   UNL     1       3.235   2.661  18.994  0.00  0.00    +0.000 OA
ATOM     24  O   UNL     1       3.297   3.968  16.851  0.00  0.00    +0.000 OA
BRANCH  22  25
ATOM     25  N   UNL     1       5.346   3.877  18.352  0.00  0.00    +0.000 N 
ATOM     26  C   UNL     1       5.992   4.575  17.303  0.00  0.00    +0.000 A 
ATOM     27  N   UNL     1       6.466   3.926  16.268  0.00  0.00    +0.000 NA
ATOM     28  C   UNL     1       7.149   4.842  15.478  0.00  0.00    +0.000 A 
ATOM     29  N   UNL     1       7.303   6.103  15.886  0.00  0.00    +0.000 NA
ATOM     30  S   UNL     1       6.551   6.190  17.380  0.00  0.00    +0.000 S 
ATOM     31  H   UNL     1       5.622   2.902  18.197  0.00  0.00    +0.000 HD
ENDBRANCH  22  25
ENDBRANCH   7  22
TORSDOF 7
ENDMDL
MODEL 9
REMARK VINA RESULT:      -7.4      1.290      1.413
REMARK  Name = 
REMARK  8 active torsions:
REMARK  status: ('A' for Active; 'I' for Inactive)
REMARK    1  A    between atoms: C_1  and  O_2
REMARK    2  A    between atoms: O_2  and  C_3
REMARK    3  A    between atoms: C_3  and  C_4
REMARK    4  A    between atoms: C_4  and  O_5
REMARK    5  A    between atoms: O_5  and  C_6
REMARK    6  A    between atoms: C_9  and  N_10
REMARK    7  A    between atoms: C_16  and  S_17
REMARK    8  A    between atoms: S_17  and  N_20
REMARK                            x       y       z     vdW  Elec       q    Type
REMARK                         _______ _______ _______ _____ _____    ______ ____
ROOT
ATOM      1  N   UNL     1       0.860   8.406  20.385  0.00  0.00    +0.000 N 
ATOM      2  C   UNL     1       1.079   9.254  19.168  0.00  0.00    +0.000 C 
ATOM      3  C   UNL     1       1.625   8.643  17.921  0.00  0.00    +0.000 C 
ATOM      4  O   UNL     1       2.952   8.234  18.252  0.00  0.00    +0.000 OA
ATOM      5  C   UNL     1       2.784   7.192  19.142  0.00  0.00    +0.000 A 
ATOM      6  C   UNL     1       3.493   6.076  18.642  0.00  0.00    +0.000 A 
ATOM      7  C   UNL     1       3.079   4.805  18.997  0.00  0.00    +0.000 A 
ATOM      8  C   UNL     1       2.107   4.701  20.002  0.00  0.00    +0.000 A 
ATOM      9  C   UNL     1       1.488   5.886  20.615  0.00  0.00    +0.000 A 
ATOM     10  C   UNL     1       1.797   7.213  20.183  0.00  0.00    +0.000 A 
ENDROOT
BRANCH   1  14
ATOM     11  C   UNL     1      -0.874  11.791  22.678  0.00  0.00    +0.000 A 
ATOM     12  C   UNL     1      -0.774  10.535  23.270  0.00  0.00    +0.000 A 
ATOM     13  C   UNL     1      -0.029   9.445  22.629  0.00  0.00    +0.000 A 
ATOM     14  C   UNL     1       0.722   9.629  21.430  0.00  0.00    +0.000 A 
ATOM     15  C   UNL     1       0.700  10.994  20.980  0.00  0.00    +0.000 A 
ATOM     16  C   UNL     1      -0.157  11.993  21.518  0.00  0.00    +0.000 A 
BRANCH  11  17
ATOM     17  O   UNL     1      -1.667  12.861  23.009  0.00  0.00    +0.000 OA
BRANCH  17  18
ATOM     18  C   UNL     1      -1.557  14.137  22.381  0.00  0.00    +0.000 C 
BRANCH  18  19
ATOM     19  C   UNL     1      -2.599  15.141  22.878  0.00  0.00    +0.000 C 
BRANCH  19  21
ATOM     20  C   UNL     1      -2.875  15.284  25.218  0.00  0.00    +0.000 C 
ATOM     21  O   UNL     1      -2.146  15.755  24.089  0.00  0.00    +0.000 OA
ENDBRANCH  19  21
ENDBRANCH  18  19
ENDBRANCH  17  18
ENDBRANCH  11  17
ENDBRANCH   1  14
BRANCH   7  22
ATOM     22  S   UNL     1       3.843   3.460  18.103  0.00  0.00    +0.000 S 
ATOM     23  O   UNL     1       3.799   2.310  18.984  0.00  0.00    +0.000 OA
ATOM     24  O   UNL     1       3.225   3.401  16.796  0.00  0.00    +0.000 OA
BRANCH  22  25
ATOM     25  N   UNL     1       5.507   3.776  17.851  0.00  0.00    +0.000 N 
ATOM     26  C   UNL     1       5.830   4.307  16.579  0.00  0.00    +0.000 A 
ATOM     27  N   UNL     1       6.243   3.519  15.616  0.00  0.00    +0.000 NA
ATOM     28  C   UNL     1       6.602   4.324  14.543  0.00  0.00    +0.000 A 
ATOM     29  N   UNL     1       6.580   5.653  14.659  0.00  0.00    +0.000 NA
ATOM     30  S   UNL     1       6.079   5.962  16.226  0.00  0.00    +0.000 S 
ATOM     31  H   UNL     1       5.933   2.844  17.837  0.00  0.00    +0.000 HD
ENDBRANCH  22  25
ENDBRANCH   7  22
TORSDOF 7
ENDMDL
