MODEL 1
REMARK VINA RESULT:      -7.4      0.000      0.000
REMARK  Name = 
REMARK  11 active torsions:
REMARK  status: ('A' for Active; 'I' for Inactive)
REMARK    1  A    between atoms: C_1  and  C_2
REMARK    2  A    between atoms: C_6  and  C_8
REMARK    3  A    between atoms: C_11  and  C_12
REMARK    4  A    between atoms: C_15  and  O_16
REMARK    5  A    between atoms: O_16  and  C_17
REMARK    6  A    between atoms: C_17  and  C_18
REMARK    7  A    between atoms: C_18  and  C_19
REMARK    8  A    between atoms: C_19  and  N_20
REMARK    9  A    between atoms: N_20  and  C_21
REMARK   10  A    between atoms: C_21  and  C_22
REMARK   11  A    between atoms: C_21  and  C_23
REMARK                            x       y       z     vdW  Elec       q    Type
REMARK                         _______ _______ _______ _____ _____    ______ ____
ROOT
ATOM      1  C   UNL     1       2.608   7.542  18.618  0.00  0.00    +0.000 A 
ATOM      2  C   UNL     1       2.352   7.223  19.947  0.00  0.00    +0.000 A 
ATOM      3  C   UNL     1       1.430   7.960  20.673  0.00  0.00    +0.000 A 
ATOM      4  C   UNL     1       0.852   9.142  20.171  0.00  0.00    +0.000 A 
ATOM      5  C   UNL     1       1.201   9.519  18.867  0.00  0.00    +0.000 A 
ATOM      6  C   UNL     1       2.060   8.721  18.092  0.00  0.00    +0.000 A 
ENDROOT
BRANCH   1  12
ATOM      7  C   UNL     1       3.322   1.262  18.783  0.00  0.00    +0.000 C 
ATOM      8  C   UNL     1       3.045   2.493  17.923  0.00  0.00    +0.000 C 
ATOM      9  C   UNL     1       4.358   3.211  17.557  0.00  0.00    +0.000 C 
ATOM     10  C   UNL     1       4.111   4.523  16.806  0.00  0.00    +0.000 C 
ATOM     11  N   UNL     1       3.156   5.362  17.525  0.00  0.00    +0.000 N 
ATOM     12  C   UNL     1       3.492   6.694  17.782  0.00  0.00    +0.000 C 
ATOM     13  O   UNL     1       4.515   7.219  17.341  0.00  0.00    +0.000 OA
ATOM     14  C   UNL     1       1.868   4.700  17.765  0.00  0.00    +0.000 C 
ATOM     15  C   UNL     1       2.084   3.460  18.632  0.00  0.00    +0.000 C 
ENDBRANCH   1  12
BRANCH   4  16
ATOM     16  C   UNL     1      -0.023   9.945  21.050  0.00  0.00    +0.000 A 
ATOM     17  C   UNL     1      -0.690  11.054  20.503  0.00  0.00    +0.000 A 
ATOM     18  C   UNL     1      -1.467  11.900  21.276  0.00  0.00    +0.000 A 
ATOM     19  C   UNL     1      -1.661  11.648  22.632  0.00  0.00    +0.000 A 
ATOM     20  C   UNL     1      -1.046  10.528  23.196  0.00  0.00    +0.000 A 
ATOM     21  C   UNL     1      -0.227   9.690  22.414  0.00  0.00    +0.000 A 
BRANCH  19  22
ATOM     22  O   UNL     1      -2.429  12.432  23.460  0.00  0.00    +0.000 OA
BRANCH  22  23
ATOM     23  C   UNL     1      -2.133  13.825  23.343  0.00  0.00    +0.000 C 
BRANCH  23  24
ATOM     24  C   UNL     1      -2.586  14.629  24.550  0.00  0.00    +0.000 C 
BRANCH  24  25
ATOM     25  C   UNL     1      -4.053  15.007  24.322  0.00  0.00    +0.000 C 
BRANCH  25  26
ATOM     26  N   UNL     1      -4.919  13.837  24.391  0.00  0.00    +0.000 NA
ATOM     27  H   UNL     1      -5.347  13.792  25.317  0.00  0.00    +0.000 HD
BRANCH  26  28
ATOM     28  C   UNL     1      -5.979  13.852  23.371  0.00  0.00    +0.000 C 
ATOM     29  C   UNL     1      -5.706  12.886  22.213  0.00  0.00    +0.000 C 
ATOM     30  C   UNL     1      -7.292  13.471  24.055  0.00  0.00    +0.000 C 
ENDBRANCH  26  28
ENDBRANCH  25  26
ENDBRANCH  24  25
ENDBRANCH  23  24
ENDBRANCH  22  23
ENDBRANCH  19  22
ENDBRANCH   4  16
TORSDOF 8
ENDMDL
MODEL 2
REMARK VINA RESULT:      -7.4      2.052     10.263
REMARK  Name = 
REMARK  11 active torsions:
REMARK  status: ('A' for Active; 'I' for Inactive)
REMARK    1  A    between atoms: C_1  and  C_2
REMARK    2  A    between atoms: C_6  and  C_8
REMARK    3  A    between atoms: C_11  and  C_12
REMARK    4  A    between atoms: C_15  and  O_16
REMARK    5  A    between atoms: O_16  and  C_17
REMARK    6  A    between atoms: C_17  and  C_18
REMARK    7  A    between atoms: C_18  and  C_19
REMARK    8  A    between atoms: C_19  and  N_20
REMARK    9  A    between atoms: N_20  and  C_21
REMARK   10  A    between atoms: C_21  and  C_22
REMARK   11  A    between atoms: C_21  and  C_23
REMARK                            x       y       z     vdW  Elec       q    Type
REMARK                         _______ _______ _______ _____ _____    ______ ____
ROOT
ATOM      1  C   UNL     1      -1.003  10.962  19.483  0.00  0.00    +0.000 A 
ATOM      2  C   UNL     1      -0.612  10.532  18.220  0.00  0.00    +0.000 A 
ATOM      3  C   UNL     1       0.314   9.508  18.091  0.00  0.00    +0.000 A 
ATOM      4  C   UNL     1       1.015   8.988  19.195  0.00  0.00    +0.000 A 
ATOM      5  C   UNL     1       0.694   9.507  20.458  0.00  0.00    +0.000 A 
ATOM      6  C   UNL     1      -0.314  10.475  20.602  0.00  0.00    +0.000 A 
ENDROOT
BRANCH   1  12
ATOM      7  C   UNL     1      -4.338  12.306  24.684  0.00  0.00    +0.000 C 
ATOM      8  C   UNL     1      -3.485  12.848  23.539  0.00  0.00    +0.000 C 
ATOM      9  C   UNL     1      -4.326  13.010  22.259  0.00  0.00    +0.000 C 
ATOM     10  C   UNL     1      -3.476  13.426  21.055  0.00  0.00    +0.000 C 
ATOM     11  N   UNL     1      -2.325  12.540  20.901  0.00  0.00    +0.000 N 
ATOM     12  C   UNL     1      -2.084  11.965  19.651  0.00  0.00    +0.000 C 
ATOM     13  O   UNL     1      -2.740  12.250  18.649  0.00  0.00    +0.000 OA
ATOM     14  C   UNL     1      -1.470  12.486  22.093  0.00  0.00    +0.000 C 
ATOM     15  C   UNL     1      -2.274  11.941  23.274  0.00  0.00    +0.000 C 
ENDBRANCH   1  12
BRANCH   4  16
ATOM     16  C   UNL     1       2.080   7.989  18.967  0.00  0.00    +0.000 A 
ATOM     17  C   UNL     1       2.883   8.112  17.821  0.00  0.00    +0.000 A 
ATOM     18  C   UNL     1       3.851   7.177  17.496  0.00  0.00    +0.000 A 
ATOM     19  C   UNL     1       4.102   6.094  18.334  0.00  0.00    +0.000 A 
ATOM     20  C   UNL     1       3.350   5.966  19.504  0.00  0.00    +0.000 A 
ATOM     21  C   UNL     1       2.342   6.901  19.812  0.00  0.00    +0.000 A 
BRANCH  19  22
ATOM     22  O   UNL     1       5.056   5.133  18.088  0.00  0.00    +0.000 OA
BRANCH  22  23
ATOM     23  C   UNL     1       4.663   3.832  18.526  0.00  0.00    +0.000 C 
BRANCH  23  24
ATOM     24  C   UNL     1       3.915   3.049  17.459  0.00  0.00    +0.000 C 
BRANCH  24  25
ATOM     25  C   UNL     1       2.572   2.626  18.062  0.00  0.00    +0.000 C 
BRANCH  25  26
ATOM     26  N   UNL     1       2.738   2.095  19.408  0.00  0.00    +0.000 NA
ATOM     27  H   UNL     1       3.629   2.420  19.787  0.00  0.00    +0.000 HD
BRANCH  26  28
ATOM     28  C   UNL     1       1.653   2.495  20.317  0.00  0.00    +0.000 C 
ATOM     29  C   UNL     1       2.166   3.111  21.623  0.00  0.00    +0.000 C 
ATOM     30  C   UNL     1       0.778   3.510  19.582  0.00  0.00    +0.000 C 
ENDBRANCH  26  28
ENDBRANCH  25  26
ENDBRANCH  24  25
ENDBRANCH  23  24
ENDBRANCH  22  23
ENDBRANCH  19  22
ENDBRANCH   4  16
TORSDOF 8
ENDMDL
MODEL 3
REMARK VINA RESULT:      -7.4      2.103     10.298
REMARK  Name = 
REMARK  11 active torsions:
REMARK  status: ('A' for Active; 'I' for Inactive)
REMARK    1  A    between atoms: C_1  and  C_2
REMARK    2  A    between atoms: C_6  and  C_8
REMARK    3  A    between atoms: C_11  and  C_12
REMARK    4  A    between atoms: C_15  and  O_16
REMARK    5  A    between atoms: O_16  and  C_17
REMARK    6  A    between atoms: C_17  and  C_18
REMARK    7  A    between atoms: C_18  and  C_19
REMARK    8  A    between atoms: C_19  and  N_20
REMARK    9  A    between atoms: N_20  and  C_21
REMARK   10  A    between atoms: C_21  and  C_22
REMARK   11  A    between atoms: C_21  and  C_23
REMARK                            x       y       z     vdW  Elec       q    Type
REMARK                         _______ _______ _______ _____ _____    ______ ____
ROOT
ATOM      1  C   UNL     1      -0.822  10.790  19.345  0.00  0.00    +0.000 A 
ATOM      2  C   UNL     1      -0.160  10.622  18.134  0.00  0.00    +0.000 A 
ATOM      3  C   UNL     1       0.751   9.589  17.979  0.00  0.00    +0.000 A 
ATOM      4  C   UNL     1       1.170   8.790  19.060  0.00  0.00    +0.000 A 
ATOM      5  C   UNL     1       0.578   9.040  20.306  0.00  0.00    +0.000 A 
ATOM      6  C   UNL     1      -0.417  10.022  20.446  0.00  0.00    +0.000 A 
ENDROOT
BRANCH   1  12
ATOM      7  C   UNL     1      -4.072  12.311  24.551  0.00  0.00    +0.000 C 
ATOM      8  C   UNL     1      -3.233  12.813  23.379  0.00  0.00    +0.000 C 
ATOM      9  C   UNL     1      -4.091  12.944  22.107  0.00  0.00    +0.000 C 
ATOM     10  C   UNL     1      -3.255  13.318  20.879  0.00  0.00    +0.000 C 
ATOM     11  N   UNL     1      -2.113  12.419  20.735  0.00  0.00    +0.000 N 
ATOM     12  C   UNL     1      -1.893  11.806  19.499  0.00  0.00    +0.000 C 
ATOM     13  O   UNL     1      -2.561  12.067  18.498  0.00  0.00    +0.000 OA
ATOM     14  C   UNL     1      -1.241  12.394  21.916  0.00  0.00    +0.000 C 
ATOM     15  C   UNL     1      -2.032  11.889  23.123  0.00  0.00    +0.000 C 
ENDBRANCH   1  12
BRANCH   4  16
ATOM     16  C   UNL     1       2.240   7.793  18.846  0.00  0.00    +0.000 A 
ATOM     17  C   UNL     1       2.436   6.798  19.818  0.00  0.00    +0.000 A 
ATOM     18  C   UNL     1       3.464   5.874  19.730  0.00  0.00    +0.000 A 
ATOM     19  C   UNL     1       4.319   5.866  18.631  0.00  0.00    +0.000 A 
ATOM     20  C   UNL     1       4.123   6.816  17.625  0.00  0.00    +0.000 A 
ATOM     21  C   UNL     1       3.099   7.776  17.737  0.00  0.00    +0.000 A 
BRANCH  19  22
ATOM     22  O   UNL     1       5.351   4.972  18.465  0.00  0.00    +0.000 OA
BRANCH  22  23
ATOM     23  C   UNL     1       5.058   3.676  18.989  0.00  0.00    +0.000 C 
BRANCH  23  24
ATOM     24  C   UNL     1       4.216   2.833  18.045  0.00  0.00    +0.000 C 
BRANCH  24  25
ATOM     25  C   UNL     1       3.277   1.983  18.907  0.00  0.00    +0.000 C 
BRANCH  25  26
ATOM     26  N   UNL     1       2.004   1.754  18.237  0.00  0.00    +0.000 NA
ATOM     27  H   UNL     1       1.673   0.813  18.461  0.00  0.00    +0.000 HD
BRANCH  26  28
ATOM     28  C   UNL     1       0.973   2.731  18.620  0.00  0.00    +0.000 C 
ATOM     29  C   UNL     1       1.017   3.090  20.109  0.00  0.00    +0.000 C 
ATOM     30  C   UNL     1       1.190   3.991  17.784  0.00  0.00    +0.000 C 
ENDBRANCH  26  28
ENDBRANCH  25  26
ENDBRANCH  24  25
ENDBRANCH  23  24
ENDBRANCH  22  23
ENDBRANCH  19  22
ENDBRANCH   4  16
TORSDOF 8
ENDMDL
MODEL 4
REMARK VINA RESULT:      -7.4      0.311      1.124
REMARK  Name = 
REMARK  11 active torsions:
REMARK  status: ('A' for Active; 'I' for Inactive)
REMARK    1  A    between atoms: C_1  and  C_2
REMARK    2  A    between atoms: C_6  and  C_8
REMARK    3  A    between atoms: C_11  and  C_12
REMARK    4  A    between atoms: C_15  and  O_16
REMARK    5  A    between atoms: O_16  and  C_17
REMARK    6  A    between atoms: C_17  and  C_18
REMARK    7  A    between atoms: C_18  and  C_19
REMARK    8  A    between atoms: C_19  and  N_20
REMARK    9  A    between atoms: N_20  and  C_21
REMARK   10  A    between atoms: C_21  and  C_22
REMARK   11  A    between atoms: C_21  and  C_23
REMARK                            x       y       z     vdW  Elec       q    Type
REMARK                         _______ _______ _______ _____ _____    ______ ____
ROOT
ATOM      1  C   UNL     1       2.574   7.578  18.640  0.00  0.00    +0.000 A 
ATOM      2  C   UNL     1       1.931   8.689  18.107  0.00  0.00    +0.000 A 
ATOM      3  C   UNL     1       1.179   9.516  18.927  0.00  0.00    +0.000 A 
ATOM      4  C   UNL     1       0.894   9.186  20.265  0.00  0.00    +0.000 A 
ATOM      5  C   UNL     1       1.456   8.003  20.765  0.00  0.00    +0.000 A 
ATOM      6  C   UNL     1       2.299   7.213  19.965  0.00  0.00    +0.000 A 
ENDROOT
BRANCH   1  12
ATOM      7  C   UNL     1       3.359   1.304  18.743  0.00  0.00    +0.000 C 
ATOM      8  C   UNL     1       3.087   2.543  17.892  0.00  0.00    +0.000 C 
ATOM      9  C   UNL     1       4.398   3.281  17.564  0.00  0.00    +0.000 C 
ATOM     10  C   UNL     1       4.152   4.599  16.824  0.00  0.00    +0.000 C 
ATOM     11  N   UNL     1       3.172   5.417  17.533  0.00  0.00    +0.000 N 
ATOM     12  C   UNL     1       3.487   6.750  17.813  0.00  0.00    +0.000 C 
ATOM     13  O   UNL     1       4.512   7.292  17.402  0.00  0.00    +0.000 OA
ATOM     14  C   UNL     1       1.887   4.738  17.736  0.00  0.00    +0.000 C 
ATOM     15  C   UNL     1       2.099   3.489  18.592  0.00  0.00    +0.000 C 
ENDBRANCH   1  12
BRANCH   4  16
ATOM     16  C   UNL     1      -0.021  10.050  21.041  0.00  0.00    +0.000 A 
ATOM     17  C   UNL     1      -0.715  11.070  20.369  0.00  0.00    +0.000 A 
ATOM     18  C   UNL     1      -1.532  11.968  21.035  0.00  0.00    +0.000 A 
ATOM     19  C   UNL     1      -1.738  11.858  22.408  0.00  0.00    +0.000 A 
ATOM     20  C   UNL     1      -1.095  10.827  23.099  0.00  0.00    +0.000 A 
ATOM     21  C   UNL     1      -0.237   9.938  22.422  0.00  0.00    +0.000 A 
BRANCH  19  22
ATOM     22  O   UNL     1      -2.544  12.701  23.136  0.00  0.00    +0.000 OA
BRANCH  22  23
ATOM     23  C   UNL     1      -1.855  13.857  23.615  0.00  0.00    +0.000 C 
BRANCH  23  24
ATOM     24  C   UNL     1      -2.739  14.766  24.454  0.00  0.00    +0.000 C 
BRANCH  24  25
ATOM     25  C   UNL     1      -4.125  14.783  23.801  0.00  0.00    +0.000 C 
BRANCH  25  26
ATOM     26  N   UNL     1      -5.057  13.920  24.514  0.00  0.00    +0.000 NA
ATOM     27  H   UNL     1      -5.641  14.493  25.126  0.00  0.00    +0.000 HD
BRANCH  26  28
ATOM     28  C   UNL     1      -5.922  13.146  23.610  0.00  0.00    +0.000 C 
ATOM     29  C   UNL     1      -7.377  13.082  24.086  0.00  0.00    +0.000 C 
ATOM     30  C   UNL     1      -5.864  13.802  22.231  0.00  0.00    +0.000 C 
ENDBRANCH  26  28
ENDBRANCH  25  26
ENDBRANCH  24  25
ENDBRANCH  23  24
ENDBRANCH  22  23
ENDBRANCH  19  22
ENDBRANCH   4  16
TORSDOF 8
ENDMDL
MODEL 5
REMARK VINA RESULT:      -7.3      1.138      1.374
REMARK  Name = 
REMARK  11 active torsions:
REMARK  status: ('A' for Active; 'I' for Inactive)
REMARK    1  A    between atoms: C_1  and  C_2
REMARK    2  A    between atoms: C_6  and  C_8
REMARK    3  A    between atoms: C_11  and  C_12
REMARK    4  A    between atoms: C_15  and  O_16
REMARK    5  A    between atoms: O_16  and  C_17
REMARK    6  A    between atoms: C_17  and  C_18
REMARK    7  A    between atoms: C_18  and  C_19
REMARK    8  A    between atoms: C_19  and  N_20
REMARK    9  A    between atoms: N_20  and  C_21
REMARK   10  A    between atoms: C_21  and  C_22
REMARK   11  A    between atoms: C_21  and  C_23
REMARK                            x       y       z     vdW  Elec       q    Type
REMARK                         _______ _______ _______ _____ _____    ______ ____
ROOT
ATOM      1  C   UNL     1       2.568   7.640  18.508  0.00  0.00    +0.000 A 
ATOM      2  C   UNL     1       2.232   7.531  19.853  0.00  0.00    +0.000 A 
ATOM      3  C   UNL     1       1.289   8.384  20.405  0.00  0.00    +0.000 A 
ATOM      4  C   UNL     1       0.769   9.485  19.697  0.00  0.00    +0.000 A 
ATOM      5  C   UNL     1       1.198   9.653  18.373  0.00  0.00    +0.000 A 
ATOM      6  C   UNL     1       2.079   8.733  17.779  0.00  0.00    +0.000 A 
ENDROOT
BRANCH   1  12
ATOM      7  C   UNL     1       2.619   1.347  19.114  0.00  0.00    +0.000 C 
ATOM      8  C   UNL     1       2.596   2.537  18.157  0.00  0.00    +0.000 C 
ATOM      9  C   UNL     1       4.013   3.106  17.957  0.00  0.00    +0.000 C 
ATOM     10  C   UNL     1       4.011   4.382  17.109  0.00  0.00    +0.000 C 
ATOM     11  N   UNL     1       3.049   5.350  17.629  0.00  0.00    +0.000 N 
ATOM     12  C   UNL     1       3.476   6.660  17.863  0.00  0.00    +0.000 C 
ATOM     13  O   UNL     1       4.599   7.059  17.556  0.00  0.00    +0.000 OA
ATOM     14  C   UNL     1       1.681   4.826  17.705  0.00  0.00    +0.000 C 
ATOM     15  C   UNL     1       1.643   3.632  18.659  0.00  0.00    +0.000 C 
ENDBRANCH   1  12
BRANCH   4  16
ATOM     16  C   UNL     1      -0.134  10.426  20.392  0.00  0.00    +0.000 A 
ATOM     17  C   UNL     1      -1.063  11.153  19.630  0.00  0.00    +0.000 A 
ATOM     18  C   UNL     1      -1.892  12.109  20.195  0.00  0.00    +0.000 A 
ATOM     19  C   UNL     1      -1.868  12.349  21.566  0.00  0.00    +0.000 A 
ATOM     20  C   UNL     1      -0.985  11.611  22.358  0.00  0.00    +0.000 A 
ATOM     21  C   UNL     1      -0.119  10.666  21.774  0.00  0.00    +0.000 A 
BRANCH  19  22
ATOM     22  O   UNL     1      -2.669  13.268  22.202  0.00  0.00    +0.000 OA
BRANCH  22  23
ATOM     23  C   UNL     1      -2.658  13.131  23.624  0.00  0.00    +0.000 C 
BRANCH  23  24
ATOM     24  C   UNL     1      -3.969  12.597  24.176  0.00  0.00    +0.000 C 
BRANCH  24  25
ATOM     25  C   UNL     1      -5.096  13.178  23.318  0.00  0.00    +0.000 C 
BRANCH  25  26
ATOM     26  N   UNL     1      -5.507  12.244  22.278  0.00  0.00    +0.000 NA
ATOM     27  H   UNL     1      -6.141  11.552  22.682  0.00  0.00    +0.000 HD
BRANCH  26  28
ATOM     28  C   UNL     1      -6.175  12.907  21.147  0.00  0.00    +0.000 C 
ATOM     29  C   UNL     1      -5.476  12.651  19.808  0.00  0.00    +0.000 C 
ATOM     30  C   UNL     1      -7.610  12.387  21.081  0.00  0.00    +0.000 C 
ENDBRANCH  26  28
ENDBRANCH  25  26
ENDBRANCH  24  25
ENDBRANCH  23  24
ENDBRANCH  22  23
ENDBRANCH  19  22
ENDBRANCH   4  16
TORSDOF 8
ENDMDL
MODEL 6
REMARK VINA RESULT:      -7.3      2.930      4.310
REMARK  Name = 
REMARK  11 active torsions:
REMARK  status: ('A' for Active; 'I' for Inactive)
REMARK    1  A    between atoms: C_1  and  C_2
REMARK    2  A    between atoms: C_6  and  C_8
REMARK    3  A    between atoms: C_11  and  C_12
REMARK    4  A    between atoms: C_15  and  O_16
REMARK    5  A    between atoms: O_16  and  C_17
REMARK    6  A    between atoms: C_17  and  C_18
REMARK    7  A    between atoms: C_18  and  C_19
REMARK    8  A    between atoms: C_19  and  N_20
REMARK    9  A    between atoms: N_20  and  C_21
REMARK   10  A    between atoms: C_21  and  C_22
REMARK   11  A    between atoms: C_21  and  C_23
REMARK                            x       y       z     vdW  Elec       q    Type
REMARK                         _______ _______ _______ _____ _____    ______ ____
ROOT
ATOM      1  C   UNL     1       3.233   6.360  18.971  0.00  0.00    +0.000 A 
ATOM      2  C   UNL     1       2.968   7.278  17.960  0.00  0.00    +0.000 A 
ATOM      3  C   UNL     1       2.174   8.384  18.218  0.00  0.00    +0.000 A 
ATOM      4  C   UNL     1       1.473   8.538  19.430  0.00  0.00    +0.000 A 
ATOM      5  C   UNL     1       1.658   7.547  20.405  0.00  0.00    +0.000 A 
ATOM      6  C   UNL     1       2.540   6.475  20.183  0.00  0.00    +0.000 A 
ENDROOT
BRANCH   1  12
ATOM      7  C   UNL     1       5.960   4.495  13.579  0.00  0.00    +0.000 C 
ATOM      8  C   UNL     1       6.161   4.896  15.039  0.00  0.00    +0.000 C 
ATOM      9  C   UNL     1       5.873   3.710  15.977  0.00  0.00    +0.000 C 
ATOM     10  C   UNL     1       5.935   4.110  17.455  0.00  0.00    +0.000 C 
ATOM     11  N   UNL     1       5.105   5.284  17.710  0.00  0.00    +0.000 N 
ATOM     12  C   UNL     1       4.181   5.239  18.758  0.00  0.00    +0.000 C 
ATOM     13  O   UNL     1       4.106   4.289  19.538  0.00  0.00    +0.000 OA
ATOM     14  C   UNL     1       5.469   6.443  16.886  0.00  0.00    +0.000 C 
ATOM     15  C   UNL     1       5.280   6.099  15.408  0.00  0.00    +0.000 C 
ENDBRANCH   1  12
BRANCH   4  16
ATOM     16  C   UNL     1       0.544   9.676  19.585  0.00  0.00    +0.000 A 
ATOM     17  C   UNL     1       0.338  10.531  18.489  0.00  0.00    +0.000 A 
ATOM     18  C   UNL     1      -0.458  11.661  18.576  0.00  0.00    +0.000 A 
ATOM     19  C   UNL     1      -1.134  11.965  19.754  0.00  0.00    +0.000 A 
ATOM     20  C   UNL     1      -0.984  11.111  20.850  0.00  0.00    +0.000 A 
ATOM     21  C   UNL     1      -0.145   9.982  20.768  0.00  0.00    +0.000 A 
BRANCH  19  22
ATOM     22  O   UNL     1      -1.953  13.059  19.913  0.00  0.00    +0.000 OA
BRANCH  22  23
ATOM     23  C   UNL     1      -3.184  12.745  20.565  0.00  0.00    +0.000 C 
BRANCH  23  24
ATOM     24  C   UNL     1      -4.401  13.041  19.704  0.00  0.00    +0.000 C 
BRANCH  24  25
ATOM     25  C   UNL     1      -4.608  11.839  18.777  0.00  0.00    +0.000 C 
BRANCH  25  26
ATOM     26  N   UNL     1      -3.886  12.007  17.523  0.00  0.00    +0.000 NA
ATOM     27  H   UNL     1      -2.937  12.327  17.724  0.00  0.00    +0.000 HD
BRANCH  26  28
ATOM     28  C   UNL     1      -3.818  10.767  16.734  0.00  0.00    +0.000 C 
ATOM     29  C   UNL     1      -2.941  10.902  15.485  0.00  0.00    +0.000 C 
ATOM     30  C   UNL     1      -3.257   9.668  17.636  0.00  0.00    +0.000 C 
ENDBRANCH  26  28
ENDBRANCH  25  26
ENDBRANCH  24  25
ENDBRANCH  23  24
ENDBRANCH  22  23
ENDBRANCH  19  22
ENDBRANCH   4  16
TORSDOF 8
ENDMDL
MODEL 7
REMARK VINA RESULT:      -7.3      1.087      1.896
REMARK  Name = 
REMARK  11 active torsions:
REMARK  status: ('A' for Active; 'I' for Inactive)
REMARK    1  A    between atoms: C_1  and  C_2
REMARK    2  A    between atoms: C_6  and  C_8
REMARK    3  A    between atoms: C_11  and  C_12
REMARK    4  A    between atoms: C_15  and  O_16
REMARK    5  A    between atoms: O_16  and  C_17
REMARK    6  A    between atoms: C_17  and  C_18
REMARK    7  A    between atoms: C_18  and  C_19
REMARK    8  A    between atoms: C_19  and  N_20
REMARK    9  A    between atoms: N_20  and  C_21
REMARK   10  A    between atoms: C_21  and  C_22
REMARK   11  A    between atoms: C_21  and  C_23
REMARK                            x       y       z     vdW  Elec       q    Type
REMARK                         _______ _______ _______ _____ _____    ______ ____
ROOT
ATOM      1  C   UNL     1       2.474   7.693  18.550  0.00  0.00    +0.000 A 
ATOM      2  C   UNL     1       1.868   8.727  17.845  0.00  0.00    +0.000 A 
ATOM      3  C   UNL     1       1.104   9.669  18.514  0.00  0.00    +0.000 A 
ATOM      4  C   UNL     1       0.767   9.532  19.875  0.00  0.00    +0.000 A 
ATOM      5  C   UNL     1       1.292   8.423  20.554  0.00  0.00    +0.000 A 
ATOM      6  C   UNL     1       2.148   7.519  19.902  0.00  0.00    +0.000 A 
ENDROOT
BRANCH   1  12
ATOM      7  C   UNL     1       2.754   1.402  19.123  0.00  0.00    +0.000 C 
ATOM      8  C   UNL     1       2.669   2.594  18.173  0.00  0.00    +0.000 C 
ATOM      9  C   UNL     1       4.060   3.213  17.944  0.00  0.00    +0.000 C 
ATOM     10  C   UNL     1       3.995   4.491  17.102  0.00  0.00    +0.000 C 
ATOM     11  N   UNL     1       3.013   5.424  17.649  0.00  0.00    +0.000 N 
ATOM     12  C   UNL     1       3.400   6.747  17.879  0.00  0.00    +0.000 C 
ATOM     13  O   UNL     1       4.502   7.185  17.548  0.00  0.00    +0.000 OA
ATOM     14  C   UNL     1       1.665   4.853  17.753  0.00  0.00    +0.000 C 
ATOM     15  C   UNL     1       1.691   3.654  18.703  0.00  0.00    +0.000 C 
ENDBRANCH   1  12
BRANCH   4  16
ATOM     16  C   UNL     1      -0.158  10.506  20.489  0.00  0.00    +0.000 A 
ATOM     17  C   UNL     1      -0.160  10.643  21.888  0.00  0.00    +0.000 A 
ATOM     18  C   UNL     1      -1.048  11.478  22.545  0.00  0.00    +0.000 A 
ATOM     19  C   UNL     1      -1.949  12.262  21.829  0.00  0.00    +0.000 A 
ATOM     20  C   UNL     1      -1.943  12.181  20.434  0.00  0.00    +0.000 A 
ATOM     21  C   UNL     1      -1.062  11.303  19.772  0.00  0.00    +0.000 A 
BRANCH  19  22
ATOM     22  O   UNL     1      -2.849  13.125  22.409  0.00  0.00    +0.000 OA
BRANCH  22  23
ATOM     23  C   UNL     1      -2.923  12.984  23.829  0.00  0.00    +0.000 C 
BRANCH  23  24
ATOM     24  C   UNL     1      -4.283  12.499  24.304  0.00  0.00    +0.000 C 
BRANCH  24  25
ATOM     25  C   UNL     1      -5.338  13.140  23.398  0.00  0.00    +0.000 C 
BRANCH  25  26
ATOM     26  N   UNL     1      -5.745  12.233  22.333  0.00  0.00    +0.000 NA
ATOM     27  H   UNL     1      -6.324  11.491  22.729  0.00  0.00    +0.000 HD
BRANCH  26  28
ATOM     28  C   UNL     1      -6.494  12.910  21.263  0.00  0.00    +0.000 C 
ATOM     29  C   UNL     1      -7.438  13.995  21.791  0.00  0.00    +0.000 C 
ATOM     30  C   UNL     1      -5.481  13.535  20.305  0.00  0.00    +0.000 C 
ENDBRANCH  26  28
ENDBRANCH  25  26
ENDBRANCH  24  25
ENDBRANCH  23  24
ENDBRANCH  22  23
ENDBRANCH  19  22
ENDBRANCH   4  16
TORSDOF 8
ENDMDL
MODEL 8
REMARK VINA RESULT:      -7.2      2.385     10.476
REMARK  Name = 
REMARK  11 active torsions:
REMARK  status: ('A' for Active; 'I' for Inactive)
REMARK    1  A    between atoms: C_1  and  C_2
REMARK    2  A    between atoms: C_6  and  C_8
REMARK    3  A    between atoms: C_11  and  C_12
REMARK    4  A    between atoms: C_15  and  O_16
REMARK    5  A    between atoms: O_16  and  C_17
REMARK    6  A    between atoms: C_17  and  C_18
REMARK    7  A    between atoms: C_18  and  C_19
REMARK    8  A    between atoms: C_19  and  N_20
REMARK    9  A    between atoms: N_20  and  C_21
REMARK   10  A    between atoms: C_21  and  C_22
REMARK   11  A    between atoms: C_21  and  C_23
REMARK                            x       y       z     vdW  Elec       q    Type
REMARK                         _______ _______ _______ _____ _____    ______ ____
ROOT
ATOM      1  C   UNL     1      -0.895  11.059  19.494  0.00  0.00    +0.000 A 
ATOM      2  C   UNL     1      -0.336  10.369  20.564  0.00  0.00    +0.000 A 
ATOM      3  C   UNL     1       0.690   9.463  20.346  0.00  0.00    +0.000 A 
ATOM      4  C   UNL     1       1.088   9.078  19.052  0.00  0.00    +0.000 A 
ATOM      5  C   UNL     1       0.441   9.698  17.974  0.00  0.00    +0.000 A 
ATOM      6  C   UNL     1      -0.531  10.689  18.192  0.00  0.00    +0.000 A 
ENDROOT
BRANCH   1  12
ATOM      7  C   UNL     1      -1.333  15.119  24.321  0.00  0.00    +0.000 C 
ATOM      8  C   UNL     1      -1.287  14.939  22.805  0.00  0.00    +0.000 C 
ATOM      9  C   UNL     1      -2.672  14.545  22.258  0.00  0.00    +0.000 C 
ATOM     10  C   UNL     1      -2.634  14.226  20.760  0.00  0.00    +0.000 C 
ATOM     11  N   UNL     1      -1.580  13.260  20.461  0.00  0.00    +0.000 N 
ATOM     12  C   UNL     1      -1.903  12.126  19.712  0.00  0.00    +0.000 C 
ATOM     13  O   UNL     1      -3.013  11.954  19.208  0.00  0.00    +0.000 OA
ATOM     14  C   UNL     1      -0.248  13.704  20.888  0.00  0.00    +0.000 C 
ATOM     15  C   UNL     1      -0.234  13.894  22.405  0.00  0.00    +0.000 C 
ENDBRANCH   1  12
BRANCH   4  16
ATOM     16  C   UNL     1       2.099   8.011  18.897  0.00  0.00    +0.000 A 
ATOM     17  C   UNL     1       2.905   8.010  17.747  0.00  0.00    +0.000 A 
ATOM     18  C   UNL     1       3.823   7.005  17.491  0.00  0.00    +0.000 A 
ATOM     19  C   UNL     1       4.019   5.973  18.404  0.00  0.00    +0.000 A 
ATOM     20  C   UNL     1       3.262   5.968  19.579  0.00  0.00    +0.000 A 
ATOM     21  C   UNL     1       2.305   6.973  19.818  0.00  0.00    +0.000 A 
BRANCH  19  22
ATOM     22  O   UNL     1       4.920   4.949  18.229  0.00  0.00    +0.000 OA
BRANCH  22  23
ATOM     23  C   UNL     1       4.660   4.170  17.059  0.00  0.00    +0.000 C 
BRANCH  23  24
ATOM     24  C   UNL     1       3.319   3.456  17.111  0.00  0.00    +0.000 C 
BRANCH  24  25
ATOM     25  C   UNL     1       3.468   2.279  18.081  0.00  0.00    +0.000 C 
BRANCH  25  26
ATOM     26  N   UNL     1       2.168   1.771  18.500  0.00  0.00    +0.000 NA
ATOM     27  H   UNL     1       2.172   0.751  18.435  0.00  0.00    +0.000 HD
BRANCH  26  28
ATOM     28  C   UNL     1       1.818   2.165  19.874  0.00  0.00    +0.000 C 
ATOM     29  C   UNL     1       3.029   2.631  20.687  0.00  0.00    +0.000 C 
ATOM     30  C   UNL     1       0.793   3.295  19.789  0.00  0.00    +0.000 C 
ENDBRANCH  26  28
ENDBRANCH  25  26
ENDBRANCH  24  25
ENDBRANCH  23  24
ENDBRANCH  22  23
ENDBRANCH  19  22
ENDBRANCH   4  16
TORSDOF 8
ENDMDL
MODEL 9
REMARK VINA RESULT:      -7.2      1.487      2.365
REMARK  Name = 
REMARK  11 active torsions:
REMARK  status: ('A' for Active; 'I' for Inactive)
REMARK    1  A    between atoms: C_1  and  C_2
REMARK    2  A    between atoms: C_6  and  C_8
REMARK    3  A    between atoms: C_11  and  C_12
REMARK    4  A    between atoms: C_15  and  O_16
REMARK    5  A    between atoms: O_16  and  C_17
REMARK    6  A    between atoms: C_17  and  C_18
REMARK    7  A    between atoms: C_18  and  C_19
REMARK    8  A    between atoms: C_19  and  N_20
REMARK    9  A    between atoms: N_20  and  C_21
REMARK   10  A    between atoms: C_21  and  C_22
REMARK   11  A    between atoms: C_21  and  C_23
REMARK                            x       y       z     vdW  Elec       q    Type
REMARK                         _______ _______ _______ _____ _____    ______ ____
ROOT
ATOM      1  C   UNL     1       2.495   7.704  18.515  0.00  0.00    +0.000 A 
ATOM      2  C   UNL     1       1.889   8.735  17.804  0.00  0.00    +0.000 A 
ATOM      3  C   UNL     1       1.123   9.679  18.469  0.00  0.00    +0.000 A 
ATOM      4  C   UNL     1       0.786   9.548  19.829  0.00  0.00    +0.000 A 
ATOM      5  C   UNL     1       1.311   8.444  20.514  0.00  0.00    +0.000 A 
ATOM      6  C   UNL     1       2.168   7.537  19.867  0.00  0.00    +0.000 A 
ENDROOT
BRANCH   1  12
ATOM      7  C   UNL     1       2.766   1.415  19.102  0.00  0.00    +0.000 C 
ATOM      8  C   UNL     1       2.685   2.605  18.149  0.00  0.00    +0.000 C 
ATOM      9  C   UNL     1       4.078   3.222  17.923  0.00  0.00    +0.000 C 
ATOM     10  C   UNL     1       4.017   4.498  17.079  0.00  0.00    +0.000 C 
ATOM     11  N   UNL     1       3.035   5.433  17.620  0.00  0.00    +0.000 N 
ATOM     12  C   UNL     1       3.422   6.756  17.849  0.00  0.00    +0.000 C 
ATOM     13  O   UNL     1       4.526   7.193  17.521  0.00  0.00    +0.000 OA
ATOM     14  C   UNL     1       1.686   4.864  17.721  0.00  0.00    +0.000 C 
ATOM     15  C   UNL     1       1.706   3.667  18.673  0.00  0.00    +0.000 C 
ENDBRANCH   1  12
BRANCH   4  16
ATOM     16  C   UNL     1      -0.141  10.525  20.439  0.00  0.00    +0.000 A 
ATOM     17  C   UNL     1      -0.184  10.629  21.839  0.00  0.00    +0.000 A 
ATOM     18  C   UNL     1      -1.077  11.464  22.489  0.00  0.00    +0.000 A 
ATOM     19  C   UNL     1      -1.941  12.282  21.765  0.00  0.00    +0.000 A 
ATOM     20  C   UNL     1      -1.893  12.234  20.369  0.00  0.00    +0.000 A 
ATOM     21  C   UNL     1      -1.008  11.356  19.713  0.00  0.00    +0.000 A 
BRANCH  19  22
ATOM     22  O   UNL     1      -2.844  13.147  22.337  0.00  0.00    +0.000 OA
BRANCH  22  23
ATOM     23  C   UNL     1      -4.179  12.639  22.341  0.00  0.00    +0.000 C 
BRANCH  23  24
ATOM     24  C   UNL     1      -5.229  13.736  22.278  0.00  0.00    +0.000 C 
BRANCH  24  25
ATOM     25  C   UNL     1      -6.584  13.057  22.051  0.00  0.00    +0.000 C 
BRANCH  25  26
ATOM     26  N   UNL     1      -6.422  11.724  21.488  0.00  0.00    +0.000 NA
ATOM     27  H   UNL     1      -6.443  11.037  22.245  0.00  0.00    +0.000 HD
BRANCH  26  28
ATOM     28  C   UNL     1      -7.464  11.389  20.505  0.00  0.00    +0.000 C 
ATOM     29  C   UNL     1      -7.444  12.306  19.279  0.00  0.00    +0.000 C 
ATOM     30  C   UNL     1      -7.245   9.942  20.065  0.00  0.00    +0.000 C 
ENDBRANCH  26  28
ENDBRANCH  25  26
ENDBRANCH  24  25
ENDBRANCH  23  24
ENDBRANCH  22  23
ENDBRANCH  19  22
ENDBRANCH   4  16
TORSDOF 8
ENDMDL
