MODEL 1
REMARK VINA RESULT:      -6.2      0.000      0.000
REMARK  Name = 
REMARK  5 active torsions:
REMARK  status: ('A' for Active; 'I' for Inactive)
REMARK    1  A    between atoms: S_2  and  C_4
REMARK    2  A    between atoms: S_2  and  N_9
REMARK    3  A    between atoms: C_4  and  C_5
REMARK    4  A    between atoms: N_9  and  C_10
REMARK    5  A    between atoms: C_10  and  C_11
REMARK                            x       y       z     vdW  Elec       q    Type
REMARK                         _______ _______ _______ _____ _____    ______ ____
ROOT
ATOM      1  O   UNL     1       4.608   5.759  17.920  0.00  0.00    +0.000 OA
ATOM      2  S   UNL     1       5.296   4.768  18.718  0.00  0.00    +0.000 S 
ATOM      3  O   UNL     1       6.083   5.126  19.872  0.00  0.00    +0.000 OA
ENDROOT
BRANCH   2   4
ATOM      4  N   UNL     1       6.314   3.898  17.688  0.00  0.00    +0.000 NA
ATOM      5  H   UNL     1       5.835   3.218  17.098  0.00  0.00    +0.000 HD
BRANCH   4   6
ATOM      6  C   UNL     1       7.348   4.679  16.991  0.00  0.00    +0.000 C 
BRANCH   6   7
ATOM      7  C   UNL     1       7.084   4.604  15.535  0.00  0.00    +0.000 A 
ATOM      8  C   UNL     1       6.260   3.840  14.742  0.00  0.00    +0.000 A 
ATOM      9  C   UNL     1       6.525   4.293  13.438  0.00  0.00    +0.000 A 
ATOM     10  N   UNL     1       7.436   5.269  13.423  0.00  0.00    +0.000 NA
ATOM     11  O   UNL     1       7.790   5.463  14.748  0.00  0.00    +0.000 OA
ENDBRANCH   6   7
ENDBRANCH   4   6
ENDBRANCH   2   4
BRANCH   2  12
ATOM     12  C   UNL     1       4.122   3.507  19.212  0.00  0.00    +0.000 C 
BRANCH  12  13
ATOM     13  C   UNL     1       2.721   4.090  19.312  0.00  0.00    +0.000 C 
ATOM     14  C   UNL     1       1.610   3.067  19.670  0.00  0.00    +0.000 C 
ATOM     15  C   UNL     1       0.936   4.180  20.495  0.00  0.00    +0.000 C 
ATOM     16  C   UNL     1       2.322   4.844  20.611  0.00  0.00    +0.000 C 
ENDBRANCH  12  13
ENDBRANCH   2  12
TORSDOF 5
ENDMDL
MODEL 2
REMARK VINA RESULT:      -6.2      1.046      1.116
REMARK  Name = 
REMARK  5 active torsions:
REMARK  status: ('A' for Active; 'I' for Inactive)
REMARK    1  A    between atoms: S_2  and  C_4
REMARK    2  A    between atoms: S_2  and  N_9
REMARK    3  A    between atoms: C_4  and  C_5
REMARK    4  A    between atoms: N_9  and  C_10
REMARK    5  A    between atoms: C_10  and  C_11
REMARK                            x       y       z     vdW  Elec       q    Type
REMARK                         _______ _______ _______ _____ _____    ______ ____
ROOT
ATOM      1  O   UNL     1       4.335   5.795  18.778  0.00  0.00    +0.000 OA
ATOM      2  S   UNL     1       5.250   4.699  19.004  0.00  0.00    +0.000 S 
ATOM      3  O   UNL     1       6.441   4.848  19.805  0.00  0.00    +0.000 OA
ENDROOT
BRANCH   2   4
ATOM      4  N   UNL     1       5.749   4.128  17.495  0.00  0.00    +0.000 NA
ATOM      5  H   UNL     1       5.906   3.121  17.456  0.00  0.00    +0.000 HD
BRANCH   4   6
ATOM      6  C   UNL     1       5.035   4.672  16.330  0.00  0.00    +0.000 C 
BRANCH   6   7
ATOM      7  C   UNL     1       5.985   4.743  15.195  0.00  0.00    +0.000 A 
ATOM      8  C   UNL     1       6.040   4.170  13.946  0.00  0.00    +0.000 A 
ATOM      9  C   UNL     1       7.231   4.672  13.392  0.00  0.00    +0.000 A 
ATOM     10  N   UNL     1       7.862   5.501  14.229  0.00  0.00    +0.000 NA
ATOM     11  O   UNL     1       7.074   5.543  15.368  0.00  0.00    +0.000 OA
ENDBRANCH   6   7
ENDBRANCH   4   6
ENDBRANCH   2   4
BRANCH   2  12
ATOM     12  C   UNL     1       4.328   3.296  19.633  0.00  0.00    +0.000 C 
BRANCH  12  13
ATOM     13  C   UNL     1       2.996   3.747  20.210  0.00  0.00    +0.000 C 
ATOM     14  C   UNL     1       1.749   3.325  19.387  0.00  0.00    +0.000 C 
ATOM     15  C   UNL     1       1.006   3.136  20.722  0.00  0.00    +0.000 C 
ATOM     16  C   UNL     1       2.383   2.937  21.386  0.00  0.00    +0.000 C 
ENDBRANCH  12  13
ENDBRANCH   2  12
TORSDOF 5
ENDMDL
MODEL 3
REMARK VINA RESULT:      -6.0      3.452      5.377
REMARK  Name = 
REMARK  5 active torsions:
REMARK  status: ('A' for Active; 'I' for Inactive)
REMARK    1  A    between atoms: S_2  and  C_4
REMARK    2  A    between atoms: S_2  and  N_9
REMARK    3  A    between atoms: C_4  and  C_5
REMARK    4  A    between atoms: N_9  and  C_10
REMARK    5  A    between atoms: C_10  and  C_11
REMARK                            x       y       z     vdW  Elec       q    Type
REMARK                         _______ _______ _______ _____ _____    ______ ____
ROOT
ATOM      1  O   UNL     1       4.687   3.928  17.125  0.00  0.00    +0.000 OA
ATOM      2  S   UNL     1       5.415   4.144  18.356  0.00  0.00    +0.000 S 
ATOM      3  O   UNL     1       6.846   4.328  18.377  0.00  0.00    +0.000 OA
ENDROOT
BRANCH   2   4
ATOM      4  N   UNL     1       5.078   2.848  19.385  0.00  0.00    +0.000 NA
ATOM      5  H   UNL     1       5.161   3.066  20.378  0.00  0.00    +0.000 HD
BRANCH   4   6
ATOM      6  C   UNL     1       3.897   2.041  19.042  0.00  0.00    +0.000 C 
BRANCH   6   7
ATOM      7  C   UNL     1       2.708   2.670  19.662  0.00  0.00    +0.000 A 
ATOM      8  C   UNL     1       1.464   3.040  19.207  0.00  0.00    +0.000 A 
ATOM      9  C   UNL     1       0.836   3.591  20.338  0.00  0.00    +0.000 A 
ATOM     10  N   UNL     1       1.626   3.558  21.414  0.00  0.00    +0.000 NA
ATOM     11  O   UNL     1       2.809   2.978  20.985  0.00  0.00    +0.000 OA
ENDBRANCH   6   7
ENDBRANCH   4   6
ENDBRANCH   2   4
BRANCH   2  12
ATOM     12  C   UNL     1       4.664   5.511  19.239  0.00  0.00    +0.000 C 
BRANCH  12  13
ATOM     13  C   UNL     1       3.487   6.071  18.457  0.00  0.00    +0.000 C 
ATOM     14  C   UNL     1       2.459   6.870  19.303  0.00  0.00    +0.000 C 
ATOM     15  C   UNL     1       2.286   7.809  18.095  0.00  0.00    +0.000 C 
ATOM     16  C   UNL     1       3.693   7.375  17.638  0.00  0.00    +0.000 C 
ENDBRANCH  12  13
ENDBRANCH   2  12
TORSDOF 5
ENDMDL
MODEL 4
REMARK VINA RESULT:      -6.0      1.719      1.901
REMARK  Name = 
REMARK  5 active torsions:
REMARK  status: ('A' for Active; 'I' for Inactive)
REMARK    1  A    between atoms: S_2  and  C_4
REMARK    2  A    between atoms: S_2  and  N_9
REMARK    3  A    between atoms: C_4  and  C_5
REMARK    4  A    between atoms: N_9  and  C_10
REMARK    5  A    between atoms: C_10  and  C_11
REMARK                            x       y       z     vdW  Elec       q    Type
REMARK                         _______ _______ _______ _____ _____    ______ ____
ROOT
ATOM      1  O   UNL     1       3.030   4.525  17.388  0.00  0.00    +0.000 OA
ATOM      2  S   UNL     1       3.450   5.650  18.196  0.00  0.00    +0.000 S 
ATOM      3  O   UNL     1       2.915   6.976  17.999  0.00  0.00    +0.000 OA
ENDROOT
BRANCH   2   4
ATOM      4  N   UNL     1       5.128   5.780  18.060  0.00  0.00    +0.000 NA
ATOM      5  H   UNL     1       5.567   6.343  18.789  0.00  0.00    +0.000 HD
BRANCH   4   6
ATOM      6  C   UNL     1       5.849   4.538  17.743  0.00  0.00    +0.000 C 
BRANCH   6   7
ATOM      7  C   UNL     1       6.301   4.610  16.334  0.00  0.00    +0.000 A 
ATOM      8  C   UNL     1       5.867   4.057  15.152  0.00  0.00    +0.000 A 
ATOM      9  C   UNL     1       6.772   4.546  14.193  0.00  0.00    +0.000 A 
ATOM     10  N   UNL     1       7.692   5.347  14.737  0.00  0.00    +0.000 NA
ATOM     11  O   UNL     1       7.394   5.384  16.090  0.00  0.00    +0.000 OA
ENDBRANCH   6   7
ENDBRANCH   4   6
ENDBRANCH   2   4
BRANCH   2  12
ATOM     12  C   UNL     1       3.259   5.223  19.925  0.00  0.00    +0.000 C 
BRANCH  12  13
ATOM     13  C   UNL     1       2.512   3.907  20.073  0.00  0.00    +0.000 C 
ATOM     14  C   UNL     1       2.620   3.245  21.472  0.00  0.00    +0.000 C 
ATOM     15  C   UNL     1       1.162   2.781  21.299  0.00  0.00    +0.000 C 
ATOM     16  C   UNL     1       0.976   3.948  20.309  0.00  0.00    +0.000 C 
ENDBRANCH  12  13
ENDBRANCH   2  12
TORSDOF 5
ENDMDL
MODEL 5
REMARK VINA RESULT:      -6.0      2.260      5.749
REMARK  Name = 
REMARK  5 active torsions:
REMARK  status: ('A' for Active; 'I' for Inactive)
REMARK    1  A    between atoms: S_2  and  C_4
REMARK    2  A    between atoms: S_2  and  N_9
REMARK    3  A    between atoms: C_4  and  C_5
REMARK    4  A    between atoms: N_9  and  C_10
REMARK    5  A    between atoms: C_10  and  C_11
REMARK                            x       y       z     vdW  Elec       q    Type
REMARK                         _______ _______ _______ _____ _____    ______ ____
ROOT
ATOM      1  O   UNL     1       6.556   5.184  19.878  0.00  0.00    +0.000 OA
ATOM      2  S   UNL     1       5.826   4.825  18.682  0.00  0.00    +0.000 S 
ATOM      3  O   UNL     1       4.674   5.570  18.235  0.00  0.00    +0.000 OA
ENDROOT
BRANCH   2   4
ATOM      4  N   UNL     1       5.331   3.219  18.847  0.00  0.00    +0.000 NA
ATOM      5  H   UNL     1       6.071   2.533  18.699  0.00  0.00    +0.000 HD
BRANCH   4   6
ATOM      6  C   UNL     1       4.458   2.927  19.994  0.00  0.00    +0.000 C 
BRANCH   6   7
ATOM      7  C   UNL     1       3.070   2.779  19.495  0.00  0.00    +0.000 A 
ATOM      8  C   UNL     1       1.829   2.763  20.088  0.00  0.00    +0.000 A 
ATOM      9  C   UNL     1       0.941   2.576  19.014  0.00  0.00    +0.000 A 
ATOM     10  N   UNL     1       1.580   2.490  17.844  0.00  0.00    +0.000 NA
ATOM     11  O   UNL     1       2.926   2.616  18.151  0.00  0.00    +0.000 OA
ENDBRANCH   6   7
ENDBRANCH   4   6
ENDBRANCH   2   4
BRANCH   2  12
ATOM     12  C   UNL     1       6.979   4.708  17.314  0.00  0.00    +0.000 C 
BRANCH  12  13
ATOM     13  C   UNL     1       6.254   4.867  15.988  0.00  0.00    +0.000 C 
ATOM     14  C   UNL     1       7.175   4.910  14.739  0.00  0.00    +0.000 C 
ATOM     15  C   UNL     1       6.082   4.133  13.981  0.00  0.00    +0.000 C 
ATOM     16  C   UNL     1       5.594   3.614  15.348  0.00  0.00    +0.000 C 
ENDBRANCH  12  13
ENDBRANCH   2  12
TORSDOF 5
ENDMDL
MODEL 6
REMARK VINA RESULT:      -6.0      1.548      1.747
REMARK  Name = 
REMARK  5 active torsions:
REMARK  status: ('A' for Active; 'I' for Inactive)
REMARK    1  A    between atoms: S_2  and  C_4
REMARK    2  A    between atoms: S_2  and  N_9
REMARK    3  A    between atoms: C_4  and  C_5
REMARK    4  A    between atoms: N_9  and  C_10
REMARK    5  A    between atoms: C_10  and  C_11
REMARK                            x       y       z     vdW  Elec       q    Type
REMARK                         _______ _______ _______ _____ _____    ______ ____
ROOT
ATOM      1  O   UNL     1       4.317   5.255  20.096  0.00  0.00    +0.000 OA
ATOM      2  S   UNL     1       4.925   4.713  18.901  0.00  0.00    +0.000 S 
ATOM      3  O   UNL     1       6.334   4.411  18.827  0.00  0.00    +0.000 OA
ENDROOT
BRANCH   2   4
ATOM      4  N   UNL     1       4.589   5.774  17.630  0.00  0.00    +0.000 NA
ATOM      5  H   UNL     1       3.774   6.368  17.781  0.00  0.00    +0.000 HD
BRANCH   4   6
ATOM      6  C   UNL     1       5.746   6.474  17.050  0.00  0.00    +0.000 C 
BRANCH   6   7
ATOM      7  C   UNL     1       6.187   5.727  15.849  0.00  0.00    +0.000 A 
ATOM      8  C   UNL     1       5.583   4.840  14.989  0.00  0.00    +0.000 A 
ATOM      9  C   UNL     1       6.596   4.515  14.069  0.00  0.00    +0.000 A 
ATOM     10  N   UNL     1       7.737   5.156  14.333  0.00  0.00    +0.000 NA
ATOM     11  O   UNL     1       7.478   5.920  15.459  0.00  0.00    +0.000 OA
ENDBRANCH   6   7
ENDBRANCH   4   6
ENDBRANCH   2   4
BRANCH   2  12
ATOM     12  C   UNL     1       4.015   3.252  18.400  0.00  0.00    +0.000 C 
BRANCH  12  13
ATOM     13  C   UNL     1       2.649   3.218  19.067  0.00  0.00    +0.000 C 
ATOM     14  C   UNL     1       1.476   3.722  18.184  0.00  0.00    +0.000 C 
ATOM     15  C   UNL     1       0.597   2.641  18.840  0.00  0.00    +0.000 C 
ATOM     16  C   UNL     1       1.893   1.862  19.141  0.00  0.00    +0.000 C 
ENDBRANCH  12  13
ENDBRANCH   2  12
TORSDOF 5
ENDMDL
MODEL 7
REMARK VINA RESULT:      -5.9      2.772      5.691
REMARK  Name = 
REMARK  5 active torsions:
REMARK  status: ('A' for Active; 'I' for Inactive)
REMARK    1  A    between atoms: S_2  and  C_4
REMARK    2  A    between atoms: S_2  and  N_9
REMARK    3  A    between atoms: C_4  and  C_5
REMARK    4  A    between atoms: N_9  and  C_10
REMARK    5  A    between atoms: C_10  and  C_11
REMARK                            x       y       z     vdW  Elec       q    Type
REMARK                         _______ _______ _______ _____ _____    ______ ____
ROOT
ATOM      1  O   UNL     1       5.392   3.518  19.049  0.00  0.00    +0.000 OA
ATOM      2  S   UNL     1       5.689   4.931  19.133  0.00  0.00    +0.000 S 
ATOM      3  O   UNL     1       6.789   5.438  19.917  0.00  0.00    +0.000 OA
ENDROOT
BRANCH   2   4
ATOM      4  N   UNL     1       4.298   5.714  19.685  0.00  0.00    +0.000 NA
ATOM      5  H   UNL     1       4.479   6.539  20.258  0.00  0.00    +0.000 HD
BRANCH   4   6
ATOM      6  C   UNL     1       3.220   5.889  18.700  0.00  0.00    +0.000 C 
BRANCH   6   7
ATOM      7  C   UNL     1       2.348   4.692  18.749  0.00  0.00    +0.000 A 
ATOM      8  C   UNL     1       1.823   3.842  17.804  0.00  0.00    +0.000 A 
ATOM      9  C   UNL     1       1.072   2.920  18.554  0.00  0.00    +0.000 A 
ATOM     10  N   UNL     1       1.131   3.174  19.864  0.00  0.00    +0.000 NA
ATOM     11  O   UNL     1       1.936   4.296  19.985  0.00  0.00    +0.000 OA
ENDBRANCH   6   7
ENDBRANCH   4   6
ENDBRANCH   2   4
BRANCH   2  12
ATOM     12  C   UNL     1       5.838   5.590  17.473  0.00  0.00    +0.000 C 
BRANCH  12  13
ATOM     13  C   UNL     1       6.168   4.482  16.485  0.00  0.00    +0.000 C 
ATOM     14  C   UNL     1       5.054   4.178  15.447  0.00  0.00    +0.000 C 
ATOM     15  C   UNL     1       6.170   3.915  14.418  0.00  0.00    +0.000 C 
ATOM     16  C   UNL     1       7.082   4.816  15.273  0.00  0.00    +0.000 C 
ENDBRANCH  12  13
ENDBRANCH   2  12
TORSDOF 5
ENDMDL
MODEL 8
REMARK VINA RESULT:      -5.9      2.510      6.003
REMARK  Name = 
REMARK  5 active torsions:
REMARK  status: ('A' for Active; 'I' for Inactive)
REMARK    1  A    between atoms: S_2  and  C_4
REMARK    2  A    between atoms: S_2  and  N_9
REMARK    3  A    between atoms: C_4  and  C_5
REMARK    4  A    between atoms: N_9  and  C_10
REMARK    5  A    between atoms: C_10  and  C_11
REMARK                            x       y       z     vdW  Elec       q    Type
REMARK                         _______ _______ _______ _____ _____    ______ ____
ROOT
ATOM      1  O   UNL     1       7.803   4.386  16.624  0.00  0.00    +0.000 OA
ATOM      2  S   UNL     1       6.687   5.305  16.560  0.00  0.00    +0.000 S 
ATOM      3  O   UNL     1       6.873   6.735  16.534  0.00  0.00    +0.000 OA
ENDROOT
BRANCH   2   4
ATOM      4  N   UNL     1       5.674   4.972  17.870  0.00  0.00    +0.000 NA
ATOM      5  H   UNL     1       6.120   5.070  18.783  0.00  0.00    +0.000 HD
BRANCH   4   6
ATOM      6  C   UNL     1       4.317   5.535  17.798  0.00  0.00    +0.000 C 
BRANCH   6   7
ATOM      7  C   UNL     1       3.347   4.416  17.848  0.00  0.00    +0.000 A 
ATOM      8  C   UNL     1       3.444   3.065  18.083  0.00  0.00    +0.000 A 
ATOM      9  C   UNL     1       2.121   2.603  17.968  0.00  0.00    +0.000 A 
ATOM     10  N   UNL     1       1.268   3.592  17.690  0.00  0.00    +0.000 NA
ATOM     11  O   UNL     1       2.045   4.737  17.612  0.00  0.00    +0.000 OA
ENDBRANCH   6   7
ENDBRANCH   4   6
ENDBRANCH   2   4
BRANCH   2  12
ATOM     12  C   UNL     1       5.644   4.853  15.174  0.00  0.00    +0.000 C 
BRANCH  12  13
ATOM     13  C   UNL     1       6.436   4.063  14.144  0.00  0.00    +0.000 C 
ATOM     14  C   UNL     1       5.624   3.609  12.902  0.00  0.00    +0.000 C 
ATOM     15  C   UNL     1       6.890   3.855  12.060  0.00  0.00    +0.000 C 
ATOM     16  C   UNL     1       7.349   4.839  13.154  0.00  0.00    +0.000 C 
ENDBRANCH  12  13
ENDBRANCH   2  12
TORSDOF 5
ENDMDL
MODEL 9
REMARK VINA RESULT:      -5.9      2.144      3.010
REMARK  Name = 
REMARK  5 active torsions:
REMARK  status: ('A' for Active; 'I' for Inactive)
REMARK    1  A    between atoms: S_2  and  C_4
REMARK    2  A    between atoms: S_2  and  N_9
REMARK    3  A    between atoms: C_4  and  C_5
REMARK    4  A    between atoms: N_9  and  C_10
REMARK    5  A    between atoms: C_10  and  C_11
REMARK                            x       y       z     vdW  Elec       q    Type
REMARK                         _______ _______ _______ _____ _____    ______ ____
ROOT
ATOM      1  O   UNL     1       5.315   3.764  19.359  0.00  0.00    +0.000 OA
ATOM      2  S   UNL     1       4.372   3.758  18.262  0.00  0.00    +0.000 S 
ATOM      3  O   UNL     1       4.017   2.546  17.564  0.00  0.00    +0.000 OA
ENDROOT
BRANCH   2   4
ATOM      4  N   UNL     1       4.936   4.841  17.096  0.00  0.00    +0.000 NA
ATOM      5  H   UNL     1       4.597   5.796  17.209  0.00  0.00    +0.000 HD
BRANCH   4   6
ATOM      6  C   UNL     1       6.366   4.745  16.762  0.00  0.00    +0.000 C 
BRANCH   6   7
ATOM      7  C   UNL     1       7.057   5.922  17.340  0.00  0.00    +0.000 A 
ATOM      8  C   UNL     1       7.735   6.163  18.511  0.00  0.00    +0.000 A 
ATOM      9  C   UNL     1       8.128   7.509  18.408  0.00  0.00    +0.000 A 
ATOM     10  N   UNL     1       7.731   8.059  17.257  0.00  0.00    +0.000 NA
ATOM     11  O   UNL     1       7.053   7.055  16.584  0.00  0.00    +0.000 OA
ENDBRANCH   6   7
ENDBRANCH   4   6
ENDBRANCH   2   4
BRANCH   2  12
ATOM     12  C   UNL     1       2.860   4.558  18.795  0.00  0.00    +0.000 C 
BRANCH  12  13
ATOM     13  C   UNL     1       2.549   4.205  20.241  0.00  0.00    +0.000 C 
ATOM     14  C   UNL     1       1.038   4.101  20.580  0.00  0.00    +0.000 C 
ATOM     15  C   UNL     1       1.392   2.944  21.532  0.00  0.00    +0.000 C 
ATOM     16  C   UNL     1       2.659   2.719  20.683  0.00  0.00    +0.000 C 
ENDBRANCH  12  13
ENDBRANCH   2  12
TORSDOF 5
ENDMDL
