MODEL 1
REMARK VINA RESULT:      -8.0      0.000      0.000
REMARK  Name = 
REMARK  6 active torsions:
REMARK  status: ('A' for Active; 'I' for Inactive)
REMARK    1  A    between atoms: C_1  and  C_2
REMARK    2  A    between atoms: C_2  and  O_3
REMARK    3  A    between atoms: O_3  and  C_4
REMARK    4  A    between atoms: C_4  and  C_6
REMARK    5  A    between atoms: C_12  and  C_13
REMARK    6  A    between atoms: N_20  and  C_21
REMARK                            x       y       z     vdW  Elec       q    Type
REMARK                         _______ _______ _______ _____ _____    ______ ____
ROOT
ATOM      1  C   UNL     1       3.149   4.948  18.551  0.00  0.00    +0.000 C 
ATOM      2  C   UNL     1       4.196   4.061  17.798  0.00  0.00    +0.000 C 
ATOM      3  C   UNL     1       5.599   4.068  18.439  0.00  0.00    +0.000 C 
ATOM      4  C   UNL     1       6.413   5.053  17.598  0.00  0.00    +0.000 C 
ATOM      5  C   UNL     1       5.340   5.813  16.836  0.00  0.00    +0.000 C 
ATOM      6  C   UNL     1       4.587   6.818  17.747  0.00  0.00    +0.000 C 
ATOM      7  C   UNL     1       3.121   6.369  17.928  0.00  0.00    +0.000 C 
ATOM      8  N   UNL     1       4.463   4.677  16.477  0.00  0.00    +0.000 NA
ATOM      9  H   UNL     1       4.979   4.019  15.890  0.00  0.00    +0.000 HD
ENDROOT
BRANCH   7  10
ATOM     10  C   UNL     1       2.286   7.460  18.571  0.00  0.00    +0.000 A 
ATOM     11  C   UNL     1       1.871   8.518  17.741  0.00  0.00    +0.000 A 
ATOM     12  C   UNL     1       1.215   9.644  18.235  0.00  0.00    +0.000 A 
ATOM     13  C   UNL     1       0.992   9.704  19.613  0.00  0.00    +0.000 A 
ATOM     14  C   UNL     1       1.343   8.655  20.470  0.00  0.00    +0.000 A 
ATOM     15  C   UNL     1       0.945   9.045  21.779  0.00  0.00    +0.000 A 
ATOM     16  C   UNL     1       0.409  10.312  21.703  0.00  0.00    +0.000 A 
ATOM     17  N   UNL     1       0.450  10.704  20.393  0.00  0.00    +0.000 N 
ATOM     18  C   UNL     1       0.044  12.002  19.898  0.00  0.00    +0.000 C 
ATOM     19  C   UNL     1       1.989   7.512  19.940  0.00  0.00    +0.000 A 
ENDBRANCH   7  10
BRANCH   1  20
ATOM     20  C   UNL     1       1.827   4.215  18.489  0.00  0.00    +0.000 C 
ATOM     21  O   UNL     1       1.323   3.847  17.437  0.00  0.00    +0.000 OA
BRANCH  20  22
ATOM     22  O   UNL     1       1.210   4.174  19.695  0.00  0.00    +0.000 OA
BRANCH  22  24
ATOM     23  C   UNL     1       2.115   2.962  21.545  0.00  0.00    +0.000 C 
ATOM     24  C   UNL     1       1.176   2.904  20.354  0.00  0.00    +0.000 C 
ENDBRANCH  22  24
ENDBRANCH  20  22
ENDBRANCH   1  20
TORSDOF 4
ENDMDL
MODEL 2
REMARK VINA RESULT:      -7.9      1.113      1.402
REMARK  Name = 
REMARK  6 active torsions:
REMARK  status: ('A' for Active; 'I' for Inactive)
REMARK    1  A    between atoms: C_1  and  C_2
REMARK    2  A    between atoms: C_2  and  O_3
REMARK    3  A    between atoms: O_3  and  C_4
REMARK    4  A    between atoms: C_4  and  C_6
REMARK    5  A    between atoms: C_12  and  C_13
REMARK    6  A    between atoms: N_20  and  C_21
REMARK                            x       y       z     vdW  Elec       q    Type
REMARK                         _______ _______ _______ _____ _____    ______ ____
ROOT
ATOM      1  C   UNL     1       4.286   5.134  18.667  0.00  0.00    +0.000 C 
ATOM      2  C   UNL     1       5.327   4.341  17.809  0.00  0.00    +0.000 C 
ATOM      3  C   UNL     1       6.766   4.887  17.906  0.00  0.00    +0.000 C 
ATOM      4  C   UNL     1       6.956   5.730  16.644  0.00  0.00    +0.000 C 
ATOM      5  C   UNL     1       5.531   5.931  16.155  0.00  0.00    +0.000 C 
ATOM      6  C   UNL     1       4.759   6.953  17.030  0.00  0.00    +0.000 C 
ATOM      7  C   UNL     1       3.627   6.240  17.800  0.00  0.00    +0.000 C 
ATOM      8  N   UNL     1       5.015   4.562  16.377  0.00  0.00    +0.000 NA
ATOM      9  H   UNL     1       5.544   3.902  15.804  0.00  0.00    +0.000 HD
ENDROOT
BRANCH   7  10
ATOM     10  C   UNL     1       2.681   7.238  18.441  0.00  0.00    +0.000 A 
ATOM     11  C   UNL     1       2.242   8.306  17.636  0.00  0.00    +0.000 A 
ATOM     12  C   UNL     1       1.482   9.359  18.141  0.00  0.00    +0.000 A 
ATOM     13  C   UNL     1       1.175   9.334  19.504  0.00  0.00    +0.000 A 
ATOM     14  C   UNL     1       1.547   8.269  20.331  0.00  0.00    +0.000 A 
ATOM     15  C   UNL     1       1.047   8.564  21.630  0.00  0.00    +0.000 A 
ATOM     16  C   UNL     1       0.429   9.795  21.580  0.00  0.00    +0.000 A 
ATOM     17  N   UNL     1       0.519  10.255  20.294  0.00  0.00    +0.000 N 
ATOM     18  C   UNL     1       0.053  11.546  19.837  0.00  0.00    +0.000 C 
ATOM     19  C   UNL     1       2.302   7.201  19.789  0.00  0.00    +0.000 A 
ENDBRANCH   7  10
BRANCH   1  20
ATOM     20  C   UNL     1       3.314   4.118  19.225  0.00  0.00    +0.000 C 
ATOM     21  O   UNL     1       3.230   3.869  20.420  0.00  0.00    +0.000 OA
BRANCH  20  22
ATOM     22  O   UNL     1       2.691   3.418  18.246  0.00  0.00    +0.000 OA
BRANCH  22  24
ATOM     23  C   UNL     1       0.637   2.334  18.809  0.00  0.00    +0.000 C 
ATOM     24  C   UNL     1       2.132   2.155  18.619  0.00  0.00    +0.000 C 
ENDBRANCH  22  24
ENDBRANCH  20  22
ENDBRANCH   1  20
TORSDOF 4
ENDMDL
MODEL 3
REMARK VINA RESULT:      -7.8      1.888      3.685
REMARK  Name = 
REMARK  6 active torsions:
REMARK  status: ('A' for Active; 'I' for Inactive)
REMARK    1  A    between atoms: C_1  and  C_2
REMARK    2  A    between atoms: C_2  and  O_3
REMARK    3  A    between atoms: O_3  and  C_4
REMARK    4  A    between atoms: C_4  and  C_6
REMARK    5  A    between atoms: C_12  and  C_13
REMARK    6  A    between atoms: N_20  and  C_21
REMARK                            x       y       z     vdW  Elec       q    Type
REMARK                         _______ _______ _______ _____ _____    ______ ____
ROOT
ATOM      1  C   UNL     1       3.336   4.796  18.151  0.00  0.00    +0.000 C 
ATOM      2  C   UNL     1       3.598   3.254  18.203  0.00  0.00    +0.000 C 
ATOM      3  C   UNL     1       2.426   2.400  17.676  0.00  0.00    +0.000 C 
ATOM      4  C   UNL     1       1.691   1.921  18.929  0.00  0.00    +0.000 C 
ATOM      5  C   UNL     1       2.230   2.843  20.010  0.00  0.00    +0.000 C 
ATOM      6  C   UNL     1       1.638   4.272  19.898  0.00  0.00    +0.000 C 
ATOM      7  C   UNL     1       2.745   5.273  19.504  0.00  0.00    +0.000 C 
ATOM      8  N   UNL     1       3.659   2.840  19.624  0.00  0.00    +0.000 NA
ATOM      9  H   UNL     1       4.027   1.889  19.690  0.00  0.00    +0.000 HD
ENDROOT
BRANCH   7  10
ATOM     10  C   UNL     1       2.275   6.707  19.659  0.00  0.00    +0.000 A 
ATOM     11  C   UNL     1       1.649   7.044  20.874  0.00  0.00    +0.000 A 
ATOM     12  C   UNL     1       1.055   8.285  21.090  0.00  0.00    +0.000 A 
ATOM     13  C   UNL     1       1.081   9.202  20.036  0.00  0.00    +0.000 A 
ATOM     14  C   UNL     1       1.733   8.930  18.829  0.00  0.00    +0.000 A 
ATOM     15  C   UNL     1       1.584  10.084  18.011  0.00  0.00    +0.000 A 
ATOM     16  C   UNL     1       0.825  11.002  18.704  0.00  0.00    +0.000 A 
ATOM     17  N   UNL     1       0.520  10.457  19.922  0.00  0.00    +0.000 N 
ATOM     18  C   UNL     1      -0.322  11.074  20.924  0.00  0.00    +0.000 C 
ATOM     19  C   UNL     1       2.349   7.668  18.642  0.00  0.00    +0.000 A 
ENDBRANCH   7  10
BRANCH   1  20
ATOM     20  C   UNL     1       4.647   5.451  17.778  0.00  0.00    +0.000 C 
ATOM     21  O   UNL     1       4.828   6.007  16.704  0.00  0.00    +0.000 OA
BRANCH  20  22
ATOM     22  O   UNL     1       5.620   5.197  18.687  0.00  0.00    +0.000 OA
BRANCH  22  24
ATOM     23  C   UNL     1       7.854   6.018  18.898  0.00  0.00    +0.000 C 
ATOM     24  C   UNL     1       6.947   5.037  18.178  0.00  0.00    +0.000 C 
ENDBRANCH  22  24
ENDBRANCH  20  22
ENDBRANCH   1  20
TORSDOF 4
ENDMDL
MODEL 4
REMARK VINA RESULT:      -7.8      1.991      3.824
REMARK  Name = 
REMARK  6 active torsions:
REMARK  status: ('A' for Active; 'I' for Inactive)
REMARK    1  A    between atoms: C_1  and  C_2
REMARK    2  A    between atoms: C_2  and  O_3
REMARK    3  A    between atoms: O_3  and  C_4
REMARK    4  A    between atoms: C_4  and  C_6
REMARK    5  A    between atoms: C_12  and  C_13
REMARK    6  A    between atoms: N_20  and  C_21
REMARK                            x       y       z     vdW  Elec       q    Type
REMARK                         _______ _______ _______ _____ _____    ______ ____
ROOT
ATOM      1  C   UNL     1       3.739   4.550  18.666  0.00  0.00    +0.000 C 
ATOM      2  C   UNL     1       3.891   2.996  18.762  0.00  0.00    +0.000 C 
ATOM      3  C   UNL     1       2.921   2.213  17.854  0.00  0.00    +0.000 C 
ATOM      4  C   UNL     1       1.787   1.765  18.779  0.00  0.00    +0.000 C 
ATOM      5  C   UNL     1       1.981   2.647  20.001  0.00  0.00    +0.000 C 
ATOM      6  C   UNL     1       1.532   4.109  19.736  0.00  0.00    +0.000 C 
ATOM      7  C   UNL     1       2.756   5.050  19.758  0.00  0.00    +0.000 C 
ATOM      8  N   UNL     1       3.455   2.568  20.112  0.00  0.00    +0.000 NA
ATOM      9  H   UNL     1       3.732   1.598  20.272  0.00  0.00    +0.000 HD
ENDROOT
BRANCH   7  10
ATOM     10  C   UNL     1       2.332   6.506  19.785  0.00  0.00    +0.000 A 
ATOM     11  C   UNL     1       1.719   6.969  20.963  0.00  0.00    +0.000 A 
ATOM     12  C   UNL     1       1.166   8.244  21.067  0.00  0.00    +0.000 A 
ATOM     13  C   UNL     1       1.222   9.062  19.936  0.00  0.00    +0.000 A 
ATOM     14  C   UNL     1       1.864   8.663  18.760  0.00  0.00    +0.000 A 
ATOM     15  C   UNL     1       1.752   9.745  17.843  0.00  0.00    +0.000 A 
ATOM     16  C   UNL     1       1.023  10.745  18.451  0.00  0.00    +0.000 A 
ATOM     17  N   UNL     1       0.701  10.320  19.711  0.00  0.00    +0.000 N 
ATOM     18  C   UNL     1      -0.119  11.050  20.652  0.00  0.00    +0.000 C 
ATOM     19  C   UNL     1       2.437   7.370  18.686  0.00  0.00    +0.000 A 
ENDBRANCH   7  10
BRANCH   1  20
ATOM     20  C   UNL     1       5.131   5.134  18.767  0.00  0.00    +0.000 C 
ATOM     21  O   UNL     1       5.865   4.933  19.724  0.00  0.00    +0.000 OA
BRANCH  20  22
ATOM     22  O   UNL     1       5.384   6.022  17.775  0.00  0.00    +0.000 OA
BRANCH  22  24
ATOM     23  C   UNL     1       6.314   4.666  16.041  0.00  0.00    +0.000 C 
ATOM     24  C   UNL     1       5.159   5.567  16.436  0.00  0.00    +0.000 C 
ENDBRANCH  22  24
ENDBRANCH  20  22
ENDBRANCH   1  20
TORSDOF 4
ENDMDL
MODEL 5
REMARK VINA RESULT:      -7.8      0.516      1.522
REMARK  Name = 
REMARK  6 active torsions:
REMARK  status: ('A' for Active; 'I' for Inactive)
REMARK    1  A    between atoms: C_1  and  C_2
REMARK    2  A    between atoms: C_2  and  O_3
REMARK    3  A    between atoms: O_3  and  C_4
REMARK    4  A    between atoms: C_4  and  C_6
REMARK    5  A    between atoms: C_12  and  C_13
REMARK    6  A    between atoms: N_20  and  C_21
REMARK                            x       y       z     vdW  Elec       q    Type
REMARK                         _______ _______ _______ _____ _____    ______ ____
ROOT
ATOM      1  C   UNL     1       3.063   4.894  18.484  0.00  0.00    +0.000 C 
ATOM      2  C   UNL     1       4.016   3.955  17.672  0.00  0.00    +0.000 C 
ATOM      3  C   UNL     1       5.427   3.816  18.280  0.00  0.00    +0.000 C 
ATOM      4  C   UNL     1       6.305   4.764  17.462  0.00  0.00    +0.000 C 
ATOM      5  C   UNL     1       5.287   5.643  16.756  0.00  0.00    +0.000 C 
ATOM      6  C   UNL     1       4.639   6.668  17.725  0.00  0.00    +0.000 C 
ATOM      7  C   UNL     1       3.144   6.338  17.921  0.00  0.00    +0.000 C 
ATOM      8  N   UNL     1       4.309   4.602  16.371  0.00  0.00    +0.000 NA
ATOM      9  H   UNL     1       4.756   3.929  15.746  0.00  0.00    +0.000 HD
ENDROOT
BRANCH   7  10
ATOM     10  C   UNL     1       2.417   7.466  18.627  0.00  0.00    +0.000 A 
ATOM     11  C   UNL     1       2.230   7.332  20.015  0.00  0.00    +0.000 A 
ATOM     12  C   UNL     1       1.465   8.231  20.756  0.00  0.00    +0.000 A 
ATOM     13  C   UNL     1       0.859   9.283  20.064  0.00  0.00    +0.000 A 
ATOM     14  C   UNL     1       1.057   9.483  18.694  0.00  0.00    +0.000 A 
ATOM     15  C   UNL     1       0.322  10.649  18.339  0.00  0.00    +0.000 A 
ATOM     16  C   UNL     1      -0.328  11.102  19.466  0.00  0.00    +0.000 A 
ATOM     17  N   UNL     1      -0.004  10.266  20.500  0.00  0.00    +0.000 N 
ATOM     18  C   UNL     1      -0.536  10.356  21.842  0.00  0.00    +0.000 C 
ATOM     19  C   UNL     1       1.856   8.568  17.967  0.00  0.00    +0.000 A 
ENDBRANCH   7  10
BRANCH   1  20
ATOM     20  C   UNL     1       1.683   4.278  18.421  0.00  0.00    +0.000 C 
ATOM     21  O   UNL     1       1.116   4.029  17.367  0.00  0.00    +0.000 OA
BRANCH  20  22
ATOM     22  O   UNL     1       1.104   4.201  19.644  0.00  0.00    +0.000 OA
BRANCH  22  24
ATOM     23  C   UNL     1       1.943   3.073  21.576  0.00  0.00    +0.000 C 
ATOM     24  C   UNL     1       1.145   2.927  20.294  0.00  0.00    +0.000 C 
ENDBRANCH  22  24
ENDBRANCH  20  22
ENDBRANCH   1  20
TORSDOF 4
ENDMDL
MODEL 6
REMARK VINA RESULT:      -7.8      1.408      2.339
REMARK  Name = 
REMARK  6 active torsions:
REMARK  status: ('A' for Active; 'I' for Inactive)
REMARK    1  A    between atoms: C_1  and  C_2
REMARK    2  A    between atoms: C_2  and  O_3
REMARK    3  A    between atoms: O_3  and  C_4
REMARK    4  A    between atoms: C_4  and  C_6
REMARK    5  A    between atoms: C_12  and  C_13
REMARK    6  A    between atoms: N_20  and  C_21
REMARK                            x       y       z     vdW  Elec       q    Type
REMARK                         _______ _______ _______ _____ _____    ______ ____
ROOT
ATOM      1  C   UNL     1       4.775   4.722  18.018  0.00  0.00    +0.000 C 
ATOM      2  C   UNL     1       5.625   3.960  16.947  0.00  0.00    +0.000 C 
ATOM      3  C   UNL     1       7.064   4.495  16.792  0.00  0.00    +0.000 C 
ATOM      4  C   UNL     1       7.022   5.389  15.552  0.00  0.00    +0.000 C 
ATOM      5  C   UNL     1       5.534   5.618  15.351  0.00  0.00    +0.000 C 
ATOM      6  C   UNL     1       4.954   6.606  16.397  0.00  0.00    +0.000 C 
ATOM      7  C   UNL     1       3.978   5.867  17.338  0.00  0.00    +0.000 C 
ATOM      8  N   UNL     1       5.051   4.243  15.610  0.00  0.00    +0.000 NA
ATOM      9  H   UNL     1       5.454   3.605  14.921  0.00  0.00    +0.000 HD
ENDROOT
BRANCH   7  10
ATOM     10  C   UNL     1       3.184   6.841  18.186  0.00  0.00    +0.000 A 
ATOM     11  C   UNL     1       2.836   6.420  19.483  0.00  0.00    +0.000 A 
ATOM     12  C   UNL     1       1.997   7.164  20.311  0.00  0.00    +0.000 A 
ATOM     13  C   UNL     1       1.484   8.359  19.799  0.00  0.00    +0.000 A 
ATOM     14  C   UNL     1       1.841   8.841  18.535  0.00  0.00    +0.000 A 
ATOM     15  C   UNL     1       1.162  10.079  18.361  0.00  0.00    +0.000 A 
ATOM     16  C   UNL     1       0.389  10.302  19.480  0.00  0.00    +0.000 A 
ATOM     17  N   UNL     1       0.584   9.255  20.338  0.00  0.00    +0.000 N 
ATOM     18  C   UNL     1      -0.098   9.073  21.600  0.00  0.00    +0.000 C 
ATOM     19  C   UNL     1       2.712   8.077  17.721  0.00  0.00    +0.000 A 
ENDBRANCH   7  10
BRANCH   1  20
ATOM     20  C   UNL     1       3.913   3.688  18.709  0.00  0.00    +0.000 C 
ATOM     21  O   UNL     1       4.197   3.210  19.798  0.00  0.00    +0.000 OA
BRANCH  20  22
ATOM     22  O   UNL     1       2.909   3.247  17.912  0.00  0.00    +0.000 OA
BRANCH  22  24
ATOM     23  C   UNL     1       0.830   2.721  18.964  0.00  0.00    +0.000 C 
ATOM     24  C   UNL     1       2.126   2.159  18.411  0.00  0.00    +0.000 C 
ENDBRANCH  22  24
ENDBRANCH  20  22
ENDBRANCH   1  20
TORSDOF 4
ENDMDL
MODEL 7
REMARK VINA RESULT:      -7.7      1.915      3.324
REMARK  Name = 
REMARK  6 active torsions:
REMARK  status: ('A' for Active; 'I' for Inactive)
REMARK    1  A    between atoms: C_1  and  C_2
REMARK    2  A    between atoms: C_2  and  O_3
REMARK    3  A    between atoms: O_3  and  C_4
REMARK    4  A    between atoms: C_4  and  C_6
REMARK    5  A    between atoms: C_12  and  C_13
REMARK    6  A    between atoms: N_20  and  C_21
REMARK                            x       y       z     vdW  Elec       q    Type
REMARK                         _______ _______ _______ _____ _____    ______ ____
ROOT
ATOM      1  C   UNL     1       3.816   4.973  17.767  0.00  0.00    +0.000 C 
ATOM      2  C   UNL     1       4.455   3.547  17.856  0.00  0.00    +0.000 C 
ATOM      3  C   UNL     1       3.479   2.401  17.522  0.00  0.00    +0.000 C 
ATOM      4  C   UNL     1       3.031   1.855  18.879  0.00  0.00    +0.000 C 
ATOM      5  C   UNL     1       3.444   2.958  19.839  0.00  0.00    +0.000 C 
ATOM      6  C   UNL     1       2.508   4.192  19.739  0.00  0.00    +0.000 C 
ATOM      7  C   UNL     1       3.282   5.396  19.161  0.00  0.00    +0.000 C 
ATOM      8  N   UNL     1       4.776   3.269  19.275  0.00  0.00    +0.000 NA
ATOM      9  H   UNL     1       5.373   2.442  19.337  0.00  0.00    +0.000 HD
ENDROOT
BRANCH   7  10
ATOM     10  C   UNL     1       2.492   6.683  19.309  0.00  0.00    +0.000 A 
ATOM     11  C   UNL     1       2.415   7.516  18.178  0.00  0.00    +0.000 A 
ATOM     12  C   UNL     1       1.835   8.783  18.221  0.00  0.00    +0.000 A 
ATOM     13  C   UNL     1       1.337   9.220  19.451  0.00  0.00    +0.000 A 
ATOM     14  C   UNL     1       1.349   8.408  20.590  0.00  0.00    +0.000 A 
ATOM     15  C   UNL     1       0.743   9.158  21.636  0.00  0.00    +0.000 A 
ATOM     16  C   UNL     1       0.419  10.401  21.136  0.00  0.00    +0.000 A 
ATOM     17  N   UNL     1       0.789  10.431  19.819  0.00  0.00    +0.000 N 
ATOM     18  C   UNL     1       0.683  11.583  18.950  0.00  0.00    +0.000 C 
ATOM     19  C   UNL     1       1.924   7.116  20.515  0.00  0.00    +0.000 A 
ENDBRANCH   7  10
BRANCH   1  20
ATOM     20  C   UNL     1       4.874   5.893  17.200  0.00  0.00    +0.000 C 
ATOM     21  O   UNL     1       4.878   6.259  16.033  0.00  0.00    +0.000 OA
BRANCH  20  22
ATOM     22  O   UNL     1       5.882   6.113  18.079  0.00  0.00    +0.000 OA
BRANCH  22  24
ATOM     23  C   UNL     1       7.747   4.658  17.738  0.00  0.00    +0.000 C 
ATOM     24  C   UNL     1       7.212   6.066  17.553  0.00  0.00    +0.000 C 
ENDBRANCH  22  24
ENDBRANCH  20  22
ENDBRANCH   1  20
TORSDOF 4
ENDMDL
MODEL 8
REMARK VINA RESULT:      -7.7      1.118      1.870
REMARK  Name = 
REMARK  6 active torsions:
REMARK  status: ('A' for Active; 'I' for Inactive)
REMARK    1  A    between atoms: C_1  and  C_2
REMARK    2  A    between atoms: C_2  and  O_3
REMARK    3  A    between atoms: O_3  and  C_4
REMARK    4  A    between atoms: C_4  and  C_6
REMARK    5  A    between atoms: C_12  and  C_13
REMARK    6  A    between atoms: N_20  and  C_21
REMARK                            x       y       z     vdW  Elec       q    Type
REMARK                         _______ _______ _______ _____ _____    ______ ____
ROOT
ATOM      1  C   UNL     1       4.087   4.712  17.822  0.00  0.00    +0.000 C 
ATOM      2  C   UNL     1       5.021   4.002  16.785  0.00  0.00    +0.000 C 
ATOM      3  C   UNL     1       6.526   4.168  17.080  0.00  0.00    +0.000 C 
ATOM      4  C   UNL     1       6.992   5.285  16.145  0.00  0.00    +0.000 C 
ATOM      5  C   UNL     1       5.685   5.927  15.709  0.00  0.00    +0.000 C 
ATOM      6  C   UNL     1       5.059   6.786  16.839  0.00  0.00    +0.000 C 
ATOM      7  C   UNL     1       3.742   6.141  17.325  0.00  0.00    +0.000 C 
ATOM      8  N   UNL     1       4.888   4.700  15.485  0.00  0.00    +0.000 NA
ATOM      9  H   UNL     1       5.323   4.141  14.749  0.00  0.00    +0.000 HD
ENDROOT
BRANCH   7  10
ATOM     10  C   UNL     1       2.963   7.085  18.220  0.00  0.00    +0.000 A 
ATOM     11  C   UNL     1       2.700   6.647  19.531  0.00  0.00    +0.000 A 
ATOM     12  C   UNL     1       1.883   7.359  20.408  0.00  0.00    +0.000 A 
ATOM     13  C   UNL     1       1.303   8.538  19.931  0.00  0.00    +0.000 A 
ATOM     14  C   UNL     1       1.574   9.037  18.653  0.00  0.00    +0.000 A 
ATOM     15  C   UNL     1       0.846  10.252  18.523  0.00  0.00    +0.000 A 
ATOM     16  C   UNL     1       0.128  10.444  19.683  0.00  0.00    +0.000 A 
ATOM     17  N   UNL     1       0.404   9.400  20.523  0.00  0.00    +0.000 N 
ATOM     18  C   UNL     1      -0.202   9.191  21.820  0.00  0.00    +0.000 C 
ATOM     19  C   UNL     1       2.425   8.305  17.789  0.00  0.00    +0.000 A 
ENDBRANCH   7  10
BRANCH   1  20
ATOM     20  C   UNL     1       2.886   3.814  18.017  0.00  0.00    +0.000 C 
ATOM     21  O   UNL     1       1.925   3.819  17.260  0.00  0.00    +0.000 OA
BRANCH  20  22
ATOM     22  O   UNL     1       2.933   3.150  19.198  0.00  0.00    +0.000 OA
BRANCH  22  24
ATOM     23  C   UNL     1       1.121   3.450  20.726  0.00  0.00    +0.000 C 
ATOM     24  C   UNL     1       1.710   2.558  19.649  0.00  0.00    +0.000 C 
ENDBRANCH  22  24
ENDBRANCH  20  22
ENDBRANCH   1  20
TORSDOF 4
ENDMDL
MODEL 9
REMARK VINA RESULT:      -7.7      2.056      3.653
REMARK  Name = 
REMARK  6 active torsions:
REMARK  status: ('A' for Active; 'I' for Inactive)
REMARK    1  A    between atoms: C_1  and  C_2
REMARK    2  A    between atoms: C_2  and  O_3
REMARK    3  A    between atoms: O_3  and  C_4
REMARK    4  A    between atoms: C_4  and  C_6
REMARK    5  A    between atoms: C_12  and  C_13
REMARK    6  A    between atoms: N_20  and  C_21
REMARK                            x       y       z     vdW  Elec       q    Type
REMARK                         _______ _______ _______ _____ _____    ______ ____
ROOT
ATOM      1  C   UNL     1       3.870   4.746  18.569  0.00  0.00    +0.000 C 
ATOM      2  C   UNL     1       4.194   3.221  18.700  0.00  0.00    +0.000 C 
ATOM      3  C   UNL     1       3.345   2.318  17.782  0.00  0.00    +0.000 C 
ATOM      4  C   UNL     1       2.243   1.761  18.684  0.00  0.00    +0.000 C 
ATOM      5  C   UNL     1       2.301   2.679  19.893  0.00  0.00    +0.000 C 
ATOM      6  C   UNL     1       1.697   4.075  19.587  0.00  0.00    +0.000 C 
ATOM      7  C   UNL     1       2.806   5.149  19.624  0.00  0.00    +0.000 C 
ATOM      8  N   UNL     1       3.770   2.769  20.046  0.00  0.00    +0.000 NA
ATOM      9  H   UNL     1       4.150   1.839  20.232  0.00  0.00    +0.000 HD
ENDROOT
BRANCH   7  10
ATOM     10  C   UNL     1       2.221   6.548  19.610  0.00  0.00    +0.000 A 
ATOM     11  C   UNL     1       2.336   7.275  18.411  0.00  0.00    +0.000 A 
ATOM     12  C   UNL     1       1.960   8.613  18.309  0.00  0.00    +0.000 A 
ATOM     13  C   UNL     1       1.471   9.233  19.461  0.00  0.00    +0.000 A 
ATOM     14  C   UNL     1       1.294   8.538  20.662  0.00  0.00    +0.000 A 
ATOM     15  C   UNL     1       0.757   9.465  21.598  0.00  0.00    +0.000 A 
ATOM     16  C   UNL     1       0.660  10.691  20.976  0.00  0.00    +0.000 A 
ATOM     17  N   UNL     1       1.101  10.542  19.689  0.00  0.00    +0.000 N 
ATOM     18  C   UNL     1       1.224  11.610  18.722  0.00  0.00    +0.000 C 
ATOM     19  C   UNL     1       1.663   7.173  20.735  0.00  0.00    +0.000 A 
ENDBRANCH   7  10
BRANCH   1  20
ATOM     20  C   UNL     1       5.184   5.486  18.696  0.00  0.00    +0.000 C 
ATOM     21  O   UNL     1       5.884   5.426  19.697  0.00  0.00    +0.000 OA
BRANCH  20  22
ATOM     22  O   UNL     1       5.393   6.333  17.659  0.00  0.00    +0.000 OA
BRANCH  22  24
ATOM     23  C   UNL     1       7.474   7.500  17.525  0.00  0.00    +0.000 C 
ATOM     24  C   UNL     1       6.687   6.292  17.050  0.00  0.00    +0.000 C 
ENDBRANCH  22  24
ENDBRANCH  20  22
ENDBRANCH   1  20
TORSDOF 4
ENDMDL
