MODEL 1
REMARK VINA RESULT:      -8.0      0.000      0.000
REMARK  Name = 
REMARK  9 active torsions:
REMARK  status: ('A' for Active; 'I' for Inactive)
REMARK    1  A    between atoms: C_1  and  C_2
REMARK    2  A    between atoms: C_2  and  C_3
REMARK    3  A    between atoms: C_8  and  N_9
REMARK    4  A    between atoms: C_10  and  C_12
REMARK    5  A    between atoms: C_15  and  O_16
REMARK    6  A    between atoms: O_16  and  C_17
REMARK    7  A    between atoms: C_17  and  C_18
REMARK    8  A    between atoms: N_20  and  C_21
REMARK    9  A    between atoms: C_21  and  C_22
REMARK                            x       y       z     vdW  Elec       q    Type
REMARK                         _______ _______ _______ _____ _____    ______ ____
ROOT
ATOM      1  C   UNL     1       1.886   6.897  19.518  0.00  0.00    +0.000 A 
ATOM      2  C   UNL     1       2.200   6.409  18.247  0.00  0.00    +0.000 A 
ATOM      3  C   UNL     1       2.237   5.033  18.033  0.00  0.00    +0.000 A 
ATOM      4  C   UNL     1       2.007   4.144  19.088  0.00  0.00    +0.000 A 
ATOM      5  C   UNL     1       1.729   4.633  20.364  0.00  0.00    +0.000 A 
ATOM      6  C   UNL     1       1.687   6.012  20.583  0.00  0.00    +0.000 A 
ENDROOT
BRANCH   1   8
ATOM      7  N   UNL     1       1.426   9.090  18.628  0.00  0.00    +0.000 N 
ATOM      8  C   UNL     1       1.710   8.349  19.764  0.00  0.00    +0.000 C 
ATOM      9  O   UNL     1       1.784   8.742  20.921  0.00  0.00    +0.000 OA
ATOM     10  H   UNL     1       1.367   8.574  17.759  0.00  0.00    +0.000 HD
BRANCH   7  16
ATOM     11  C   UNL     1      -0.307  10.813  18.416  0.00  0.00    +0.000 A 
ATOM     12  C   UNL     1      -0.657  12.179  18.408  0.00  0.00    +0.000 A 
ATOM     13  C   UNL     1       0.313  13.171  18.512  0.00  0.00    +0.000 A 
ATOM     14  C   UNL     1       1.648  12.818  18.619  0.00  0.00    +0.000 A 
ATOM     15  C   UNL     1       2.012  11.472  18.646  0.00  0.00    +0.000 A 
ATOM     16  C   UNL     1       1.055  10.453  18.557  0.00  0.00    +0.000 A 
BRANCH  11  18
ATOM     17  C   UNL     1      -2.758  10.554  18.012  0.00  0.00    +0.000 C 
ATOM     18  C   UNL     1      -1.429   9.825  18.167  0.00  0.00    +0.000 C 
ENDBRANCH  11  18
ENDBRANCH   7  16
ENDBRANCH   1   8
BRANCH   4  19
ATOM     19  O   UNL     1       2.110   2.819  18.760  0.00  0.00    +0.000 OA
BRANCH  19  20
ATOM     20  C   UNL     1       3.409   2.348  18.417  0.00  0.00    +0.000 C 
BRANCH  20  21
ATOM     21  C   UNL     1       4.554   2.666  19.394  0.00  0.00    +0.000 C 
ATOM     22  O   UNL     1       4.575   2.211  20.536  0.00  0.00    +0.000 OA
ATOM     23  N   UNL     1       5.570   3.473  18.965  0.00  0.00    +0.000 N 
ATOM     24  H   UNL     1       6.213   3.757  19.693  0.00  0.00    +0.000 HD
BRANCH  23  25
ATOM     25  C   UNL     1       5.646   4.126  17.682  0.00  0.00    +0.000 C 
BRANCH  25  26
ATOM     26  C   UNL     1       6.345   5.442  17.782  0.00  0.00    +0.000 A 
ATOM     27  C   UNL     1       7.495   5.562  18.578  0.00  0.00    +0.000 A 
ATOM     28  C   UNL     1       8.165   6.785  18.657  0.00  0.00    +0.000 A 
ATOM     29  C   UNL     1       7.682   7.882  17.957  0.00  0.00    +0.000 A 
ATOM     30 CL   UNL     1       8.513   9.385  18.054  0.00  0.00    +0.000 Cl
ATOM     31  C   UNL     1       6.527   7.782  17.186  0.00  0.00    +0.000 A 
ATOM     32  C   UNL     1       5.857   6.562  17.100  0.00  0.00    +0.000 A 
ENDBRANCH  25  26
ENDBRANCH  23  25
ENDBRANCH  20  21
ENDBRANCH  19  20
ENDBRANCH   4  19
TORSDOF 8
ENDMDL
MODEL 2
REMARK VINA RESULT:      -7.8      2.180      2.817
REMARK  Name = 
REMARK  9 active torsions:
REMARK  status: ('A' for Active; 'I' for Inactive)
REMARK    1  A    between atoms: C_1  and  C_2
REMARK    2  A    between atoms: C_2  and  C_3
REMARK    3  A    between atoms: C_8  and  N_9
REMARK    4  A    between atoms: C_10  and  C_12
REMARK    5  A    between atoms: C_15  and  O_16
REMARK    6  A    between atoms: O_16  and  C_17
REMARK    7  A    between atoms: C_17  and  C_18
REMARK    8  A    between atoms: N_20  and  C_21
REMARK    9  A    between atoms: C_21  and  C_22
REMARK                            x       y       z     vdW  Elec       q    Type
REMARK                         _______ _______ _______ _____ _____    ______ ____
ROOT
ATOM      1  C   UNL     1       1.865   8.219  18.819  0.00  0.00    +0.000 A 
ATOM      2  C   UNL     1       1.760   7.884  20.171  0.00  0.00    +0.000 A 
ATOM      3  C   UNL     1       2.033   6.578  20.575  0.00  0.00    +0.000 A 
ATOM      4  C   UNL     1       2.363   5.599  19.634  0.00  0.00    +0.000 A 
ATOM      5  C   UNL     1       2.431   5.927  18.280  0.00  0.00    +0.000 A 
ATOM      6  C   UNL     1       2.164   7.234  17.870  0.00  0.00    +0.000 A 
ENDROOT
BRANCH   1   8
ATOM      7  N   UNL     1       1.056  10.448  19.256  0.00  0.00    +0.000 N 
ATOM      8  C   UNL     1       1.710   9.620  18.358  0.00  0.00    +0.000 C 
ATOM      9  O   UNL     1       2.202   9.920  17.277  0.00  0.00    +0.000 OA
ATOM     10  H   UNL     1       0.755  10.019  20.123  0.00  0.00    +0.000 HD
BRANCH   7  16
ATOM     11  C   UNL     1      -0.402  12.415  19.126  0.00  0.00    +0.000 A 
ATOM     12  C   UNL     1      -0.538  13.819  19.109  0.00  0.00    +0.000 A 
ATOM     13  C   UNL     1       0.577  14.650  19.117  0.00  0.00    +0.000 A 
ATOM     14  C   UNL     1       1.846  14.096  19.136  0.00  0.00    +0.000 A 
ATOM     15  C   UNL     1       2.001  12.710  19.171  0.00  0.00    +0.000 A 
ATOM     16  C   UNL     1       0.895  11.851  19.178  0.00  0.00    +0.000 A 
BRANCH  11  18
ATOM     17  C   UNL     1      -2.039  11.432  17.516  0.00  0.00    +0.000 C 
ATOM     18  C   UNL     1      -1.678  11.610  18.985  0.00  0.00    +0.000 C 
ENDBRANCH  11  18
ENDBRANCH   7  16
ENDBRANCH   1   8
BRANCH   4  19
ATOM     19  O   UNL     1       2.568   4.348  20.150  0.00  0.00    +0.000 OA
BRANCH  19  20
ATOM     20  C   UNL     1       3.184   3.397  19.287  0.00  0.00    +0.000 C 
BRANCH  20  21
ATOM     21  C   UNL     1       4.605   2.934  19.649  0.00  0.00    +0.000 C 
ATOM     22  O   UNL     1       4.806   1.925  20.322  0.00  0.00    +0.000 OA
ATOM     23  N   UNL     1       5.663   3.673  19.200  0.00  0.00    +0.000 N 
ATOM     24  H   UNL     1       6.558   3.400  19.588  0.00  0.00    +0.000 HD
BRANCH  23  25
ATOM     25  C   UNL     1       5.578   4.908  18.460  0.00  0.00    +0.000 C 
BRANCH  25  26
ATOM     26  C   UNL     1       5.887   4.697  17.014  0.00  0.00    +0.000 A 
ATOM     27  C   UNL     1       4.899   4.191  16.156  0.00  0.00    +0.000 A 
ATOM     28  C   UNL     1       5.177   4.013  14.799  0.00  0.00    +0.000 A 
ATOM     29  C   UNL     1       6.436   4.327  14.306  0.00  0.00    +0.000 A 
ATOM     30 CL   UNL     1       6.772   4.110  12.633  0.00  0.00    +0.000 Cl
ATOM     31  C   UNL     1       7.432   4.803  15.153  0.00  0.00    +0.000 A 
ATOM     32  C   UNL     1       7.160   4.987  16.508  0.00  0.00    +0.000 A 
ENDBRANCH  25  26
ENDBRANCH  23  25
ENDBRANCH  20  21
ENDBRANCH  19  20
ENDBRANCH   4  19
TORSDOF 8
ENDMDL
MODEL 3
REMARK VINA RESULT:      -7.7      1.779      2.007
REMARK  Name = 
REMARK  9 active torsions:
REMARK  status: ('A' for Active; 'I' for Inactive)
REMARK    1  A    between atoms: C_1  and  C_2
REMARK    2  A    between atoms: C_2  and  C_3
REMARK    3  A    between atoms: C_8  and  N_9
REMARK    4  A    between atoms: C_10  and  C_12
REMARK    5  A    between atoms: C_15  and  O_16
REMARK    6  A    between atoms: O_16  and  C_17
REMARK    7  A    between atoms: C_17  and  C_18
REMARK    8  A    between atoms: N_20  and  C_21
REMARK    9  A    between atoms: C_21  and  C_22
REMARK                            x       y       z     vdW  Elec       q    Type
REMARK                         _______ _______ _______ _____ _____    ______ ____
ROOT
ATOM      1  C   UNL     1       1.744   7.241  20.291  0.00  0.00    +0.000 A 
ATOM      2  C   UNL     1       2.389   7.411  19.063  0.00  0.00    +0.000 A 
ATOM      3  C   UNL     1       2.648   6.298  18.267  0.00  0.00    +0.000 A 
ATOM      4  C   UNL     1       2.308   5.015  18.709  0.00  0.00    +0.000 A 
ATOM      5  C   UNL     1       1.698   4.844  19.951  0.00  0.00    +0.000 A 
ATOM      6  C   UNL     1       1.432   5.957  20.751  0.00  0.00    +0.000 A 
ENDROOT
BRANCH   1   8
ATOM      7  N   UNL     1       0.300   9.152  20.572  0.00  0.00    +0.000 N 
ATOM      8  C   UNL     1       1.334   8.405  21.114  0.00  0.00    +0.000 C 
ATOM      9  O   UNL     1       1.898   8.568  22.188  0.00  0.00    +0.000 OA
ATOM     10  H   UNL     1      -0.065   8.832  19.683  0.00  0.00    +0.000 HD
BRANCH   7  16
ATOM     11  C   UNL     1      -0.925  11.269  20.390  0.00  0.00    +0.000 A 
ATOM     12  C   UNL     1      -1.680  12.284  21.012  0.00  0.00    +0.000 A 
ATOM     13  C   UNL     1      -1.904  12.275  22.385  0.00  0.00    +0.000 A 
ATOM     14  C   UNL     1      -1.373  11.258  23.161  0.00  0.00    +0.000 A 
ATOM     15  C   UNL     1      -0.638  10.236  22.562  0.00  0.00    +0.000 A 
ATOM     16  C   UNL     1      -0.410  10.213  21.180  0.00  0.00    +0.000 A 
BRANCH  11  18
ATOM     17  C   UNL     1      -1.844  11.039  18.079  0.00  0.00    +0.000 C 
ATOM     18  C   UNL     1      -0.636  11.448  18.913  0.00  0.00    +0.000 C 
ENDBRANCH  11  18
ENDBRANCH   7  16
ENDBRANCH   1   8
BRANCH   4  19
ATOM     19  O   UNL     1       2.650   4.001  17.855  0.00  0.00    +0.000 OA
BRANCH  19  20
ATOM     20  C   UNL     1       3.069   2.779  18.454  0.00  0.00    +0.000 C 
BRANCH  20  21
ATOM     21  C   UNL     1       4.259   2.844  19.426  0.00  0.00    +0.000 C 
ATOM     22  O   UNL     1       4.172   2.440  20.584  0.00  0.00    +0.000 OA
ATOM     23  N   UNL     1       5.440   3.364  18.974  0.00  0.00    +0.000 N 
ATOM     24  H   UNL     1       6.135   3.509  19.696  0.00  0.00    +0.000 HD
BRANCH  23  25
ATOM     25  C   UNL     1       5.669   3.931  17.669  0.00  0.00    +0.000 C 
BRANCH  25  26
ATOM     26  C   UNL     1       6.353   5.255  17.765  0.00  0.00    +0.000 A 
ATOM     27  C   UNL     1       7.423   5.425  18.657  0.00  0.00    +0.000 A 
ATOM     28  C   UNL     1       8.080   6.654  18.733  0.00  0.00    +0.000 A 
ATOM     29  C   UNL     1       7.664   7.710  17.934  0.00  0.00    +0.000 A 
ATOM     30 CL   UNL     1       8.479   9.221  18.028  0.00  0.00    +0.000 Cl
ATOM     31  C   UNL     1       6.586   7.561  17.065  0.00  0.00    +0.000 A 
ATOM     32  C   UNL     1       5.929   6.334  16.981  0.00  0.00    +0.000 A 
ENDBRANCH  25  26
ENDBRANCH  23  25
ENDBRANCH  20  21
ENDBRANCH  19  20
ENDBRANCH   4  19
TORSDOF 8
ENDMDL
MODEL 4
REMARK VINA RESULT:      -7.7      3.638      8.940
REMARK  Name = 
REMARK  9 active torsions:
REMARK  status: ('A' for Active; 'I' for Inactive)
REMARK    1  A    between atoms: C_1  and  C_2
REMARK    2  A    between atoms: C_2  and  C_3
REMARK    3  A    between atoms: C_8  and  N_9
REMARK    4  A    between atoms: C_10  and  C_12
REMARK    5  A    between atoms: C_15  and  O_16
REMARK    6  A    between atoms: O_16  and  C_17
REMARK    7  A    between atoms: C_17  and  C_18
REMARK    8  A    between atoms: N_20  and  C_21
REMARK    9  A    between atoms: C_21  and  C_22
REMARK                            x       y       z     vdW  Elec       q    Type
REMARK                         _______ _______ _______ _____ _____    ______ ____
ROOT
ATOM      1  C   UNL     1       1.556   8.630  19.514  0.00  0.00    +0.000 A 
ATOM      2  C   UNL     1       0.888   9.856  19.445  0.00  0.00    +0.000 A 
ATOM      3  C   UNL     1       0.247  10.350  20.579  0.00  0.00    +0.000 A 
ATOM      4  C   UNL     1       0.230   9.608  21.764  0.00  0.00    +0.000 A 
ATOM      5  C   UNL     1       0.866   8.368  21.820  0.00  0.00    +0.000 A 
ATOM      6  C   UNL     1       1.514   7.871  20.688  0.00  0.00    +0.000 A 
ENDROOT
BRANCH   1   8
ATOM      7  N   UNL     1       3.091   6.982  18.653  0.00  0.00    +0.000 N 
ATOM      8  C   UNL     1       2.358   8.125  18.373  0.00  0.00    +0.000 C 
ATOM      9  O   UNL     1       2.267   8.719  17.307  0.00  0.00    +0.000 OA
ATOM     10  H   UNL     1       3.006   6.614  19.592  0.00  0.00    +0.000 HD
BRANCH   7  16
ATOM     11  C   UNL     1       3.609   4.783  17.700  0.00  0.00    +0.000 A 
ATOM     12  C   UNL     1       4.305   4.014  16.745  0.00  0.00    +0.000 A 
ATOM     13  C   UNL     1       5.210   4.603  15.868  0.00  0.00    +0.000 A 
ATOM     14  C   UNL     1       5.440   5.968  15.933  0.00  0.00    +0.000 A 
ATOM     15  C   UNL     1       4.748   6.748  16.859  0.00  0.00    +0.000 A 
ATOM     16  C   UNL     1       3.821   6.181  17.744  0.00  0.00    +0.000 A 
BRANCH  11  18
ATOM     17  C   UNL     1       1.339   3.838  18.137  0.00  0.00    +0.000 C 
ATOM     18  C   UNL     1       2.748   4.019  18.686  0.00  0.00    +0.000 C 
ENDBRANCH  11  18
ENDBRANCH   7  16
ENDBRANCH   1   8
BRANCH   4  19
ATOM     19  O   UNL     1      -0.466  10.182  22.794  0.00  0.00    +0.000 OA
BRANCH  19  20
ATOM     20  C   UNL     1      -0.792  11.560  22.651  0.00  0.00    +0.000 C 
BRANCH  20  21
ATOM     21  C   UNL     1      -2.278  11.947  22.756  0.00  0.00    +0.000 C 
ATOM     22  O   UNL     1      -2.987  11.546  23.677  0.00  0.00    +0.000 OA
ATOM     23  N   UNL     1      -2.807  12.761  21.795  0.00  0.00    +0.000 N 
ATOM     24  H   UNL     1      -3.813  12.862  21.841  0.00  0.00    +0.000 HD
BRANCH  23  25
ATOM     25  C   UNL     1      -2.116  13.253  20.629  0.00  0.00    +0.000 C 
BRANCH  25  26
ATOM     26  C   UNL     1      -2.543  12.524  19.397  0.00  0.00    +0.000 A 
ATOM     27  C   UNL     1      -3.879  12.119  19.254  0.00  0.00    +0.000 A 
ATOM     28  C   UNL     1      -4.287  11.458  18.093  0.00  0.00    +0.000 A 
ATOM     29  C   UNL     1      -3.365  11.192  17.091  0.00  0.00    +0.000 A 
ATOM     30 CL   UNL     1      -3.874  10.381  15.662  0.00  0.00    +0.000 Cl
ATOM     31  C   UNL     1      -2.032  11.564  17.234  0.00  0.00    +0.000 A 
ATOM     32  C   UNL     1      -1.619  12.229  18.388  0.00  0.00    +0.000 A 
ENDBRANCH  25  26
ENDBRANCH  23  25
ENDBRANCH  20  21
ENDBRANCH  19  20
ENDBRANCH   4  19
TORSDOF 8
ENDMDL
MODEL 5
REMARK VINA RESULT:      -7.6      3.232      9.016
REMARK  Name = 
REMARK  9 active torsions:
REMARK  status: ('A' for Active; 'I' for Inactive)
REMARK    1  A    between atoms: C_1  and  C_2
REMARK    2  A    between atoms: C_2  and  C_3
REMARK    3  A    between atoms: C_8  and  N_9
REMARK    4  A    between atoms: C_10  and  C_12
REMARK    5  A    between atoms: C_15  and  O_16
REMARK    6  A    between atoms: O_16  and  C_17
REMARK    7  A    between atoms: C_17  and  C_18
REMARK    8  A    between atoms: N_20  and  C_21
REMARK    9  A    between atoms: C_21  and  C_22
REMARK                            x       y       z     vdW  Elec       q    Type
REMARK                         _______ _______ _______ _____ _____    ______ ____
ROOT
ATOM      1  C   UNL     1       2.407   7.322  18.818  0.00  0.00    +0.000 A 
ATOM      2  C   UNL     1       2.017   7.117  20.144  0.00  0.00    +0.000 A 
ATOM      3  C   UNL     1       1.217   8.067  20.776  0.00  0.00    +0.000 A 
ATOM      4  C   UNL     1       0.845   9.238  20.109  0.00  0.00    +0.000 A 
ATOM      5  C   UNL     1       1.266   9.458  18.798  0.00  0.00    +0.000 A 
ATOM      6  C   UNL     1       2.063   8.507  18.158  0.00  0.00    +0.000 A 
ENDROOT
BRANCH   1   8
ATOM      7  N   UNL     1       4.297   6.741  17.438  0.00  0.00    +0.000 N 
ATOM      8  C   UNL     1       3.149   6.282  18.063  0.00  0.00    +0.000 C 
ATOM      9  O   UNL     1       2.716   5.138  18.099  0.00  0.00    +0.000 OA
ATOM     10  H   UNL     1       4.511   7.723  17.558  0.00  0.00    +0.000 HD
BRANCH   7  16
ATOM     11  C   UNL     1       6.283   5.304  17.536  0.00  0.00    +0.000 A 
ATOM     12  C   UNL     1       7.223   4.497  16.864  0.00  0.00    +0.000 A 
ATOM     13  C   UNL     1       7.203   4.370  15.479  0.00  0.00    +0.000 A 
ATOM     14  C   UNL     1       6.249   5.050  14.740  0.00  0.00    +0.000 A 
ATOM     15  C   UNL     1       5.299   5.839  15.388  0.00  0.00    +0.000 A 
ATOM     16  C   UNL     1       5.288   5.973  16.783  0.00  0.00    +0.000 A 
BRANCH  11  18
ATOM     17  C   UNL     1       7.928   5.816  19.344  0.00  0.00    +0.000 C 
ATOM     18  C   UNL     1       6.478   5.471  19.029  0.00  0.00    +0.000 C 
ENDBRANCH  11  18
ENDBRANCH   7  16
ENDBRANCH   1   8
BRANCH   4  19
ATOM     19  O   UNL     1       0.094  10.110  20.849  0.00  0.00    +0.000 OA
BRANCH  19  20
ATOM     20  C   UNL     1       0.721  11.335  21.218  0.00  0.00    +0.000 C 
BRANCH  20  21
ATOM     21  C   UNL     1       0.590  12.515  20.241  0.00  0.00    +0.000 C 
ATOM     22  O   UNL     1       1.533  13.269  20.007  0.00  0.00    +0.000 OA
ATOM     23  N   UNL     1      -0.611  12.717  19.622  0.00  0.00    +0.000 N 
ATOM     24  H   UNL     1      -0.675  13.585  19.106  0.00  0.00    +0.000 HD
BRANCH  23  25
ATOM     25  C   UNL     1      -1.816  11.957  19.847  0.00  0.00    +0.000 C 
BRANCH  25  26
ATOM     26  C   UNL     1      -2.379  11.440  18.564  0.00  0.00    +0.000 A 
ATOM     27  C   UNL     1      -3.697  11.759  18.202  0.00  0.00    +0.000 A 
ATOM     28  C   UNL     1      -4.219  11.295  16.992  0.00  0.00    +0.000 A 
ATOM     29  C   UNL     1      -3.435  10.509  16.158  0.00  0.00    +0.000 A 
ATOM     30 CL   UNL     1      -4.082   9.945  14.668  0.00  0.00    +0.000 Cl
ATOM     31  C   UNL     1      -2.137  10.164  16.521  0.00  0.00    +0.000 A 
ATOM     32  C   UNL     1      -1.608  10.627  17.725  0.00  0.00    +0.000 A 
ENDBRANCH  25  26
ENDBRANCH  23  25
ENDBRANCH  20  21
ENDBRANCH  19  20
ENDBRANCH   4  19
TORSDOF 8
ENDMDL
MODEL 6
REMARK VINA RESULT:      -7.6      3.374      9.271
REMARK  Name = 
REMARK  9 active torsions:
REMARK  status: ('A' for Active; 'I' for Inactive)
REMARK    1  A    between atoms: C_1  and  C_2
REMARK    2  A    between atoms: C_2  and  C_3
REMARK    3  A    between atoms: C_8  and  N_9
REMARK    4  A    between atoms: C_10  and  C_12
REMARK    5  A    between atoms: C_15  and  O_16
REMARK    6  A    between atoms: O_16  and  C_17
REMARK    7  A    between atoms: C_17  and  C_18
REMARK    8  A    between atoms: N_20  and  C_21
REMARK    9  A    between atoms: C_21  and  C_22
REMARK                            x       y       z     vdW  Elec       q    Type
REMARK                         _______ _______ _______ _____ _____    ______ ____
ROOT
ATOM      1  C   UNL     1       1.559   8.446  19.579  0.00  0.00    +0.000 A 
ATOM      2  C   UNL     1       1.723   9.245  18.445  0.00  0.00    +0.000 A 
ATOM      3  C   UNL     1       1.498  10.617  18.537  0.00  0.00    +0.000 A 
ATOM      4  C   UNL     1       1.067  11.186  19.740  0.00  0.00    +0.000 A 
ATOM      5  C   UNL     1       0.869  10.381  20.861  0.00  0.00    +0.000 A 
ATOM      6  C   UNL     1       1.098   9.006  20.776  0.00  0.00    +0.000 A 
ENDROOT
BRANCH   1   8
ATOM      7  N   UNL     1       2.197   6.500  18.305  0.00  0.00    +0.000 N 
ATOM      8  C   UNL     1       1.910   7.004  19.563  0.00  0.00    +0.000 C 
ATOM      9  O   UNL     1       1.957   6.420  20.638  0.00  0.00    +0.000 OA
ATOM     10  H   UNL     1       2.140   7.157  17.536  0.00  0.00    +0.000 HD
BRANCH   7  16
ATOM     11  C   UNL     1       4.075   5.068  17.644  0.00  0.00    +0.000 A 
ATOM     12  C   UNL     1       4.575   3.775  17.386  0.00  0.00    +0.000 A 
ATOM     13  C   UNL     1       3.746   2.660  17.435  0.00  0.00    +0.000 A 
ATOM     14  C   UNL     1       2.403   2.816  17.736  0.00  0.00    +0.000 A 
ATOM     15  C   UNL     1       1.893   4.084  18.012  0.00  0.00    +0.000 A 
ATOM     16  C   UNL     1       2.709   5.222  17.983  0.00  0.00    +0.000 A 
BRANCH  11  18
ATOM     17  C   UNL     1       5.073   6.630  15.969  0.00  0.00    +0.000 C 
ATOM     18  C   UNL     1       5.038   6.221  17.436  0.00  0.00    +0.000 C 
ENDBRANCH  11  18
ENDBRANCH   7  16
ENDBRANCH   1   8
BRANCH   4  19
ATOM     19  O   UNL     1       0.842  12.535  19.692  0.00  0.00    +0.000 OA
BRANCH  19  20
ATOM     20  C   UNL     1      -0.039  13.068  20.676  0.00  0.00    +0.000 C 
BRANCH  20  21
ATOM     21  C   UNL     1      -1.161  13.999  20.186  0.00  0.00    +0.000 C 
ATOM     22  O   UNL     1      -1.031  15.222  20.179  0.00  0.00    +0.000 OA
ATOM     23  N   UNL     1      -2.327  13.437  19.748  0.00  0.00    +0.000 N 
ATOM     24  H   UNL     1      -3.072  14.101  19.575  0.00  0.00    +0.000 HD
BRANCH  23  25
ATOM     25  C   UNL     1      -2.644  12.030  19.760  0.00  0.00    +0.000 C 
BRANCH  25  26
ATOM     26  C   UNL     1      -2.958  11.533  18.387  0.00  0.00    +0.000 A 
ATOM     27  C   UNL     1      -2.002  10.789  17.679  0.00  0.00    +0.000 A 
ATOM     28  C   UNL     1      -2.301  10.302  16.405  0.00  0.00    +0.000 A 
ATOM     29  C   UNL     1      -3.539  10.568  15.837  0.00  0.00    +0.000 A 
ATOM     30 CL   UNL     1      -3.903   9.963  14.269  0.00  0.00    +0.000 Cl
ATOM     31  C   UNL     1      -4.485  11.329  16.519  0.00  0.00    +0.000 A 
ATOM     32  C   UNL     1      -4.195  11.813  17.794  0.00  0.00    +0.000 A 
ENDBRANCH  25  26
ENDBRANCH  23  25
ENDBRANCH  20  21
ENDBRANCH  19  20
ENDBRANCH   4  19
TORSDOF 8
ENDMDL
MODEL 7
REMARK VINA RESULT:      -7.6      1.482      1.951
REMARK  Name = 
REMARK  9 active torsions:
REMARK  status: ('A' for Active; 'I' for Inactive)
REMARK    1  A    between atoms: C_1  and  C_2
REMARK    2  A    between atoms: C_2  and  C_3
REMARK    3  A    between atoms: C_8  and  N_9
REMARK    4  A    between atoms: C_10  and  C_12
REMARK    5  A    between atoms: C_15  and  O_16
REMARK    6  A    between atoms: O_16  and  C_17
REMARK    7  A    between atoms: C_17  and  C_18
REMARK    8  A    between atoms: N_20  and  C_21
REMARK    9  A    between atoms: C_21  and  C_22
REMARK                            x       y       z     vdW  Elec       q    Type
REMARK                         _______ _______ _______ _____ _____    ______ ____
ROOT
ATOM      1  C   UNL     1       2.014   6.509  18.924  0.00  0.00    +0.000 A 
ATOM      2  C   UNL     1       2.099   5.879  20.169  0.00  0.00    +0.000 A 
ATOM      3  C   UNL     1       2.181   4.489  20.227  0.00  0.00    +0.000 A 
ATOM      4  C   UNL     1       2.133   3.726  19.056  0.00  0.00    +0.000 A 
ATOM      5  C   UNL     1       2.012   4.355  17.818  0.00  0.00    +0.000 A 
ATOM      6  C   UNL     1       1.934   5.748  17.753  0.00  0.00    +0.000 A 
ENDROOT
BRANCH   1   8
ATOM      7  N   UNL     1       1.095   8.647  19.559  0.00  0.00    +0.000 N 
ATOM      8  C   UNL     1       2.053   7.987  18.805  0.00  0.00    +0.000 C 
ATOM      9  O   UNL     1       2.932   8.477  18.108  0.00  0.00    +0.000 OA
ATOM     10  H   UNL     1       0.476   8.062  20.107  0.00  0.00    +0.000 HD
BRANCH   7  16
ATOM     11  C   UNL     1       0.309  10.524  20.927  0.00  0.00    +0.000 A 
ATOM     12  C   UNL     1       0.256  11.915  21.153  0.00  0.00    +0.000 A 
ATOM     13  C   UNL     1       0.826  12.811  20.256  0.00  0.00    +0.000 A 
ATOM     14  C   UNL     1       1.452  12.337  19.115  0.00  0.00    +0.000 A 
ATOM     15  C   UNL     1       1.530  10.964  18.883  0.00  0.00    +0.000 A 
ATOM     16  C   UNL     1       0.977  10.039  19.777  0.00  0.00    +0.000 A 
BRANCH  11  18
ATOM     17  C   UNL     1       0.257   9.601  23.247  0.00  0.00    +0.000 C 
ATOM     18  C   UNL     1      -0.455   9.650  21.902  0.00  0.00    +0.000 C 
ENDBRANCH  11  18
ENDBRANCH   7  16
ENDBRANCH   1   8
BRANCH   4  19
ATOM     19  O   UNL     1       2.182   2.371  19.248  0.00  0.00    +0.000 OA
BRANCH  19  20
ATOM     20  C   UNL     1       3.441   1.743  19.026  0.00  0.00    +0.000 C 
BRANCH  20  21
ATOM     21  C   UNL     1       4.631   2.232  19.869  0.00  0.00    +0.000 C 
ATOM     22  O   UNL     1       4.834   1.813  21.006  0.00  0.00    +0.000 OA
ATOM     23  N   UNL     1       5.477   3.157  19.324  0.00  0.00    +0.000 N 
ATOM     24  H   UNL     1       6.150   3.541  19.974  0.00  0.00    +0.000 HD
BRANCH  23  25
ATOM     25  C   UNL     1       5.327   3.783  18.033  0.00  0.00    +0.000 C 
BRANCH  25  26
ATOM     26  C   UNL     1       6.051   5.088  17.976  0.00  0.00    +0.000 A 
ATOM     27  C   UNL     1       7.213   5.276  18.740  0.00  0.00    +0.000 A 
ATOM     28  C   UNL     1       7.905   6.487  18.671  0.00  0.00    +0.000 A 
ATOM     29  C   UNL     1       7.432   7.506  17.856  0.00  0.00    +0.000 A 
ATOM     30 CL   UNL     1       8.291   8.994  17.772  0.00  0.00    +0.000 Cl
ATOM     31  C   UNL     1       6.266   7.340  17.115  0.00  0.00    +0.000 A 
ATOM     32  C   UNL     1       5.573   6.132  17.176  0.00  0.00    +0.000 A 
ENDBRANCH  25  26
ENDBRANCH  23  25
ENDBRANCH  20  21
ENDBRANCH  19  20
ENDBRANCH   4  19
TORSDOF 8
ENDMDL
MODEL 8
REMARK VINA RESULT:      -7.6      3.190      4.717
REMARK  Name = 
REMARK  9 active torsions:
REMARK  status: ('A' for Active; 'I' for Inactive)
REMARK    1  A    between atoms: C_1  and  C_2
REMARK    2  A    between atoms: C_2  and  C_3
REMARK    3  A    between atoms: C_8  and  N_9
REMARK    4  A    between atoms: C_10  and  C_12
REMARK    5  A    between atoms: C_15  and  O_16
REMARK    6  A    between atoms: O_16  and  C_17
REMARK    7  A    between atoms: C_17  and  C_18
REMARK    8  A    between atoms: N_20  and  C_21
REMARK    9  A    between atoms: C_21  and  C_22
REMARK                            x       y       z     vdW  Elec       q    Type
REMARK                         _______ _______ _______ _____ _____    ______ ____
ROOT
ATOM      1  C   UNL     1       2.916   7.217  19.038  0.00  0.00    +0.000 A 
ATOM      2  C   UNL     1       4.017   6.376  19.219  0.00  0.00    +0.000 A 
ATOM      3  C   UNL     1       4.955   6.248  18.196  0.00  0.00    +0.000 A 
ATOM      4  C   UNL     1       4.775   6.917  16.982  0.00  0.00    +0.000 A 
ATOM      5  C   UNL     1       3.656   7.727  16.790  0.00  0.00    +0.000 A 
ATOM      6  C   UNL     1       2.716   7.862  17.813  0.00  0.00    +0.000 A 
ENDROOT
BRANCH   1   8
ATOM      7  N   UNL     1       1.788   8.827  20.435  0.00  0.00    +0.000 N 
ATOM      8  C   UNL     1       1.961   7.484  20.142  0.00  0.00    +0.000 C 
ATOM      9  O   UNL     1       1.394   6.524  20.647  0.00  0.00    +0.000 OA
ATOM     10  H   UNL     1       2.323   9.480  19.875  0.00  0.00    +0.000 HD
BRANCH   7  16
ATOM     11  C   UNL     1      -0.127  10.310  20.821  0.00  0.00    +0.000 A 
ATOM     12  C   UNL     1      -1.095  10.825  21.707  0.00  0.00    +0.000 A 
ATOM     13  C   UNL     1      -1.096  10.478  23.053  0.00  0.00    +0.000 A 
ATOM     14  C   UNL     1      -0.127   9.617  23.541  0.00  0.00    +0.000 A 
ATOM     15  C   UNL     1       0.828   9.082  22.678  0.00  0.00    +0.000 A 
ATOM     16  C   UNL     1       0.843   9.405  21.314  0.00  0.00    +0.000 A 
BRANCH  11  18
ATOM     17  C   UNL     1      -1.566  10.889  18.864  0.00  0.00    +0.000 C 
ATOM     18  C   UNL     1      -0.144  10.855  19.407  0.00  0.00    +0.000 C 
ENDBRANCH  11  18
ENDBRANCH   7  16
ENDBRANCH   1   8
BRANCH   4  19
ATOM     19  O   UNL     1       5.743   6.679  16.043  0.00  0.00    +0.000 OA
BRANCH  19  20
ATOM     20  C   UNL     1       5.679   5.427  15.367  0.00  0.00    +0.000 C 
BRANCH  20  21
ATOM     21  C   UNL     1       6.321   4.216  16.065  0.00  0.00    +0.000 C 
ATOM     22  O   UNL     1       7.539   4.118  16.200  0.00  0.00    +0.000 OA
ATOM     23  N   UNL     1       5.502   3.233  16.545  0.00  0.00    +0.000 N 
ATOM     24  H   UNL     1       5.988   2.403  16.863  0.00  0.00    +0.000 HD
BRANCH  23  25
ATOM     25  C   UNL     1       4.068   3.182  16.402  0.00  0.00    +0.000 C 
BRANCH  25  26
ATOM     26  C   UNL     1       3.393   3.099  17.732  0.00  0.00    +0.000 A 
ATOM     27  C   UNL     1       2.054   3.499  17.860  0.00  0.00    +0.000 A 
ATOM     28  C   UNL     1       1.412   3.401  19.097  0.00  0.00    +0.000 A 
ATOM     29  C   UNL     1       2.107   2.920  20.198  0.00  0.00    +0.000 A 
ATOM     30 CL   UNL     1       1.310   2.798  21.718  0.00  0.00    +0.000 Cl
ATOM     31  C   UNL     1       3.443   2.547  20.088  0.00  0.00    +0.000 A 
ATOM     32  C   UNL     1       4.088   2.638  18.856  0.00  0.00    +0.000 A 
ENDBRANCH  25  26
ENDBRANCH  23  25
ENDBRANCH  20  21
ENDBRANCH  19  20
ENDBRANCH   4  19
TORSDOF 8
ENDMDL
MODEL 9
REMARK VINA RESULT:      -7.5      3.337      9.083
REMARK  Name = 
REMARK  9 active torsions:
REMARK  status: ('A' for Active; 'I' for Inactive)
REMARK    1  A    between atoms: C_1  and  C_2
REMARK    2  A    between atoms: C_2  and  C_3
REMARK    3  A    between atoms: C_8  and  N_9
REMARK    4  A    between atoms: C_10  and  C_12
REMARK    5  A    between atoms: C_15  and  O_16
REMARK    6  A    between atoms: O_16  and  C_17
REMARK    7  A    between atoms: C_17  and  C_18
REMARK    8  A    between atoms: N_20  and  C_21
REMARK    9  A    between atoms: C_21  and  C_22
REMARK                            x       y       z     vdW  Elec       q    Type
REMARK                         _______ _______ _______ _____ _____    ______ ____
ROOT
ATOM      1  C   UNL     1       2.365   7.576  19.159  0.00  0.00    +0.000 A 
ATOM      2  C   UNL     1       2.046   8.564  18.223  0.00  0.00    +0.000 A 
ATOM      3  C   UNL     1       1.254   9.642  18.610  0.00  0.00    +0.000 A 
ATOM      4  C   UNL     1       0.743   9.716  19.910  0.00  0.00    +0.000 A 
ATOM      5  C   UNL     1       1.033   8.711  20.832  0.00  0.00    +0.000 A 
ATOM      6  C   UNL     1       1.830   7.631  20.451  0.00  0.00    +0.000 A 
ENDROOT
BRANCH   1   8
ATOM      7  N   UNL     1       3.740   6.473  17.514  0.00  0.00    +0.000 N 
ATOM      8  C   UNL     1       3.308   6.479  18.830  0.00  0.00    +0.000 C 
ATOM      9  O   UNL     1       3.643   5.728  19.737  0.00  0.00    +0.000 OA
ATOM     10  H   UNL     1       3.375   7.207  16.919  0.00  0.00    +0.000 HD
BRANCH   7  16
ATOM     11  C   UNL     1       4.466   4.317  16.598  0.00  0.00    +0.000 A 
ATOM     12  C   UNL     1       5.467   3.546  15.971  0.00  0.00    +0.000 A 
ATOM     13  C   UNL     1       6.725   4.078  15.708  0.00  0.00    +0.000 A 
ATOM     14  C   UNL     1       7.008   5.385  16.071  0.00  0.00    +0.000 A 
ATOM     15  C   UNL     1       6.025   6.168  16.675  0.00  0.00    +0.000 A 
ATOM     16  C   UNL     1       4.746   5.662  16.939  0.00  0.00    +0.000 A 
BRANCH  11  18
ATOM     17  C   UNL     1       3.412   2.618  18.095  0.00  0.00    +0.000 C 
ATOM     18  C   UNL     1       3.180   3.597  16.952  0.00  0.00    +0.000 C 
ENDBRANCH  11  18
ENDBRANCH   7  16
ENDBRANCH   1   8
BRANCH   4  19
ATOM     19  O   UNL     1      -0.054  10.802  20.156  0.00  0.00    +0.000 OA
BRANCH  19  20
ATOM     20  C   UNL     1       0.176  11.955  19.351  0.00  0.00    +0.000 C 
BRANCH  20  21
ATOM     21  C   UNL     1      -0.873  13.078  19.415  0.00  0.00    +0.000 C 
ATOM     22  O   UNL     1      -0.550  14.257  19.547  0.00  0.00    +0.000 OA
ATOM     23  N   UNL     1      -2.194  12.741  19.318  0.00  0.00    +0.000 N 
ATOM     24  H   UNL     1      -2.834  13.502  19.509  0.00  0.00    +0.000 HD
BRANCH  23  25
ATOM     25  C   UNL     1      -2.719  11.402  19.226  0.00  0.00    +0.000 C 
BRANCH  25  26
ATOM     26  C   UNL     1      -2.981  11.018  17.806  0.00  0.00    +0.000 A 
ATOM     27  C   UNL     1      -4.043  11.612  17.107  0.00  0.00    +0.000 A 
ATOM     28  C   UNL     1      -4.276  11.272  15.773  0.00  0.00    +0.000 A 
ATOM     29  C   UNL     1      -3.463  10.338  15.146  0.00  0.00    +0.000 A 
ATOM     30 CL   UNL     1      -3.753   9.927  13.502  0.00  0.00    +0.000 Cl
ATOM     31  C   UNL     1      -2.424   9.722  15.838  0.00  0.00    +0.000 A 
ATOM     32  C   UNL     1      -2.183  10.060  17.169  0.00  0.00    +0.000 A 
ENDBRANCH  25  26
ENDBRANCH  23  25
ENDBRANCH  20  21
ENDBRANCH  19  20
ENDBRANCH   4  19
TORSDOF 8
ENDMDL
