MODEL 1
REMARK VINA RESULT:      -7.6      0.000      0.000
REMARK  Name = 
REMARK  7 active torsions:
REMARK  status: ('A' for Active; 'I' for Inactive)
REMARK    1  A    between atoms: C_1  and  C_2
REMARK    2  A    between atoms: C_2  and  C_3
REMARK    3  A    between atoms: C_2  and  C_4
REMARK    4  A    between atoms: C_2  and  C_5
REMARK    5  A    between atoms: C_5  and  C_15
REMARK    6  A    between atoms: C_6  and  C_7
REMARK    7  A    between atoms: C_10  and  C_11
REMARK                            x       y       z     vdW  Elec       q    Type
REMARK                         _______ _______ _______ _____ _____    ______ ____
ROOT
ATOM      1  C   UNL     1       3.460   5.456  17.879  0.00  0.00    +0.000 C 
ATOM      2  C   UNL     1       3.463   6.796  18.096  0.00  0.00    +0.000 C 
ENDROOT
BRANCH   1   3
ATOM      3  C   UNL     1       2.248   4.585  18.153  0.00  0.00    +0.000 C 
ATOM      4  O   UNL     1       1.326   4.460  17.355  0.00  0.00    +0.000 OA
ATOM      5  N   UNL     1       2.130   3.902  19.371  0.00  0.00    +0.000 N 
ATOM      6  C   UNL     1       0.940   3.506  19.956  0.00  0.00    +0.000 A 
ATOM      7  C   UNL     1       1.266   3.038  21.204  0.00  0.00    +0.000 A 
ATOM      8  N   UNL     1       2.625   2.966  21.344  0.00  0.00    +0.000 NA
ATOM      9  C   UNL     1       3.112   3.412  20.204  0.00  0.00    +0.000 A 
ENDBRANCH   1   3
BRANCH   2  10
ATOM     10  C   UNL     1       2.423   7.654  18.679  0.00  0.00    +0.000 A 
ATOM     11  C   UNL     1       1.819   8.626  17.872  0.00  0.00    +0.000 A 
ATOM     12  C   UNL     1       0.986   9.593  18.438  0.00  0.00    +0.000 A 
ATOM     13  C   UNL     1       0.681   9.537  19.798  0.00  0.00    +0.000 A 
ATOM     14  C   UNL     1       1.165   8.479  20.575  0.00  0.00    +0.000 A 
ATOM     15  C   UNL     1       2.048   7.543  20.024  0.00  0.00    +0.000 A 
BRANCH  13  16
ATOM     16  C   UNL     1      -0.100  10.577  20.401  0.00  0.00    +0.000 C 
ATOM     17  N   UNL     1      -0.719  11.439  20.870  0.00  0.00    +0.000 NA
ENDBRANCH  13  16
ENDBRANCH   2  10
BRANCH   1  19
ATOM     18  C   UNL     1       4.321   3.289  16.723  0.00  0.00    +0.000 C 
ATOM     19  C   UNL     1       4.662   4.726  17.201  0.00  0.00    +0.000 C 
ATOM     20  C   UNL     1       5.878   4.564  18.144  0.00  0.00    +0.000 C 
ATOM     21  C   UNL     1       5.093   5.515  15.949  0.00  0.00    +0.000 C 
ENDBRANCH   1  19
TORSDOF 4
ENDMDL
MODEL 2
REMARK VINA RESULT:      -6.9      0.456      1.451
REMARK  Name = 
REMARK  7 active torsions:
REMARK  status: ('A' for Active; 'I' for Inactive)
REMARK    1  A    between atoms: C_1  and  C_2
REMARK    2  A    between atoms: C_2  and  C_3
REMARK    3  A    between atoms: C_2  and  C_4
REMARK    4  A    between atoms: C_2  and  C_5
REMARK    5  A    between atoms: C_5  and  C_15
REMARK    6  A    between atoms: C_6  and  C_7
REMARK    7  A    between atoms: C_10  and  C_11
REMARK                            x       y       z     vdW  Elec       q    Type
REMARK                         _______ _______ _______ _____ _____    ______ ____
ROOT
ATOM      1  C   UNL     1       3.525   5.225  17.755  0.00  0.00    +0.000 C 
ATOM      2  C   UNL     1       3.701   6.567  17.867  0.00  0.00    +0.000 C 
ENDROOT
BRANCH   1   3
ATOM      3  C   UNL     1       2.232   4.533  18.145  0.00  0.00    +0.000 C 
ATOM      4  O   UNL     1       1.249   4.501  17.413  0.00  0.00    +0.000 OA
ATOM      5  N   UNL     1       2.109   3.917  19.398  0.00  0.00    +0.000 N 
ATOM      6  C   UNL     1       0.921   3.705  20.073  0.00  0.00    +0.000 A 
ATOM      7  C   UNL     1       1.268   3.244  21.320  0.00  0.00    +0.000 A 
ATOM      8  N   UNL     1       2.612   2.999  21.377  0.00  0.00    +0.000 NA
ATOM      9  C   UNL     1       3.075   3.333  20.189  0.00  0.00    +0.000 A 
ENDBRANCH   1   3
BRANCH   2  10
ATOM     10  C   UNL     1       2.801   7.586  18.424  0.00  0.00    +0.000 A 
ATOM     11  C   UNL     1       2.375   7.459  19.751  0.00  0.00    +0.000 A 
ATOM     12  C   UNL     1       1.362   8.281  20.248  0.00  0.00    +0.000 A 
ATOM     13  C   UNL     1       0.836   9.296  19.449  0.00  0.00    +0.000 A 
ATOM     14  C   UNL     1       1.367   9.520  18.173  0.00  0.00    +0.000 A 
ATOM     15  C   UNL     1       2.340   8.659  17.651  0.00  0.00    +0.000 A 
BRANCH  13  16
ATOM     16  C   UNL     1      -0.264  10.084  19.921  0.00  0.00    +0.000 C 
ATOM     17  N   UNL     1      -1.137  10.730  20.329  0.00  0.00    +0.000 NA
ENDBRANCH  13  16
ENDBRANCH   2  10
BRANCH   1  19
ATOM     18  C   UNL     1       5.025   4.782  15.675  0.00  0.00    +0.000 C 
ATOM     19  C   UNL     1       4.596   4.305  17.089  0.00  0.00    +0.000 C 
ATOM     20  C   UNL     1       4.105   2.850  16.896  0.00  0.00    +0.000 C 
ATOM     21  C   UNL     1       5.870   4.299  17.956  0.00  0.00    +0.000 C 
ENDBRANCH   1  19
TORSDOF 4
ENDMDL
MODEL 3
REMARK VINA RESULT:      -6.9      1.466      1.720
REMARK  Name = 
REMARK  7 active torsions:
REMARK  status: ('A' for Active; 'I' for Inactive)
REMARK    1  A    between atoms: C_1  and  C_2
REMARK    2  A    between atoms: C_2  and  C_3
REMARK    3  A    between atoms: C_2  and  C_4
REMARK    4  A    between atoms: C_2  and  C_5
REMARK    5  A    between atoms: C_5  and  C_15
REMARK    6  A    between atoms: C_6  and  C_7
REMARK    7  A    between atoms: C_10  and  C_11
REMARK                            x       y       z     vdW  Elec       q    Type
REMARK                         _______ _______ _______ _____ _____    ______ ____
ROOT
ATOM      1  C   UNL     1       4.229   6.070  17.749  0.00  0.00    +0.000 C 
ATOM      2  C   UNL     1       3.574   7.242  17.550  0.00  0.00    +0.000 C 
ENDROOT
BRANCH   1   3
ATOM      3  C   UNL     1       3.898   5.130  18.893  0.00  0.00    +0.000 C 
ATOM      4  O   UNL     1       4.512   5.132  19.953  0.00  0.00    +0.000 OA
ATOM      5  N   UNL     1       2.871   4.186  18.757  0.00  0.00    +0.000 N 
ATOM      6  C   UNL     1       2.781   2.994  19.452  0.00  0.00    +0.000 A 
ATOM      7  C   UNL     1       1.735   2.303  18.893  0.00  0.00    +0.000 A 
ATOM      8  N   UNL     1       1.067   3.096  17.999  0.00  0.00    +0.000 NA
ATOM      9  C   UNL     1       1.720   4.241  18.000  0.00  0.00    +0.000 A 
ENDBRANCH   1   3
BRANCH   2  10
ATOM     10  C   UNL     1       2.532   7.884  18.363  0.00  0.00    +0.000 A 
ATOM     11  C   UNL     1       1.767   8.909  17.794  0.00  0.00    +0.000 A 
ATOM     12  C   UNL     1       0.920   9.681  18.591  0.00  0.00    +0.000 A 
ATOM     13  C   UNL     1       0.765   9.373  19.942  0.00  0.00    +0.000 A 
ATOM     14  C   UNL     1       1.415   8.256  20.478  0.00  0.00    +0.000 A 
ATOM     15  C   UNL     1       2.312   7.516  19.696  0.00  0.00    +0.000 A 
BRANCH  13  16
ATOM     16  C   UNL     1      -0.033  10.216  20.783  0.00  0.00    +0.000 C 
ATOM     17  N   UNL     1      -0.700  10.900  21.442  0.00  0.00    +0.000 NA
ENDBRANCH  13  16
ENDBRANCH   2  10
BRANCH   1  19
ATOM     18  C   UNL     1       5.047   4.057  16.315  0.00  0.00    +0.000 C 
ATOM     19  C   UNL     1       5.288   5.533  16.734  0.00  0.00    +0.000 C 
ATOM     20  C   UNL     1       6.731   5.568  17.292  0.00  0.00    +0.000 C 
ATOM     21  C   UNL     1       5.223   6.373  15.443  0.00  0.00    +0.000 C 
ENDBRANCH   1  19
TORSDOF 4
ENDMDL
MODEL 4
REMARK VINA RESULT:      -6.8      2.013      3.714
REMARK  Name = 
REMARK  7 active torsions:
REMARK  status: ('A' for Active; 'I' for Inactive)
REMARK    1  A    between atoms: C_1  and  C_2
REMARK    2  A    between atoms: C_2  and  C_3
REMARK    3  A    between atoms: C_2  and  C_4
REMARK    4  A    between atoms: C_2  and  C_5
REMARK    5  A    between atoms: C_5  and  C_15
REMARK    6  A    between atoms: C_6  and  C_7
REMARK    7  A    between atoms: C_10  and  C_11
REMARK                            x       y       z     vdW  Elec       q    Type
REMARK                         _______ _______ _______ _____ _____    ______ ____
ROOT
ATOM      1  C   UNL     1       3.167   4.086  18.898  0.00  0.00    +0.000 C 
ATOM      2  C   UNL     1       2.385   4.970  19.567  0.00  0.00    +0.000 C 
ENDROOT
BRANCH   1   3
ATOM      3  C   UNL     1       4.150   4.511  17.823  0.00  0.00    +0.000 C 
ATOM      4  O   UNL     1       3.845   4.594  16.639  0.00  0.00    +0.000 OA
ATOM      5  N   UNL     1       5.481   4.801  18.156  0.00  0.00    +0.000 N 
ATOM      6  C   UNL     1       6.560   4.709  17.297  0.00  0.00    +0.000 A 
ATOM      7  C   UNL     1       7.679   4.907  18.068  0.00  0.00    +0.000 A 
ATOM      8  N   UNL     1       7.323   5.290  19.332  0.00  0.00    +0.000 NA
ATOM      9  C   UNL     1       6.005   5.296  19.331  0.00  0.00    +0.000 A 
ENDBRANCH   1   3
BRANCH   2  10
ATOM     10  C   UNL     1       2.238   6.420  19.381  0.00  0.00    +0.000 A 
ATOM     11  C   UNL     1       1.848   7.205  20.473  0.00  0.00    +0.000 A 
ATOM     12  C   UNL     1       1.494   8.543  20.289  0.00  0.00    +0.000 A 
ATOM     13  C   UNL     1       1.619   9.127  19.028  0.00  0.00    +0.000 A 
ATOM     14  C   UNL     1       2.151   8.384  17.969  0.00  0.00    +0.000 A 
ATOM     15  C   UNL     1       2.449   7.026  18.137  0.00  0.00    +0.000 A 
BRANCH  13  16
ATOM     16  C   UNL     1       1.174  10.473  18.814  0.00  0.00    +0.000 C 
ATOM     17  N   UNL     1       0.837  11.566  18.622  0.00  0.00    +0.000 NA
ENDBRANCH  13  16
ENDBRANCH   2  10
BRANCH   1  19
ATOM     18  C   UNL     1       4.311   2.231  20.322  0.00  0.00    +0.000 C 
ATOM     19  C   UNL     1       3.213   2.572  19.277  0.00  0.00    +0.000 C 
ATOM     20  C   UNL     1       3.505   1.655  18.066  0.00  0.00    +0.000 C 
ATOM     21  C   UNL     1       1.866   2.167  19.907  0.00  0.00    +0.000 C 
ENDBRANCH   1  19
TORSDOF 4
ENDMDL
MODEL 5
REMARK VINA RESULT:      -6.7      2.084      3.947
REMARK  Name = 
REMARK  7 active torsions:
REMARK  status: ('A' for Active; 'I' for Inactive)
REMARK    1  A    between atoms: C_1  and  C_2
REMARK    2  A    between atoms: C_2  and  C_3
REMARK    3  A    between atoms: C_2  and  C_4
REMARK    4  A    between atoms: C_2  and  C_5
REMARK    5  A    between atoms: C_5  and  C_15
REMARK    6  A    between atoms: C_6  and  C_7
REMARK    7  A    between atoms: C_10  and  C_11
REMARK                            x       y       z     vdW  Elec       q    Type
REMARK                         _______ _______ _______ _____ _____    ______ ____
ROOT
ATOM      1  C   UNL     1       3.270   4.379  19.488  0.00  0.00    +0.000 C 
ATOM      2  C   UNL     1       2.212   5.207  19.686  0.00  0.00    +0.000 C 
ENDROOT
BRANCH   1   3
ATOM      3  C   UNL     1       4.632   4.881  19.044  0.00  0.00    +0.000 C 
ATOM      4  O   UNL     1       5.449   5.360  19.822  0.00  0.00    +0.000 OA
ATOM      5  N   UNL     1       4.994   4.837  17.691  0.00  0.00    +0.000 N 
ATOM      6  C   UNL     1       5.920   5.665  17.082  0.00  0.00    +0.000 A 
ATOM      7  C   UNL     1       5.839   5.405  15.737  0.00  0.00    +0.000 A 
ATOM      8  N   UNL     1       5.027   4.327  15.511  0.00  0.00    +0.000 NA
ATOM      9  C   UNL     1       4.602   3.960  16.703  0.00  0.00    +0.000 A 
ENDBRANCH   1   3
BRANCH   2  10
ATOM     10  C   UNL     1       2.099   6.654  19.458  0.00  0.00    +0.000 A 
ATOM     11  C   UNL     1       1.701   7.475  20.520  0.00  0.00    +0.000 A 
ATOM     12  C   UNL     1       1.379   8.814  20.293  0.00  0.00    +0.000 A 
ATOM     13  C   UNL     1       1.541   9.361  19.020  0.00  0.00    +0.000 A 
ATOM     14  C   UNL     1       2.081   8.580  17.992  0.00  0.00    +0.000 A 
ATOM     15  C   UNL     1       2.348   7.221  18.202  0.00  0.00    +0.000 A 
BRANCH  13  16
ATOM     16  C   UNL     1       1.128  10.709  18.761  0.00  0.00    +0.000 C 
ATOM     17  N   UNL     1       0.810  11.809  18.575  0.00  0.00    +0.000 NA
ENDBRANCH  13  16
ENDBRANCH   2  10
BRANCH   1  19
ATOM     18  C   UNL     1       4.601   2.213  20.049  0.00  0.00    +0.000 C 
ATOM     19  C   UNL     1       3.204   2.858  19.834  0.00  0.00    +0.000 C 
ATOM     20  C   UNL     1       2.533   2.015  18.723  0.00  0.00    +0.000 C 
ATOM     21  C   UNL     1       2.427   2.671  21.152  0.00  0.00    +0.000 C 
ENDBRANCH   1  19
TORSDOF 4
ENDMDL
MODEL 6
REMARK VINA RESULT:      -6.6      2.327      3.453
REMARK  Name = 
REMARK  7 active torsions:
REMARK  status: ('A' for Active; 'I' for Inactive)
REMARK    1  A    between atoms: C_1  and  C_2
REMARK    2  A    between atoms: C_2  and  C_3
REMARK    3  A    between atoms: C_2  and  C_4
REMARK    4  A    between atoms: C_2  and  C_5
REMARK    5  A    between atoms: C_5  and  C_15
REMARK    6  A    between atoms: C_6  and  C_7
REMARK    7  A    between atoms: C_10  and  C_11
REMARK                            x       y       z     vdW  Elec       q    Type
REMARK                         _______ _______ _______ _____ _____    ______ ____
ROOT
ATOM      1  C   UNL     1       3.574   5.277  17.742  0.00  0.00    +0.000 C 
ATOM      2  C   UNL     1       2.456   5.793  18.315  0.00  0.00    +0.000 C 
ENDROOT
BRANCH   1   3
ATOM      3  C   UNL     1       4.805   6.114  17.447  0.00  0.00    +0.000 C 
ATOM      4  O   UNL     1       4.853   6.921  16.526  0.00  0.00    +0.000 OA
ATOM      5  N   UNL     1       5.963   5.965  18.221  0.00  0.00    +0.000 N 
ATOM      6  C   UNL     1       7.250   6.250  17.801  0.00  0.00    +0.000 A 
ATOM      7  C   UNL     1       8.084   5.799  18.793  0.00  0.00    +0.000 A 
ATOM      8  N   UNL     1       7.356   5.407  19.883  0.00  0.00    +0.000 NA
ATOM      9  C   UNL     1       6.097   5.594  19.542  0.00  0.00    +0.000 A 
ENDBRANCH   1   3
BRANCH   2  10
ATOM     10  C   UNL     1       2.146   7.182  18.681  0.00  0.00    +0.000 A 
ATOM     11  C   UNL     1       1.948   7.495  20.031  0.00  0.00    +0.000 A 
ATOM     12  C   UNL     1       1.448   8.746  20.397  0.00  0.00    +0.000 A 
ATOM     13  C   UNL     1       1.230   9.720  19.423  0.00  0.00    +0.000 A 
ATOM     14  C   UNL     1       1.569   9.457  18.091  0.00  0.00    +0.000 A 
ATOM     15  C   UNL     1       2.014   8.184  17.712  0.00  0.00    +0.000 A 
BRANCH  13  16
ATOM     16  C   UNL     1       0.633  10.973  19.782  0.00  0.00    +0.000 C 
ATOM     17  N   UNL     1       0.128  11.972  20.088  0.00  0.00    +0.000 NA
ENDBRANCH  13  16
ENDBRANCH   2  10
BRANCH   1  19
ATOM     18  C   UNL     1       2.416   3.071  16.991  0.00  0.00    +0.000 C 
ATOM     19  C   UNL     1       3.730   3.748  17.466  0.00  0.00    +0.000 C 
ATOM     20  C   UNL     1       4.169   2.951  18.717  0.00  0.00    +0.000 C 
ATOM     21  C   UNL     1       4.764   3.539  16.343  0.00  0.00    +0.000 C 
ENDBRANCH   1  19
TORSDOF 4
ENDMDL
MODEL 7
REMARK VINA RESULT:      -6.5      1.778      3.580
REMARK  Name = 
REMARK  7 active torsions:
REMARK  status: ('A' for Active; 'I' for Inactive)
REMARK    1  A    between atoms: C_1  and  C_2
REMARK    2  A    between atoms: C_2  and  C_3
REMARK    3  A    between atoms: C_2  and  C_4
REMARK    4  A    between atoms: C_2  and  C_5
REMARK    5  A    between atoms: C_5  and  C_15
REMARK    6  A    between atoms: C_6  and  C_7
REMARK    7  A    between atoms: C_10  and  C_11
REMARK                            x       y       z     vdW  Elec       q    Type
REMARK                         _______ _______ _______ _____ _____    ______ ____
ROOT
ATOM      1  C   UNL     1       2.633   4.304  19.619  0.00  0.00    +0.000 C 
ATOM      2  C   UNL     1       2.048   5.318  20.306  0.00  0.00    +0.000 C 
ENDROOT
BRANCH   1   3
ATOM      3  C   UNL     1       3.416   4.528  18.338  0.00  0.00    +0.000 C 
ATOM      4  O   UNL     1       2.900   4.480  17.227  0.00  0.00    +0.000 OA
ATOM      5  N   UNL     1       4.795   4.773  18.387  0.00  0.00    +0.000 N 
ATOM      6  C   UNL     1       5.693   4.506  17.370  0.00  0.00    +0.000 A 
ATOM      7  C   UNL     1       6.942   4.728  17.895  0.00  0.00    +0.000 A 
ATOM      8  N   UNL     1       6.841   5.290  19.138  0.00  0.00    +0.000 NA
ATOM      9  C   UNL     1       5.547   5.379  19.371  0.00  0.00    +0.000 A 
ENDBRANCH   1   3
BRANCH   2  10
ATOM     10  C   UNL     1       1.956   6.746  19.974  0.00  0.00    +0.000 A 
ATOM     11  C   UNL     1       1.447   7.631  20.932  0.00  0.00    +0.000 A 
ATOM     12  C   UNL     1       1.147   8.950  20.584  0.00  0.00    +0.000 A 
ATOM     13  C   UNL     1       1.443   9.415  19.303  0.00  0.00    +0.000 A 
ATOM     14  C   UNL     1       2.090   8.573  18.391  0.00  0.00    +0.000 A 
ATOM     15  C   UNL     1       2.335   7.233  18.717  0.00  0.00    +0.000 A 
BRANCH  13  16
ATOM     16  C   UNL     1       1.056  10.739  18.914  0.00  0.00    +0.000 C 
ATOM     17  N   UNL     1       0.714  11.802  18.600  0.00  0.00    +0.000 NA
ENDBRANCH  13  16
ENDBRANCH   2  10
BRANCH   1  19
ATOM     18  C   UNL     1       1.838   1.846  19.303  0.00  0.00    +0.000 C 
ATOM     19  C   UNL     1       2.659   2.842  20.166  0.00  0.00    +0.000 C 
ATOM     20  C   UNL     1       2.075   2.722  21.594  0.00  0.00    +0.000 C 
ATOM     21  C   UNL     1       4.112   2.328  20.168  0.00  0.00    +0.000 C 
ENDBRANCH   1  19
TORSDOF 4
ENDMDL
MODEL 8
REMARK VINA RESULT:      -6.5      1.573      3.593
REMARK  Name = 
REMARK  7 active torsions:
REMARK  status: ('A' for Active; 'I' for Inactive)
REMARK    1  A    between atoms: C_1  and  C_2
REMARK    2  A    between atoms: C_2  and  C_3
REMARK    3  A    between atoms: C_2  and  C_4
REMARK    4  A    between atoms: C_2  and  C_5
REMARK    5  A    between atoms: C_5  and  C_15
REMARK    6  A    between atoms: C_6  and  C_7
REMARK    7  A    between atoms: C_10  and  C_11
REMARK                            x       y       z     vdW  Elec       q    Type
REMARK                         _______ _______ _______ _____ _____    ______ ____
ROOT
ATOM      1  C   UNL     1       2.149   4.390  19.748  0.00  0.00    +0.000 C 
ATOM      2  C   UNL     1       1.915   5.463  20.546  0.00  0.00    +0.000 C 
ENDROOT
BRANCH   1   3
ATOM      3  C   UNL     1       2.430   4.519  18.262  0.00  0.00    +0.000 C 
ATOM      4  O   UNL     1       1.541   4.589  17.422  0.00  0.00    +0.000 OA
ATOM      5  N   UNL     1       3.750   4.533  17.792  0.00  0.00    +0.000 N 
ATOM      6  C   UNL     1       4.153   4.152  16.525  0.00  0.00    +0.000 A 
ATOM      7  C   UNL     1       5.526   4.150  16.545  0.00  0.00    +0.000 A 
ATOM      8  N   UNL     1       5.983   4.684  17.719  0.00  0.00    +0.000 NA
ATOM      9  C   UNL     1       4.899   4.978  18.409  0.00  0.00    +0.000 A 
ENDBRANCH   1   3
BRANCH   2  10
ATOM     10  C   UNL     1       1.799   6.885  20.195  0.00  0.00    +0.000 A 
ATOM     11  C   UNL     1       1.172   7.753  21.097  0.00  0.00    +0.000 A 
ATOM     12  C   UNL     1       0.854   9.058  20.713  0.00  0.00    +0.000 A 
ATOM     13  C   UNL     1       1.245   9.528  19.459  0.00  0.00    +0.000 A 
ATOM     14  C   UNL     1       2.002   8.707  18.616  0.00  0.00    +0.000 A 
ATOM     15  C   UNL     1       2.270   7.380  18.973  0.00  0.00    +0.000 A 
BRANCH  13  16
ATOM     16  C   UNL     1       0.844  10.834  19.026  0.00  0.00    +0.000 C 
ATOM     17  N   UNL     1       0.504  11.879  18.653  0.00  0.00    +0.000 NA
ENDBRANCH  13  16
ENDBRANCH   2  10
BRANCH   1  19
ATOM     18  C   UNL     1       3.739   2.554  20.685  0.00  0.00    +0.000 C 
ATOM     19  C   UNL     1       2.279   2.944  20.325  0.00  0.00    +0.000 C 
ATOM     20  C   UNL     1       1.798   1.855  19.337  0.00  0.00    +0.000 C 
ATOM     21  C   UNL     1       1.463   2.844  21.628  0.00  0.00    +0.000 C 
ENDBRANCH   1  19
TORSDOF 4
ENDMDL
MODEL 9
REMARK VINA RESULT:      -6.3      1.782      2.205
REMARK  Name = 
REMARK  7 active torsions:
REMARK  status: ('A' for Active; 'I' for Inactive)
REMARK    1  A    between atoms: C_1  and  C_2
REMARK    2  A    between atoms: C_2  and  C_3
REMARK    3  A    between atoms: C_2  and  C_4
REMARK    4  A    between atoms: C_2  and  C_5
REMARK    5  A    between atoms: C_5  and  C_15
REMARK    6  A    between atoms: C_6  and  C_7
REMARK    7  A    between atoms: C_10  and  C_11
REMARK                            x       y       z     vdW  Elec       q    Type
REMARK                         _______ _______ _______ _____ _____    ______ ____
ROOT
ATOM      1  C   UNL     1       4.687   5.951  17.536  0.00  0.00    +0.000 C 
ATOM      2  C   UNL     1       3.955   7.081  17.366  0.00  0.00    +0.000 C 
ENDROOT
BRANCH   1   3
ATOM      3  C   UNL     1       4.445   4.983  18.679  0.00  0.00    +0.000 C 
ATOM      4  O   UNL     1       5.014   5.077  19.761  0.00  0.00    +0.000 OA
ATOM      5  N   UNL     1       3.564   3.905  18.518  0.00  0.00    +0.000 N 
ATOM      6  C   UNL     1       3.612   2.717  19.224  0.00  0.00    +0.000 A 
ATOM      7  C   UNL     1       2.692   1.885  18.635  0.00  0.00    +0.000 A 
ATOM      8  N   UNL     1       1.957   2.572  17.709  0.00  0.00    +0.000 NA
ATOM      9  C   UNL     1       2.446   3.796  17.719  0.00  0.00    +0.000 A 
ENDBRANCH   1   3
BRANCH   2  10
ATOM     10  C   UNL     1       2.897   7.649  18.212  0.00  0.00    +0.000 A 
ATOM     11  C   UNL     1       2.133   8.712  17.715  0.00  0.00    +0.000 A 
ATOM     12  C   UNL     1       1.269   9.414  18.558  0.00  0.00    +0.000 A 
ATOM     13  C   UNL     1       1.096   8.997  19.878  0.00  0.00    +0.000 A 
ATOM     14  C   UNL     1       1.746   7.844  20.332  0.00  0.00    +0.000 A 
ATOM     15  C   UNL     1       2.659   7.175  19.508  0.00  0.00    +0.000 A 
BRANCH  13  16
ATOM     16  C   UNL     1       0.280   9.765  20.772  0.00  0.00    +0.000 C 
ATOM     17  N   UNL     1      -0.367  10.373  21.519  0.00  0.00    +0.000 NA
ENDBRANCH  13  16
ENDBRANCH   2  10
BRANCH   1  19
ATOM     18  C   UNL     1       5.817   6.403  15.235  0.00  0.00    +0.000 C 
ATOM     19  C   UNL     1       5.751   5.490  16.490  0.00  0.00    +0.000 C 
ATOM     20  C   UNL     1       5.483   4.067  15.944  0.00  0.00    +0.000 C 
ATOM     21  C   UNL     1       7.149   5.531  17.137  0.00  0.00    +0.000 C 
ENDBRANCH   1  19
TORSDOF 4
ENDMDL
