MODEL 1
REMARK VINA RESULT:      -6.8      0.000      0.000
REMARK  Name = 
REMARK  4 active torsions:
REMARK  status: ('A' for Active; 'I' for Inactive)
REMARK    1  A    between atoms: C_1  and  C_2
REMARK    2  A    between atoms: C_10  and  C_11
REMARK    3  A    between atoms: C_20  and  C_21
REMARK    4  A    between atoms: C_22  and  C_23
REMARK                            x       y       z     vdW  Elec       q    Type
REMARK                         _______ _______ _______ _____ _____    ______ ____
ROOT
ATOM      1  C   UNL     1      -2.637  10.500  16.293  0.00  0.00    +0.000 C 
ATOM      2  C   UNL     1      -2.628  11.277  17.580  0.00  0.00    +0.000 A 
ATOM      3  N   UNL     1      -1.429  11.774  17.964  0.00  0.00    +0.000 NA
ATOM      4  C   UNL     1      -1.424  12.594  19.021  0.00  0.00    +0.000 A 
ATOM      5  N   UNL     1      -0.214  13.096  19.483  0.00  0.00    +0.000 N 
ATOM      6  C   UNL     1       0.135  14.400  19.219  0.00  0.00    +0.000 C 
ATOM      7  O   UNL     1      -0.562  15.241  18.655  0.00  0.00    +0.000 OA
ATOM      8  C   UNL     1       1.536  14.717  19.689  0.00  0.00    +0.000 C 
ATOM      9  S   UNL     1       2.227  13.210  20.413  0.00  0.00    +0.000 S 
ATOM     10  C   UNL     1       0.815  12.189  19.896  0.00  0.00    +0.000 C 
ATOM     11  N   UNL     1      -2.495  12.851  19.781  0.00  0.00    +0.000 NA
ATOM     12  C   UNL     1      -3.664  12.276  19.439  0.00  0.00    +0.000 A 
ATOM     13  C   UNL     1      -4.797  12.548  20.383  0.00  0.00    +0.000 C 
ATOM     14  C   UNL     1      -3.799  11.483  18.307  0.00  0.00    +0.000 A 
ATOM     15  C   UNL     1      -5.106  10.893  17.874  0.00  0.00    +0.000 C 
ENDROOT
BRANCH  10  16
ATOM     16  C   UNL     1       0.376  11.199  20.954  0.00  0.00    +0.000 A 
ATOM     17  C   UNL     1       0.577   9.836  20.693  0.00  0.00    +0.000 A 
ATOM     18  F   UNL     1       1.232   9.459  19.584  0.00  0.00    +0.000 F 
ATOM     19  C   UNL     1       0.099   8.836  21.537  0.00  0.00    +0.000 A 
ATOM     20  C   UNL     1      -0.599   9.181  22.688  0.00  0.00    +0.000 A 
ATOM     21  C   UNL     1      -0.788  10.527  22.994  0.00  0.00    +0.000 A 
ATOM     22  C   UNL     1      -0.301  11.530  22.142  0.00  0.00    +0.000 A 
ATOM     23 CL   UNL     1      -0.604  13.161  22.632  0.00  0.00    +0.000 Cl
ENDBRANCH  10  16
TORSDOF 1
ENDMDL
MODEL 2
REMARK VINA RESULT:      -6.6      1.540      1.836
REMARK  Name = 
REMARK  4 active torsions:
REMARK  status: ('A' for Active; 'I' for Inactive)
REMARK    1  A    between atoms: C_1  and  C_2
REMARK    2  A    between atoms: C_10  and  C_11
REMARK    3  A    between atoms: C_20  and  C_21
REMARK    4  A    between atoms: C_22  and  C_23
REMARK                            x       y       z     vdW  Elec       q    Type
REMARK                         _______ _______ _______ _____ _____    ______ ____
ROOT
ATOM      1  C   UNL     1      -2.640  10.870  16.067  0.00  0.00    +0.000 C 
ATOM      2  C   UNL     1      -2.676  11.491  17.436  0.00  0.00    +0.000 A 
ATOM      3  N   UNL     1      -1.498  11.965  17.904  0.00  0.00    +0.000 NA
ATOM      4  C   UNL     1      -1.535  12.655  19.048  0.00  0.00    +0.000 A 
ATOM      5  N   UNL     1      -0.347  13.126  19.595  0.00  0.00    +0.000 N 
ATOM      6  C   UNL     1      -0.025  14.460  19.493  0.00  0.00    +0.000 C 
ATOM      7  O   UNL     1      -0.731  15.345  19.015  0.00  0.00    +0.000 OA
ATOM      8  C   UNL     1       1.358  14.750  20.030  0.00  0.00    +0.000 C 
ATOM      9  S   UNL     1       2.071  13.183  20.588  0.00  0.00    +0.000 S 
ATOM     10  C   UNL     1       0.695  12.199  19.923  0.00  0.00    +0.000 C 
ATOM     11  N   UNL     1      -2.628  12.798  19.809  0.00  0.00    +0.000 NA
ATOM     12  C   UNL     1      -3.774  12.241  19.374  0.00  0.00    +0.000 A 
ATOM     13  C   UNL     1      -4.933  12.375  20.317  0.00  0.00    +0.000 C 
ATOM     14  C   UNL     1      -3.866  11.584  18.154  0.00  0.00    +0.000 A 
ATOM     15  C   UNL     1      -5.149  11.020  17.625  0.00  0.00    +0.000 C 
ENDROOT
BRANCH  10  16
ATOM     16  C   UNL     1       0.258  11.082  20.847  0.00  0.00    +0.000 A 
ATOM     17  C   UNL     1      -0.322  11.441  22.071  0.00  0.00    +0.000 A 
ATOM     18  F   UNL     1      -0.564  12.733  22.341  0.00  0.00    +0.000 F 
ATOM     19  C   UNL     1      -0.645  10.502  23.048  0.00  0.00    +0.000 A 
ATOM     20  C   UNL     1      -0.397   9.154  22.816  0.00  0.00    +0.000 A 
ATOM     21  C   UNL     1       0.149   8.760  21.596  0.00  0.00    +0.000 A 
ATOM     22  C   UNL     1       0.469   9.711  20.615  0.00  0.00    +0.000 A 
ATOM     23 CL   UNL     1       1.144   9.094  19.147  0.00  0.00    +0.000 Cl
ENDBRANCH  10  16
TORSDOF 1
ENDMDL
MODEL 3
REMARK VINA RESULT:      -6.3      8.103     10.268
REMARK  Name = 
REMARK  4 active torsions:
REMARK  status: ('A' for Active; 'I' for Inactive)
REMARK    1  A    between atoms: C_1  and  C_2
REMARK    2  A    between atoms: C_10  and  C_11
REMARK    3  A    between atoms: C_20  and  C_21
REMARK    4  A    between atoms: C_22  and  C_23
REMARK                            x       y       z     vdW  Elec       q    Type
REMARK                         _______ _______ _______ _____ _____    ______ ____
ROOT
ATOM      1  C   UNL     1       4.451  14.683  17.974  0.00  0.00    +0.000 C 
ATOM      2  C   UNL     1       5.601  15.081  18.857  0.00  0.00    +0.000 A 
ATOM      3  N   UNL     1       6.755  15.396  18.223  0.00  0.00    +0.000 NA
ATOM      4  C   UNL     1       7.740  15.898  18.974  0.00  0.00    +0.000 A 
ATOM      5  N   UNL     1       8.960  16.197  18.379  0.00  0.00    +0.000 N 
ATOM      6  C   UNL     1       9.296  17.504  18.118  0.00  0.00    +0.000 C 
ATOM      7  O   UNL     1       8.645  18.499  18.426  0.00  0.00    +0.000 OA
ATOM      8  C   UNL     1      10.597  17.613  17.354  0.00  0.00    +0.000 C 
ATOM      9  S   UNL     1      11.202  15.933  17.060  0.00  0.00    +0.000 S 
ATOM     10  C   UNL     1       9.691  15.161  17.710  0.00  0.00    +0.000 C 
ATOM     11  N   UNL     1       7.699  15.994  20.308  0.00  0.00    +0.000 NA
ATOM     12  C   UNL     1       6.577  15.591  20.934  0.00  0.00    +0.000 A 
ATOM     13  C   UNL     1       6.636  15.654  22.432  0.00  0.00    +0.000 C 
ATOM     14  C   UNL     1       5.460  15.141  20.242  0.00  0.00    +0.000 A 
ATOM     15  C   UNL     1       4.180  14.755  20.918  0.00  0.00    +0.000 C 
ENDROOT
BRANCH  10  16
ATOM     16  C   UNL     1       9.964  13.945  18.570  0.00  0.00    +0.000 A 
ATOM     17  C   UNL     1       9.367  12.734  18.192  0.00  0.00    +0.000 A 
ATOM     18  F   UNL     1       8.670  12.663  17.047  0.00  0.00    +0.000 F 
ATOM     19  C   UNL     1       9.448  11.586  18.976  0.00  0.00    +0.000 A 
ATOM     20  C   UNL     1      10.146  11.619  20.176  0.00  0.00    +0.000 A 
ATOM     21  C   UNL     1      10.780  12.798  20.566  0.00  0.00    +0.000 A 
ATOM     22  C   UNL     1      10.698  13.951  19.770  0.00  0.00    +0.000 A 
ATOM     23 CL   UNL     1      11.523  15.349  20.366  0.00  0.00    +0.000 Cl
ENDBRANCH  10  16
TORSDOF 1
ENDMDL
MODEL 4
REMARK VINA RESULT:      -6.2      8.171     10.368
REMARK  Name = 
REMARK  4 active torsions:
REMARK  status: ('A' for Active; 'I' for Inactive)
REMARK    1  A    between atoms: C_1  and  C_2
REMARK    2  A    between atoms: C_10  and  C_11
REMARK    3  A    between atoms: C_20  and  C_21
REMARK    4  A    between atoms: C_22  and  C_23
REMARK                            x       y       z     vdW  Elec       q    Type
REMARK                         _______ _______ _______ _____ _____    ______ ____
ROOT
ATOM      1  C   UNL     1       4.372  14.917  17.888  0.00  0.00    +0.000 C 
ATOM      2  C   UNL     1       5.530  15.240  18.791  0.00  0.00    +0.000 A 
ATOM      3  N   UNL     1       6.695  15.549  18.175  0.00  0.00    +0.000 NA
ATOM      4  C   UNL     1       7.692  15.987  18.950  0.00  0.00    +0.000 A 
ATOM      5  N   UNL     1       8.923  16.275  18.373  0.00  0.00    +0.000 N 
ATOM      6  C   UNL     1       9.298  17.583  18.172  0.00  0.00    +0.000 C 
ATOM      7  O   UNL     1       8.676  18.582  18.524  0.00  0.00    +0.000 OA
ATOM      8  C   UNL     1      10.604  17.687  17.417  0.00  0.00    +0.000 C 
ATOM      9  S   UNL     1      11.160  16.006  17.048  0.00  0.00    +0.000 S 
ATOM     10  C   UNL     1       9.625  15.250  17.659  0.00  0.00    +0.000 C 
ATOM     11  N   UNL     1       7.649  16.023  20.288  0.00  0.00    +0.000 NA
ATOM     12  C   UNL     1       6.512  15.626  20.892  0.00  0.00    +0.000 A 
ATOM     13  C   UNL     1       6.568  15.619  22.391  0.00  0.00    +0.000 C 
ATOM     14  C   UNL     1       5.386  15.241  20.177  0.00  0.00    +0.000 A 
ATOM     15  C   UNL     1       4.093  14.864  20.832  0.00  0.00    +0.000 C 
ENDROOT
BRANCH  10  16
ATOM     16  C   UNL     1       9.858  13.989  18.463  0.00  0.00    +0.000 A 
ATOM     17  C   UNL     1      10.867  14.016  19.437  0.00  0.00    +0.000 A 
ATOM     18  F   UNL     1      11.514  15.163  19.695  0.00  0.00    +0.000 F 
ATOM     19  C   UNL     1      11.251  12.880  20.145  0.00  0.00    +0.000 A 
ATOM     20  C   UNL     1      10.618  11.668  19.899  0.00  0.00    +0.000 A 
ATOM     21  C   UNL     1       9.589  11.613  18.961  0.00  0.00    +0.000 A 
ATOM     22  C   UNL     1       9.204  12.761  18.252  0.00  0.00    +0.000 A 
ATOM     23 CL   UNL     1       7.917  12.561  17.115  0.00  0.00    +0.000 Cl
ENDBRANCH  10  16
TORSDOF 1
ENDMDL
MODEL 5
REMARK VINA RESULT:      -6.2      8.551     10.814
REMARK  Name = 
REMARK  4 active torsions:
REMARK  status: ('A' for Active; 'I' for Inactive)
REMARK    1  A    between atoms: C_1  and  C_2
REMARK    2  A    between atoms: C_10  and  C_11
REMARK    3  A    between atoms: C_20  and  C_21
REMARK    4  A    between atoms: C_22  and  C_23
REMARK                            x       y       z     vdW  Elec       q    Type
REMARK                         _______ _______ _______ _____ _____    ______ ____
ROOT
ATOM      1  C   UNL     1       4.859  15.152  19.942  0.00  0.00    +0.000 C 
ATOM      2  C   UNL     1       6.287  15.051  20.400  0.00  0.00    +0.000 A 
ATOM      3  N   UNL     1       7.229  15.384  19.487  0.00  0.00    +0.000 NA
ATOM      4  C   UNL     1       8.493  15.449  19.917  0.00  0.00    +0.000 A 
ATOM      5  N   UNL     1       9.503  15.743  19.009  0.00  0.00    +0.000 N 
ATOM      6  C   UNL     1      10.071  16.996  18.994  0.00  0.00    +0.000 C 
ATOM      7  O   UNL     1       9.829  17.914  19.774  0.00  0.00    +0.000 OA
ATOM      8  C   UNL     1      11.053  17.158  17.856  0.00  0.00    +0.000 C 
ATOM      9  S   UNL     1      11.078  15.606  16.927  0.00  0.00    +0.000 S 
ATOM     10  C   UNL     1       9.696  14.897  17.869  0.00  0.00    +0.000 C 
ATOM     11  N   UNL     1       8.892  15.092  21.144  0.00  0.00    +0.000 NA
ATOM     12  C   UNL     1       7.954  14.676  22.015  0.00  0.00    +0.000 A 
ATOM     13  C   UNL     1       8.487  14.219  23.341  0.00  0.00    +0.000 C 
ATOM     14  C   UNL     1       6.601  14.660  21.700  0.00  0.00    +0.000 A 
ATOM     15  C   UNL     1       5.539  14.266  22.680  0.00  0.00    +0.000 C 
ENDROOT
BRANCH  10  16
ATOM     16  C   UNL     1       9.894  13.436  18.211  0.00  0.00    +0.000 A 
ATOM     17  C   UNL     1       8.908  12.530  17.794  0.00  0.00    +0.000 A 
ATOM     18  F   UNL     1       7.890  12.958  17.031  0.00  0.00    +0.000 F 
ATOM     19  C   UNL     1       8.925  11.187  18.162  0.00  0.00    +0.000 A 
ATOM     20  C   UNL     1       9.952  10.705  18.964  0.00  0.00    +0.000 A 
ATOM     21  C   UNL     1      10.966  11.571  19.369  0.00  0.00    +0.000 A 
ATOM     22  C   UNL     1      10.945  12.923  18.993  0.00  0.00    +0.000 A 
ATOM     23 CL   UNL     1      12.258  13.894  19.563  0.00  0.00    +0.000 Cl
ENDBRANCH  10  16
TORSDOF 1
ENDMDL
MODEL 6
REMARK VINA RESULT:      -6.0      8.858     10.787
REMARK  Name = 
REMARK  4 active torsions:
REMARK  status: ('A' for Active; 'I' for Inactive)
REMARK    1  A    between atoms: C_1  and  C_2
REMARK    2  A    between atoms: C_10  and  C_11
REMARK    3  A    between atoms: C_20  and  C_21
REMARK    4  A    between atoms: C_22  and  C_23
REMARK                            x       y       z     vdW  Elec       q    Type
REMARK                         _______ _______ _______ _____ _____    ______ ____
ROOT
ATOM      1  C   UNL     1       5.355  15.406  20.601  0.00  0.00    +0.000 C 
ATOM      2  C   UNL     1       6.662  14.772  20.990  0.00  0.00    +0.000 A 
ATOM      3  N   UNL     1       7.692  14.962  20.132  0.00  0.00    +0.000 NA
ATOM      4  C   UNL     1       8.896  14.539  20.530  0.00  0.00    +0.000 A 
ATOM      5  N   UNL     1       9.979  14.671  19.668  0.00  0.00    +0.000 N 
ATOM      6  C   UNL     1      10.912  15.658  19.883  0.00  0.00    +0.000 C 
ATOM      7  O   UNL     1      10.945  16.434  20.835  0.00  0.00    +0.000 OA
ATOM      8  C   UNL     1      11.935  15.722  18.771  0.00  0.00    +0.000 C 
ATOM      9  S   UNL     1      11.502  14.454  17.555  0.00  0.00    +0.000 S 
ATOM     10  C   UNL     1       9.935  14.048  18.379  0.00  0.00    +0.000 C 
ATOM     11  N   UNL     1       9.120  13.842  21.651  0.00  0.00    +0.000 NA
ATOM     12  C   UNL     1       8.068  13.581  22.450  0.00  0.00    +0.000 A 
ATOM     13  C   UNL     1       8.384  12.730  23.644  0.00  0.00    +0.000 C 
ATOM     14  C   UNL     1       6.791  14.055  22.178  0.00  0.00    +0.000 A 
ATOM     15  C   UNL     1       5.625  13.833  23.091  0.00  0.00    +0.000 C 
ENDROOT
BRANCH  10  16
ATOM     16  C   UNL     1       9.650  12.561  18.422  0.00  0.00    +0.000 A 
ATOM     17  C   UNL     1       8.540  12.091  17.707  0.00  0.00    +0.000 A 
ATOM     18  F   UNL     1       7.835  12.935  16.938  0.00  0.00    +0.000 F 
ATOM     19  C   UNL     1       8.114  10.767  17.778  0.00  0.00    +0.000 A 
ATOM     20  C   UNL     1       8.805   9.862  18.574  0.00  0.00    +0.000 A 
ATOM     21  C   UNL     1       9.933  10.289  19.272  0.00  0.00    +0.000 A 
ATOM     22  C   UNL     1      10.360  11.624  19.194  0.00  0.00    +0.000 A 
ATOM     23 CL   UNL     1      11.770  12.028  20.110  0.00  0.00    +0.000 Cl
ENDBRANCH  10  16
TORSDOF 1
ENDMDL
MODEL 7
REMARK VINA RESULT:      -5.9      9.486     11.728
REMARK  Name = 
REMARK  4 active torsions:
REMARK  status: ('A' for Active; 'I' for Inactive)
REMARK    1  A    between atoms: C_1  and  C_2
REMARK    2  A    between atoms: C_10  and  C_11
REMARK    3  A    between atoms: C_20  and  C_21
REMARK    4  A    between atoms: C_22  and  C_23
REMARK                            x       y       z     vdW  Elec       q    Type
REMARK                         _______ _______ _______ _____ _____    ______ ____
ROOT
ATOM      1  C   UNL     1      10.369  16.215  23.590  0.00  0.00    +0.000 C 
ATOM      2  C   UNL     1       9.784  15.080  22.796  0.00  0.00    +0.000 A 
ATOM      3  N   UNL     1      10.351  14.846  21.590  0.00  0.00    +0.000 NA
ATOM      4  C   UNL     1       9.950  13.751  20.935  0.00  0.00    +0.000 A 
ATOM      5  N   UNL     1      10.469  13.488  19.673  0.00  0.00    +0.000 N 
ATOM      6  C   UNL     1      11.424  12.511  19.512  0.00  0.00    +0.000 C 
ATOM      7  O   UNL     1      11.846  11.754  20.384  0.00  0.00    +0.000 OA
ATOM      8  C   UNL     1      11.955  12.466  18.098  0.00  0.00    +0.000 C 
ATOM      9  S   UNL     1      11.117  13.764  17.156  0.00  0.00    +0.000 S 
ATOM     10  C   UNL     1      10.301  14.451  18.626  0.00  0.00    +0.000 C 
ATOM     11  N   UNL     1       8.953  12.953  21.338  0.00  0.00    +0.000 NA
ATOM     12  C   UNL     1       8.336  13.252  22.497  0.00  0.00    +0.000 A 
ATOM     13  C   UNL     1       7.180  12.361  22.840  0.00  0.00    +0.000 C 
ATOM     14  C   UNL     1       8.736  14.312  23.300  0.00  0.00    +0.000 A 
ATOM     15  C   UNL     1       8.106  14.616  24.624  0.00  0.00    +0.000 C 
ENDROOT
BRANCH  10  16
ATOM     16  C   UNL     1       8.861  14.848  18.380  0.00  0.00    +0.000 A 
ATOM     17  C   UNL     1       8.477  16.152  18.726  0.00  0.00    +0.000 A 
ATOM     18  F   UNL     1       9.399  17.025  19.161  0.00  0.00    +0.000 F 
ATOM     19  C   UNL     1       7.155  16.582  18.659  0.00  0.00    +0.000 A 
ATOM     20  C   UNL     1       6.165  15.707  18.230  0.00  0.00    +0.000 A 
ATOM     21  C   UNL     1       6.517  14.414  17.846  0.00  0.00    +0.000 A 
ATOM     22  C   UNL     1       7.852  13.986  17.913  0.00  0.00    +0.000 A 
ATOM     23 CL   UNL     1       8.158  12.359  17.413  0.00  0.00    +0.000 Cl
ENDBRANCH  10  16
TORSDOF 1
ENDMDL
MODEL 8
REMARK VINA RESULT:      -5.9      7.820      9.966
REMARK  Name = 
REMARK  4 active torsions:
REMARK  status: ('A' for Active; 'I' for Inactive)
REMARK    1  A    between atoms: C_1  and  C_2
REMARK    2  A    between atoms: C_10  and  C_11
REMARK    3  A    between atoms: C_20  and  C_21
REMARK    4  A    between atoms: C_22  and  C_23
REMARK                            x       y       z     vdW  Elec       q    Type
REMARK                         _______ _______ _______ _____ _____    ______ ____
ROOT
ATOM      1  C   UNL     1       5.494   5.817  14.950  0.00  0.00    +0.000 C 
ATOM      2  C   UNL     1       5.406   5.378  16.386  0.00  0.00    +0.000 A 
ATOM      3  N   UNL     1       4.317   4.647  16.717  0.00  0.00    +0.000 NA
ATOM      4  C   UNL     1       4.293   4.119  17.945  0.00  0.00    +0.000 A 
ATOM      5  N   UNL     1       3.178   3.396  18.351  0.00  0.00    +0.000 N 
ATOM      6  C   UNL     1       3.231   2.022  18.406  0.00  0.00    +0.000 C 
ATOM      7  O   UNL     1       4.220   1.323  18.198  0.00  0.00    +0.000 OA
ATOM      8  C   UNL     1       1.887   1.417  18.741  0.00  0.00    +0.000 C 
ATOM      9  S   UNL     1       0.703   2.773  18.920  0.00  0.00    +0.000 S 
ATOM     10  C   UNL     1       1.891   4.025  18.351  0.00  0.00    +0.000 C 
ATOM     11  N   UNL     1       5.208   4.366  18.891  0.00  0.00    +0.000 NA
ATOM     12  C   UNL     1       6.240   5.171  18.574  0.00  0.00    +0.000 A 
ATOM     13  C   UNL     1       7.178   5.464  19.707  0.00  0.00    +0.000 C 
ATOM     14  C   UNL     1       6.409   5.696  17.300  0.00  0.00    +0.000 A 
ATOM     15  C   UNL     1       7.587   6.536  16.912  0.00  0.00    +0.000 C 
ENDROOT
BRANCH  10  16
ATOM     16  C   UNL     1       1.833   5.310  19.149  0.00  0.00    +0.000 A 
ATOM     17  C   UNL     1       1.800   6.517  18.437  0.00  0.00    +0.000 A 
ATOM     18  F   UNL     1       1.718   6.499  17.098  0.00  0.00    +0.000 F 
ATOM     19  C   UNL     1       1.872   7.757  19.067  0.00  0.00    +0.000 A 
ATOM     20  C   UNL     1       1.973   7.822  20.452  0.00  0.00    +0.000 A 
ATOM     21  C   UNL     1       1.975   6.642  21.192  0.00  0.00    +0.000 A 
ATOM     22  C   UNL     1       1.899   5.395  20.552  0.00  0.00    +0.000 A 
ATOM     23 CL   UNL     1       1.915   4.006  21.582  0.00  0.00    +0.000 Cl
ENDBRANCH  10  16
TORSDOF 1
ENDMDL
MODEL 9
REMARK VINA RESULT:      -5.9      8.729     11.053
REMARK  Name = 
REMARK  4 active torsions:
REMARK  status: ('A' for Active; 'I' for Inactive)
REMARK    1  A    between atoms: C_1  and  C_2
REMARK    2  A    between atoms: C_10  and  C_11
REMARK    3  A    between atoms: C_20  and  C_21
REMARK    4  A    between atoms: C_22  and  C_23
REMARK                            x       y       z     vdW  Elec       q    Type
REMARK                         _______ _______ _______ _____ _____    ______ ____
ROOT
ATOM      1  C   UNL     1       4.919  15.297  19.733  0.00  0.00    +0.000 C 
ATOM      2  C   UNL     1       6.337  15.321  20.233  0.00  0.00    +0.000 A 
ATOM      3  N   UNL     1       7.284  15.623  19.315  0.00  0.00    +0.000 NA
ATOM      4  C   UNL     1       8.530  15.801  19.767  0.00  0.00    +0.000 A 
ATOM      5  N   UNL     1       9.548  16.069  18.860  0.00  0.00    +0.000 N 
ATOM      6  C   UNL     1      10.045  17.346  18.741  0.00  0.00    +0.000 C 
ATOM      7  O   UNL     1       9.730  18.316  19.426  0.00  0.00    +0.000 OA
ATOM      8  C   UNL     1      11.049  17.460  17.616  0.00  0.00    +0.000 C 
ATOM      9  S   UNL     1      11.188  15.834  16.837  0.00  0.00    +0.000 S 
ATOM     10  C   UNL     1       9.820  15.134  17.808  0.00  0.00    +0.000 C 
ATOM     11  N   UNL     1       8.913  15.583  21.031  0.00  0.00    +0.000 NA
ATOM     12  C   UNL     1       7.974  15.194  21.914  0.00  0.00    +0.000 A 
ATOM     13  C   UNL     1       8.493  14.893  23.289  0.00  0.00    +0.000 C 
ATOM     14  C   UNL     1       6.634  15.070  21.571  0.00  0.00    +0.000 A 
ATOM     15  C   UNL     1       5.568  14.706  22.557  0.00  0.00    +0.000 C 
ENDROOT
BRANCH  10  16
ATOM     16  C   UNL     1      10.090  13.725  18.290  0.00  0.00    +0.000 A 
ATOM     17  C   UNL     1      11.252  13.506  19.042  0.00  0.00    +0.000 A 
ATOM     18  F   UNL     1      12.024  14.546  19.394  0.00  0.00    +0.000 F 
ATOM     19  C   UNL     1      11.662  12.232  19.429  0.00  0.00    +0.000 A 
ATOM     20  C   UNL     1      10.902  11.126  19.072  0.00  0.00    +0.000 A 
ATOM     21  C   UNL     1       9.723  11.310  18.353  0.00  0.00    +0.000 A 
ATOM     22  C   UNL     1       9.313  12.597  17.969  0.00  0.00    +0.000 A 
ATOM     23 CL   UNL     1       7.834  12.692  17.076  0.00  0.00    +0.000 Cl
ENDBRANCH  10  16
TORSDOF 1
ENDMDL
