MODEL 1
REMARK VINA RESULT:      -7.0      0.000      0.000
REMARK  Name = 
REMARK  6 active torsions:
REMARK  status: ('A' for Active; 'I' for Inactive)
REMARK    1  A    between atoms: C_1  and  C_2
REMARK    2  A    between atoms: C_10  and  C_11
REMARK    3  A    between atoms: C_11  and  C_12
REMARK    4  A    between atoms: C_14  and  C_15
REMARK    5  A    between atoms: C_22  and  C_23
REMARK    6  A    between atoms: C_22  and  C_24
REMARK                            x       y       z     vdW  Elec       q    Type
REMARK                         _______ _______ _______ _____ _____    ______ ____
ROOT
ATOM      1  C   UNL     1      -1.580  12.814  22.927  0.00  0.00    +0.000 C 
ATOM      2  C   UNL     1      -0.838  11.662  22.337  0.00  0.00    +0.000 C 
ATOM      3  N   UNL     1      -0.347  11.672  21.141  0.00  0.00    +0.000 NA
ATOM      4  N   UNL     1       0.250  10.452  20.951  0.00  0.00    +0.000 N 
ATOM      5  C   UNL     1       1.019  10.195  19.818  0.00  0.00    +0.000 A 
ATOM      6  N   UNL     1       1.342  11.212  19.016  0.00  0.00    +0.000 NA
ATOM      7  C   UNL     1       2.139  10.945  18.005  0.00  0.00    +0.000 A 
ATOM      8  N   UNL     1       2.517  11.993  17.190  0.00  0.00    +0.000 N 
ATOM      9  N   UNL     1       2.594   9.744  17.699  0.00  0.00    +0.000 NA
ATOM     10  C   UNL     1       2.219   8.777  18.533  0.00  0.00    +0.000 A 
ATOM     11  N   UNL     1       1.438   8.951  19.591  0.00  0.00    +0.000 NA
ATOM     12  C   UNL     1       0.023   9.512  22.055  0.00  0.00    +0.000 C 
ATOM     13  C   UNL     1      -1.017   8.455  21.665  0.00  0.00    +0.000 C 
ATOM     14  C   UNL     1       1.314   8.865  22.569  0.00  0.00    +0.000 C 
ATOM     15  C   UNL     1      -0.550  10.436  23.145  0.00  0.00    +0.000 C 
ATOM     16  H   UNL     1       1.856  12.752  17.277  0.00  0.00    +0.000 HD
ATOM     17  H   UNL     1       2.752  11.677  16.261  0.00  0.00    +0.000 HD
ENDROOT
BRANCH  10  18
ATOM     18  C   UNL     1       2.704   7.413  18.256  0.00  0.00    +0.000 C 
ATOM     19  C   UNL     1       2.142   6.326  18.834  0.00  0.00    +0.000 C 
BRANCH  19  20
ATOM     20  C   UNL     1       2.617   4.950  18.628  0.00  0.00    +0.000 A 
ATOM     21  C   UNL     1       2.006   4.128  17.679  0.00  0.00    +0.000 A 
ATOM     22  C   UNL     1       2.455   2.823  17.557  0.00  0.00    +0.000 A 
ATOM     23  N   UNL     1       3.452   2.300  18.300  0.00  0.00    +0.000 NA
ATOM     24  C   UNL     1       4.022   3.114  19.213  0.00  0.00    +0.000 A 
ATOM     25  C   UNL     1       3.647   4.434  19.412  0.00  0.00    +0.000 A 
ENDBRANCH  19  20
BRANCH  18  26
ATOM     26  C   UNL     1       3.898   7.193  17.341  0.00  0.00    +0.000 C 
ATOM     27  N   UNL     1       4.888   7.011  16.582  0.00  0.00    +0.000 NA
ENDBRANCH  18  26
ENDBRANCH  10  18
TORSDOF 3
ENDMDL
MODEL 2
REMARK VINA RESULT:      -6.9      2.280      7.476
REMARK  Name = 
REMARK  6 active torsions:
REMARK  status: ('A' for Active; 'I' for Inactive)
REMARK    1  A    between atoms: C_1  and  C_2
REMARK    2  A    between atoms: C_10  and  C_11
REMARK    3  A    between atoms: C_11  and  C_12
REMARK    4  A    between atoms: C_14  and  C_15
REMARK    5  A    between atoms: C_22  and  C_23
REMARK    6  A    between atoms: C_22  and  C_24
REMARK                            x       y       z     vdW  Elec       q    Type
REMARK                         _______ _______ _______ _____ _____    ______ ____
ROOT
ATOM      1  C   UNL     1       4.436   0.514  18.923  0.00  0.00    +0.000 C 
ATOM      2  C   UNL     1       3.720   1.816  19.052  0.00  0.00    +0.000 C 
ATOM      3  N   UNL     1       4.207   2.939  18.634  0.00  0.00    +0.000 NA
ATOM      4  N   UNL     1       3.280   3.904  18.929  0.00  0.00    +0.000 N 
ATOM      5  C   UNL     1       3.425   5.209  18.462  0.00  0.00    +0.000 A 
ATOM      6  N   UNL     1       4.367   5.466  17.553  0.00  0.00    +0.000 NA
ATOM      7  C   UNL     1       4.418   6.689  17.075  0.00  0.00    +0.000 A 
ATOM      8  N   UNL     1       5.360   6.962  16.104  0.00  0.00    +0.000 N 
ATOM      9  N   UNL     1       3.645   7.685  17.466  0.00  0.00    +0.000 NA
ATOM     10  C   UNL     1       2.739   7.360  18.386  0.00  0.00    +0.000 A 
ATOM     11  N   UNL     1       2.595   6.151  18.910  0.00  0.00    +0.000 NA
ATOM     12  C   UNL     1       2.150   3.406  19.722  0.00  0.00    +0.000 C 
ATOM     13  C   UNL     1       2.275   3.848  21.185  0.00  0.00    +0.000 C 
ATOM     14  C   UNL     1       0.786   3.790  19.136  0.00  0.00    +0.000 C 
ATOM     15  C   UNL     1       2.336   1.882  19.617  0.00  0.00    +0.000 C 
ATOM     16  H   UNL     1       6.104   6.279  16.145  0.00  0.00    +0.000 HD
ATOM     17  H   UNL     1       5.617   7.937  16.096  0.00  0.00    +0.000 HD
ENDROOT
BRANCH  10  18
ATOM     18  C   UNL     1       1.833   8.423  18.855  0.00  0.00    +0.000 C 
ATOM     19  C   UNL     1       1.362   9.378  18.019  0.00  0.00    +0.000 C 
BRANCH  19  20
ATOM     20  C   UNL     1       0.495  10.486  18.445  0.00  0.00    +0.000 A 
ATOM     21  C   UNL     1      -0.890  10.386  18.316  0.00  0.00    +0.000 A 
ATOM     22  C   UNL     1      -1.663  11.476  18.682  0.00  0.00    +0.000 A 
ATOM     23  N   UNL     1      -1.154  12.629  19.163  0.00  0.00    +0.000 NA
ATOM     24  C   UNL     1       0.189  12.702  19.273  0.00  0.00    +0.000 A 
ATOM     25  C   UNL     1       1.049  11.668  18.934  0.00  0.00    +0.000 A 
ENDBRANCH  19  20
BRANCH  18  26
ATOM     26  C   UNL     1       1.439   8.506  20.321  0.00  0.00    +0.000 C 
ATOM     27  N   UNL     1       1.112   8.574  21.537  0.00  0.00    +0.000 NA
ENDBRANCH  18  26
ENDBRANCH  10  18
TORSDOF 3
ENDMDL
MODEL 3
REMARK VINA RESULT:      -6.6      1.949      3.453
REMARK  Name = 
REMARK  6 active torsions:
REMARK  status: ('A' for Active; 'I' for Inactive)
REMARK    1  A    between atoms: C_1  and  C_2
REMARK    2  A    between atoms: C_10  and  C_11
REMARK    3  A    between atoms: C_11  and  C_12
REMARK    4  A    between atoms: C_14  and  C_15
REMARK    5  A    between atoms: C_22  and  C_23
REMARK    6  A    between atoms: C_22  and  C_24
REMARK                            x       y       z     vdW  Elec       q    Type
REMARK                         _______ _______ _______ _____ _____    ______ ____
ROOT
ATOM      1  C   UNL     1      -1.517  15.454  20.985  0.00  0.00    +0.000 C 
ATOM      2  C   UNL     1      -0.956  14.171  20.473  0.00  0.00    +0.000 C 
ATOM      3  N   UNL     1      -0.521  13.228  21.244  0.00  0.00    +0.000 NA
ATOM      4  N   UNL     1      -0.082  12.221  20.424  0.00  0.00    +0.000 N 
ATOM      5  C   UNL     1       0.300  10.985  20.942  0.00  0.00    +0.000 A 
ATOM      6  N   UNL     1       0.040  10.718  22.223  0.00  0.00    +0.000 NA
ATOM      7  C   UNL     1       0.339   9.511  22.654  0.00  0.00    +0.000 A 
ATOM      8  N   UNL     1       0.039   9.204  23.965  0.00  0.00    +0.000 N 
ATOM      9  N   UNL     1       0.920   8.574  21.929  0.00  0.00    +0.000 NA
ATOM     10  C   UNL     1       1.164   8.917  20.665  0.00  0.00    +0.000 A 
ATOM     11  N   UNL     1       0.878  10.098  20.134  0.00  0.00    +0.000 NA
ATOM     12  C   UNL     1      -0.103  12.575  19.000  0.00  0.00    +0.000 C 
ATOM     13  C   UNL     1       1.313  12.871  18.492  0.00  0.00    +0.000 C 
ATOM     14  C   UNL     1      -0.804  11.527  18.128  0.00  0.00    +0.000 C 
ATOM     15  C   UNL     1      -0.938  13.869  19.008  0.00  0.00    +0.000 C 
ATOM     16  H   UNL     1      -0.049  10.052  24.506  0.00  0.00    +0.000 HD
ATOM     17  H   UNL     1       0.638   8.476  24.324  0.00  0.00    +0.000 HD
ENDROOT
BRANCH  10  18
ATOM     18  C   UNL     1       1.799   7.910  19.797  0.00  0.00    +0.000 C 
ATOM     19  C   UNL     1       1.985   6.633  20.206  0.00  0.00    +0.000 C 
BRANCH  19  20
ATOM     20  C   UNL     1       2.654   5.602  19.398  0.00  0.00    +0.000 A 
ATOM     21  C   UNL     1       1.910   4.775  18.556  0.00  0.00    +0.000 A 
ATOM     22  C   UNL     1       2.578   3.784  17.854  0.00  0.00    +0.000 A 
ATOM     23  N   UNL     1       3.909   3.575  17.933  0.00  0.00    +0.000 NA
ATOM     24  C   UNL     1       4.604   4.386  18.759  0.00  0.00    +0.000 A 
ATOM     25  C   UNL     1       4.030   5.406  19.503  0.00  0.00    +0.000 A 
ENDBRANCH  19  20
BRANCH  18  26
ATOM     26  C   UNL     1       2.313   8.296  18.419  0.00  0.00    +0.000 C 
ATOM     27  N   UNL     1       2.740   8.617  17.277  0.00  0.00    +0.000 NA
ENDBRANCH  18  26
ENDBRANCH  10  18
TORSDOF 3
ENDMDL
MODEL 4
REMARK VINA RESULT:      -6.5      2.174      3.473
REMARK  Name = 
REMARK  6 active torsions:
REMARK  status: ('A' for Active; 'I' for Inactive)
REMARK    1  A    between atoms: C_1  and  C_2
REMARK    2  A    between atoms: C_10  and  C_11
REMARK    3  A    between atoms: C_11  and  C_12
REMARK    4  A    between atoms: C_14  and  C_15
REMARK    5  A    between atoms: C_22  and  C_23
REMARK    6  A    between atoms: C_22  and  C_24
REMARK                            x       y       z     vdW  Elec       q    Type
REMARK                         _______ _______ _______ _____ _____    ______ ____
ROOT
ATOM      1  C   UNL     1      -3.917  13.971  20.841  0.00  0.00    +0.000 C 
ATOM      2  C   UNL     1      -3.019  12.888  20.347  0.00  0.00    +0.000 C 
ATOM      3  N   UNL     1      -2.136  12.303  21.090  0.00  0.00    +0.000 NA
ATOM      4  N   UNL     1      -1.505  11.379  20.298  0.00  0.00    +0.000 N 
ATOM      5  C   UNL     1      -0.606  10.461  20.838  0.00  0.00    +0.000 A 
ATOM      6  N   UNL     1      -0.518  10.352  22.165  0.00  0.00    +0.000 NA
ATOM      7  C   UNL     1       0.278   9.418  22.636  0.00  0.00    +0.000 A 
ATOM      8  N   UNL     1       0.349   9.264  24.006  0.00  0.00    +0.000 N 
ATOM      9  N   UNL     1       1.029   8.623  21.897  0.00  0.00    +0.000 NA
ATOM     10  C   UNL     1       0.901   8.799  20.583  0.00  0.00    +0.000 A 
ATOM     11  N   UNL     1       0.109   9.697  20.014  0.00  0.00    +0.000 NA
ATOM     12  C   UNL     1      -1.906  11.446  18.888  0.00  0.00    +0.000 C 
ATOM     13  C   UNL     1      -0.815  12.114  18.043  0.00  0.00    +0.000 C 
ATOM     14  C   UNL     1      -2.308  10.085  18.311  0.00  0.00    +0.000 C 
ATOM     15  C   UNL     1      -3.147  12.355  18.955  0.00  0.00    +0.000 C 
ATOM     16  H   UNL     1       0.049  10.112  24.464  0.00  0.00    +0.000 HD
ATOM     17  H   UNL     1       1.229   8.861  24.291  0.00  0.00    +0.000 HD
ENDROOT
BRANCH  10  18
ATOM     18  C   UNL     1       1.702   7.933  19.700  0.00  0.00    +0.000 C 
ATOM     19  C   UNL     1       2.037   6.670  20.053  0.00  0.00    +0.000 C 
BRANCH  19  20
ATOM     20  C   UNL     1       2.871   5.782  19.231  0.00  0.00    +0.000 A 
ATOM     21  C   UNL     1       2.296   5.008  18.222  0.00  0.00    +0.000 A 
ATOM     22  C   UNL     1       3.114   4.148  17.508  0.00  0.00    +0.000 A 
ATOM     23  N   UNL     1       4.439   4.018  17.728  0.00  0.00    +0.000 NA
ATOM     24  C   UNL     1       4.970   4.774  18.712  0.00  0.00    +0.000 A 
ATOM     25  C   UNL     1       4.238   5.664  19.482  0.00  0.00    +0.000 A 
ENDBRANCH  19  20
BRANCH  18  26
ATOM     26  C   UNL     1       2.222   8.460  18.371  0.00  0.00    +0.000 C 
ATOM     27  N   UNL     1       2.654   8.897  17.271  0.00  0.00    +0.000 NA
ENDBRANCH  18  26
ENDBRANCH  10  18
TORSDOF 3
ENDMDL
MODEL 5
REMARK VINA RESULT:      -6.5      3.020      4.412
REMARK  Name = 
REMARK  6 active torsions:
REMARK  status: ('A' for Active; 'I' for Inactive)
REMARK    1  A    between atoms: C_1  and  C_2
REMARK    2  A    between atoms: C_10  and  C_11
REMARK    3  A    between atoms: C_11  and  C_12
REMARK    4  A    between atoms: C_14  and  C_15
REMARK    5  A    between atoms: C_22  and  C_23
REMARK    6  A    between atoms: C_22  and  C_24
REMARK                            x       y       z     vdW  Elec       q    Type
REMARK                         _______ _______ _______ _____ _____    ______ ____
ROOT
ATOM      1  C   UNL     1      -0.043  17.413  18.866  0.00  0.00    +0.000 C 
ATOM      2  C   UNL     1       0.478  16.016  18.879  0.00  0.00    +0.000 C 
ATOM      3  N   UNL     1      -0.283  14.973  18.793  0.00  0.00    +0.000 NA
ATOM      4  N   UNL     1       0.542  13.879  18.846  0.00  0.00    +0.000 N 
ATOM      5  C   UNL     1       0.051  12.596  18.613  0.00  0.00    +0.000 A 
ATOM      6  N   UNL     1      -1.187  12.458  18.135  0.00  0.00    +0.000 NA
ATOM      7  C   UNL     1      -1.584  11.237  17.848  0.00  0.00    +0.000 A 
ATOM      8  N   UNL     1      -2.846  11.080  17.314  0.00  0.00    +0.000 N 
ATOM      9  N   UNL     1      -0.870  10.145  18.049  0.00  0.00    +0.000 NA
ATOM     10  C   UNL     1       0.349  10.358  18.542  0.00  0.00    +0.000 A 
ATOM     11  N   UNL     1       0.846  11.550  18.840  0.00  0.00    +0.000 NA
ATOM     12  C   UNL     1       1.943  14.216  19.122  0.00  0.00    +0.000 C 
ATOM     13  C   UNL     1       2.306  13.882  20.574  0.00  0.00    +0.000 C 
ATOM     14  C   UNL     1       2.924  13.571  18.137  0.00  0.00    +0.000 C 
ATOM     15  C   UNL     1       1.948  15.742  18.917  0.00  0.00    +0.000 C 
ATOM     16  H   UNL     1      -3.417  11.882  17.539  0.00  0.00    +0.000 HD
ATOM     17  H   UNL     1      -3.222  10.165  17.509  0.00  0.00    +0.000 HD
ENDROOT
BRANCH  10  18
ATOM     18  C   UNL     1       1.203   9.181  18.776  0.00  0.00    +0.000 C 
ATOM     19  C   UNL     1       1.841   8.551  17.763  0.00  0.00    +0.000 C 
BRANCH  19  20
ATOM     20  C   UNL     1       2.667   7.347  17.935  0.00  0.00    +0.000 A 
ATOM     21  C   UNL     1       4.041   7.395  17.698  0.00  0.00    +0.000 A 
ATOM     22  C   UNL     1       4.770   6.223  17.823  0.00  0.00    +0.000 A 
ATOM     23  N   UNL     1       4.228   5.036  18.167  0.00  0.00    +0.000 NA
ATOM     24  C   UNL     1       2.897   5.016  18.386  0.00  0.00    +0.000 A 
ATOM     25  C   UNL     1       2.080   6.132  18.287  0.00  0.00    +0.000 A 
ENDBRANCH  19  20
BRANCH  18  26
ATOM     26  C   UNL     1       1.353   8.605  20.176  0.00  0.00    +0.000 C 
ATOM     27  N   UNL     1       1.477   8.127  21.336  0.00  0.00    +0.000 NA
ENDBRANCH  18  26
ENDBRANCH  10  18
TORSDOF 3
ENDMDL
MODEL 6
REMARK VINA RESULT:      -6.4      3.098      4.544
REMARK  Name = 
REMARK  6 active torsions:
REMARK  status: ('A' for Active; 'I' for Inactive)
REMARK    1  A    between atoms: C_1  and  C_2
REMARK    2  A    between atoms: C_10  and  C_11
REMARK    3  A    between atoms: C_11  and  C_12
REMARK    4  A    between atoms: C_14  and  C_15
REMARK    5  A    between atoms: C_22  and  C_23
REMARK    6  A    between atoms: C_22  and  C_24
REMARK                            x       y       z     vdW  Elec       q    Type
REMARK                         _______ _______ _______ _____ _____    ______ ____
ROOT
ATOM      1  C   UNL     1       0.961  17.781  19.030  0.00  0.00    +0.000 C 
ATOM      2  C   UNL     1       1.313  16.333  19.004  0.00  0.00    +0.000 C 
ATOM      3  N   UNL     1       0.431  15.389  18.946  0.00  0.00    +0.000 NA
ATOM      4  N   UNL     1       1.121  14.204  18.947  0.00  0.00    +0.000 N 
ATOM      5  C   UNL     1       0.471  12.991  18.727  0.00  0.00    +0.000 A 
ATOM      6  N   UNL     1      -0.797  13.008  18.310  0.00  0.00    +0.000 NA
ATOM      7  C   UNL     1      -1.349  11.847  18.033  0.00  0.00    +0.000 A 
ATOM      8  N   UNL     1      -2.646  11.848  17.561  0.00  0.00    +0.000 N 
ATOM      9  N   UNL     1      -0.761  10.675  18.186  0.00  0.00    +0.000 NA
ATOM     10  C   UNL     1       0.497  10.735  18.620  0.00  0.00    +0.000 A 
ATOM     11  N   UNL     1       1.146  11.856  18.903  0.00  0.00    +0.000 NA
ATOM     12  C   UNL     1       2.564  14.369  19.155  0.00  0.00    +0.000 C 
ATOM     13  C   UNL     1       2.956  13.972  20.584  0.00  0.00    +0.000 C 
ATOM     14  C   UNL     1       3.412  13.628  18.116  0.00  0.00    +0.000 C 
ATOM     15  C   UNL     1       2.740  15.887  18.965  0.00  0.00    +0.000 C 
ATOM     16  H   UNL     1      -3.106  12.709  17.823  0.00  0.00    +0.000 HD
ATOM     17  H   UNL     1      -3.118  10.981  17.766  0.00  0.00    +0.000 HD
ENDROOT
BRANCH  10  18
ATOM     18  C   UNL     1       1.216   9.462  18.799  0.00  0.00    +0.000 C 
ATOM     19  C   UNL     1       1.786   8.813  17.757  0.00  0.00    +0.000 C 
BRANCH  19  20
ATOM     20  C   UNL     1       2.475   7.519  17.873  0.00  0.00    +0.000 A 
ATOM     21  C   UNL     1       1.760   6.368  18.206  0.00  0.00    +0.000 A 
ATOM     22  C   UNL     1       2.460   5.182  18.354  0.00  0.00    +0.000 A 
ATOM     23  N   UNL     1       3.795   5.073  18.191  0.00  0.00    +0.000 NA
ATOM     24  C   UNL     1       4.464   6.202  17.875  0.00  0.00    +0.000 A 
ATOM     25  C   UNL     1       3.856   7.437  17.703  0.00  0.00    +0.000 A 
ENDBRANCH  19  20
BRANCH  18  26
ATOM     26  C   UNL     1       1.296   8.810  20.170  0.00  0.00    +0.000 C 
ATOM     27  N   UNL     1       1.361   8.269  21.307  0.00  0.00    +0.000 NA
ENDBRANCH  18  26
ENDBRANCH  10  18
TORSDOF 3
ENDMDL
MODEL 7
REMARK VINA RESULT:      -6.2      1.948      3.454
REMARK  Name = 
REMARK  6 active torsions:
REMARK  status: ('A' for Active; 'I' for Inactive)
REMARK    1  A    between atoms: C_1  and  C_2
REMARK    2  A    between atoms: C_10  and  C_11
REMARK    3  A    between atoms: C_11  and  C_12
REMARK    4  A    between atoms: C_14  and  C_15
REMARK    5  A    between atoms: C_22  and  C_23
REMARK    6  A    between atoms: C_22  and  C_24
REMARK                            x       y       z     vdW  Elec       q    Type
REMARK                         _______ _______ _______ _____ _____    ______ ____
ROOT
ATOM      1  C   UNL     1      -0.334  15.307  20.207  0.00  0.00    +0.000 C 
ATOM      2  C   UNL     1       0.029  13.897  19.883  0.00  0.00    +0.000 C 
ATOM      3  N   UNL     1       0.274  13.002  20.783  0.00  0.00    +0.000 NA
ATOM      4  N   UNL     1       0.574  11.844  20.115  0.00  0.00    +0.000 N 
ATOM      5  C   UNL     1       0.729  10.638  20.797  0.00  0.00    +0.000 A 
ATOM      6  N   UNL     1       0.381  10.578  22.084  0.00  0.00    +0.000 NA
ATOM      7  C   UNL     1       0.462   9.404  22.670  0.00  0.00    +0.000 A 
ATOM      8  N   UNL     1       0.066   9.315  23.989  0.00  0.00    +0.000 N 
ATOM      9  N   UNL     1       0.909   8.303  22.096  0.00  0.00    +0.000 NA
ATOM     10  C   UNL     1       1.253   8.441  20.816  0.00  0.00    +0.000 A 
ATOM     11  N   UNL     1       1.185   9.576  20.134  0.00  0.00    +0.000 NA
ATOM     12  C   UNL     1       0.665  12.015  18.661  0.00  0.00    +0.000 C 
ATOM     13  C   UNL     1       2.129  12.017  18.204  0.00  0.00    +0.000 C 
ATOM     14  C   UNL     1      -0.163  10.989  17.880  0.00  0.00    +0.000 C 
ATOM     15  C   UNL     1       0.053  13.414  18.468  0.00  0.00    +0.000 C 
ATOM     16  H   UNL     1       0.097  10.228  24.420  0.00  0.00    +0.000 HD
ATOM     17  H   UNL     1       0.524   8.553  24.466  0.00  0.00    +0.000 HD
ENDROOT
BRANCH  10  18
ATOM     18  C   UNL     1       1.748   7.246  20.112  0.00  0.00    +0.000 C 
ATOM     19  C   UNL     1       1.540   5.998  20.593  0.00  0.00    +0.000 C 
BRANCH  19  20
ATOM     20  C   UNL     1       2.051   4.776  19.955  0.00  0.00    +0.000 A 
ATOM     21  C   UNL     1       1.581   4.388  18.700  0.00  0.00    +0.000 A 
ATOM     22  C   UNL     1       2.054   3.202  18.161  0.00  0.00    +0.000 A 
ATOM     23  N   UNL     1       2.947   2.401  18.778  0.00  0.00    +0.000 NA
ATOM     24  C   UNL     1       3.382   2.797  19.993  0.00  0.00    +0.000 A 
ATOM     25  C   UNL     1       2.971   3.965  20.617  0.00  0.00    +0.000 A 
ENDBRANCH  19  20
BRANCH  18  26
ATOM     26  C   UNL     1       2.559   7.387  18.833  0.00  0.00    +0.000 C 
ATOM     27  N   UNL     1       3.232   7.504  17.774  0.00  0.00    +0.000 NA
ENDBRANCH  18  26
ENDBRANCH  10  18
TORSDOF 3
ENDMDL
MODEL 8
REMARK VINA RESULT:      -6.2      2.144      3.777
REMARK  Name = 
REMARK  6 active torsions:
REMARK  status: ('A' for Active; 'I' for Inactive)
REMARK    1  A    between atoms: C_1  and  C_2
REMARK    2  A    between atoms: C_10  and  C_11
REMARK    3  A    between atoms: C_11  and  C_12
REMARK    4  A    between atoms: C_14  and  C_15
REMARK    5  A    between atoms: C_22  and  C_23
REMARK    6  A    between atoms: C_22  and  C_24
REMARK                            x       y       z     vdW  Elec       q    Type
REMARK                         _______ _______ _______ _____ _____    ______ ____
ROOT
ATOM      1  C   UNL     1      -0.767  15.178  20.075  0.00  0.00    +0.000 C 
ATOM      2  C   UNL     1      -0.291  13.798  19.771  0.00  0.00    +0.000 C 
ATOM      3  N   UNL     1       0.013  12.934  20.684  0.00  0.00    +0.000 NA
ATOM      4  N   UNL     1       0.412  11.796  20.032  0.00  0.00    +0.000 N 
ATOM      5  C   UNL     1       0.652  10.613  20.729  0.00  0.00    +0.000 A 
ATOM      6  N   UNL     1       0.293  10.539  22.012  0.00  0.00    +0.000 NA
ATOM      7  C   UNL     1       0.459   9.381  22.612  0.00  0.00    +0.000 A 
ATOM      8  N   UNL     1       0.055   9.274  23.927  0.00  0.00    +0.000 N 
ATOM      9  N   UNL     1       0.999   8.313  22.055  0.00  0.00    +0.000 NA
ATOM     10  C   UNL     1       1.347   8.465  20.779  0.00  0.00    +0.000 A 
ATOM     11  N   UNL     1       1.198   9.584  20.083  0.00  0.00    +0.000 NA
ATOM     12  C   UNL     1       0.507  11.959  18.577  0.00  0.00    +0.000 C 
ATOM     13  C   UNL     1       1.972  12.072  18.137  0.00  0.00    +0.000 C 
ATOM     14  C   UNL     1      -0.228  10.863  17.798  0.00  0.00    +0.000 C 
ATOM     15  C   UNL     1      -0.211  13.304  18.361  0.00  0.00    +0.000 C 
ATOM     16  H   UNL     1       0.009  10.191  24.348  0.00  0.00    +0.000 HD
ATOM     17  H   UNL     1       0.565   8.556  24.418  0.00  0.00    +0.000 HD
ENDROOT
BRANCH  10  18
ATOM     18  C   UNL     1       1.943   7.305  20.093  0.00  0.00    +0.000 C 
ATOM     19  C   UNL     1       2.459   7.403  18.846  0.00  0.00    +0.000 C 
BRANCH  19  20
ATOM     20  C   UNL     1       3.023   6.268  18.100  0.00  0.00    +0.000 A 
ATOM     21  C   UNL     1       2.252   5.132  17.857  0.00  0.00    +0.000 A 
ATOM     22  C   UNL     1       2.844   4.068  17.195  0.00  0.00    +0.000 A 
ATOM     23  N   UNL     1       4.123   4.068  16.766  0.00  0.00    +0.000 NA
ATOM     24  C   UNL     1       4.849   5.178  17.018  0.00  0.00    +0.000 A 
ATOM     25  C   UNL     1       4.350   6.294  17.672  0.00  0.00    +0.000 A 
ENDBRANCH  19  20
BRANCH  18  26
ATOM     26  C   UNL     1       1.948   5.937  20.758  0.00  0.00    +0.000 C 
ATOM     27  N   UNL     1       1.952   4.804  21.310  0.00  0.00    +0.000 NA
ENDBRANCH  18  26
ENDBRANCH  10  18
TORSDOF 3
ENDMDL
MODEL 9
REMARK VINA RESULT:      -6.2      1.591      2.087
REMARK  Name = 
REMARK  6 active torsions:
REMARK  status: ('A' for Active; 'I' for Inactive)
REMARK    1  A    between atoms: C_1  and  C_2
REMARK    2  A    between atoms: C_10  and  C_11
REMARK    3  A    between atoms: C_11  and  C_12
REMARK    4  A    between atoms: C_14  and  C_15
REMARK    5  A    between atoms: C_22  and  C_23
REMARK    6  A    between atoms: C_22  and  C_24
REMARK                            x       y       z     vdW  Elec       q    Type
REMARK                         _______ _______ _______ _____ _____    ______ ____
ROOT
ATOM      1  C   UNL     1      -1.873  12.309  22.985  0.00  0.00    +0.000 C 
ATOM      2  C   UNL     1      -0.995  11.299  22.328  0.00  0.00    +0.000 C 
ATOM      3  N   UNL     1      -0.508  11.447  21.139  0.00  0.00    +0.000 NA
ATOM      4  N   UNL     1       0.235  10.326  20.875  0.00  0.00    +0.000 N 
ATOM      5  C   UNL     1       1.031  10.241  19.734  0.00  0.00    +0.000 A 
ATOM      6  N   UNL     1       1.226  11.340  19.003  0.00  0.00    +0.000 NA
ATOM      7  C   UNL     1       2.050  11.241  17.983  0.00  0.00    +0.000 A 
ATOM      8  N   UNL     1       2.296  12.378  17.241  0.00  0.00    +0.000 N 
ATOM      9  N   UNL     1       2.650  10.128  17.604  0.00  0.00    +0.000 NA
ATOM     10  C   UNL     1       2.397   9.068  18.370  0.00  0.00    +0.000 A 
ATOM     11  N   UNL     1       1.601   9.076  19.430  0.00  0.00    +0.000 NA
ATOM     12  C   UNL     1       0.126   9.295  21.914  0.00  0.00    +0.000 C 
ATOM     13  C   UNL     1      -0.775   8.146  21.447  0.00  0.00    +0.000 C 
ATOM     14  C   UNL     1       1.487   8.779  22.396  0.00  0.00    +0.000 C 
ATOM     15  C   UNL     1      -0.557  10.068  23.056  0.00  0.00    +0.000 C 
ATOM     16  H   UNL     1       1.546  13.042  17.372  0.00  0.00    +0.000 HD
ATOM     17  H   UNL     1       2.568  12.155  16.296  0.00  0.00    +0.000 HD
ENDROOT
BRANCH  10  18
ATOM     18  C   UNL     1       3.048   7.797  18.009  0.00  0.00    +0.000 C 
ATOM     19  C   UNL     1       4.271   7.761  17.431  0.00  0.00    +0.000 C 
BRANCH  19  20
ATOM     20  C   UNL     1       4.944   6.524  17.010  0.00  0.00    +0.000 A 
ATOM     21  C   UNL     1       5.040   6.199  15.657  0.00  0.00    +0.000 A 
ATOM     22  C   UNL     1       5.638   4.998  15.312  0.00  0.00    +0.000 A 
ATOM     23  N   UNL     1       6.138   4.124  16.209  0.00  0.00    +0.000 NA
ATOM     24  C   UNL     1       6.029   4.459  17.512  0.00  0.00    +0.000 A 
ATOM     25  C   UNL     1       5.449   5.637  17.960  0.00  0.00    +0.000 A 
ENDBRANCH  19  20
BRANCH  18  26
ATOM     26  C   UNL     1       2.331   6.475  18.235  0.00  0.00    +0.000 C 
ATOM     27  N   UNL     1       1.737   5.378  18.422  0.00  0.00    +0.000 NA
ENDBRANCH  18  26
ENDBRANCH  10  18
TORSDOF 3
ENDMDL
