MODEL 1
REMARK VINA RESULT:      -9.3      0.000      0.000
REMARK  Name = 
REMARK  3 active torsions:
REMARK  status: ('A' for Active; 'I' for Inactive)
REMARK    1  A    between atoms: C_2  and  C_3
REMARK    2  A    between atoms: N_7  and  C_8
REMARK    3  A    between atoms: C_8  and  C_9
REMARK                            x       y       z     vdW  Elec       q    Type
REMARK                         _______ _______ _______ _____ _____    ______ ____
ROOT
ATOM      1  C   UNL     1       6.495   5.276  17.259  0.00  0.00    +0.000 A 
ATOM      2  C   UNL     1       6.752   6.414  16.536  0.00  0.00    +0.000 A 
ATOM      3  N   UNL     1       7.494   7.439  17.009  0.00  0.00    +0.000 NA
ATOM      4  C   UNL     1       8.023   7.306  18.236  0.00  0.00    +0.000 A 
ATOM      5  N   UNL     1       8.768   8.320  18.802  0.00  0.00    +0.000 N 
ATOM      6  N   UNL     1       7.875   6.211  18.992  0.00  0.00    +0.000 NA
ATOM      7  C   UNL     1       7.148   5.203  18.466  0.00  0.00    +0.000 A 
ATOM      8  H   UNL     1       8.739   8.191  19.808  0.00  0.00    +0.000 HD
ENDROOT
BRANCH   1  10
ATOM      9  O   UNL     1       6.081   3.605  15.714  0.00  0.00    +0.000 OA
ATOM     10  C   UNL     1       5.676   4.183  16.720  0.00  0.00    +0.000 C 
ATOM     11  N   UNL     1       4.519   3.826  17.381  0.00  0.00    +0.000 N 
ATOM     12  C   UNL     1       3.811   2.614  17.048  0.00  0.00    +0.000 C 
ATOM     13  C   UNL     1       3.197   2.233  18.385  0.00  0.00    +0.000 C 
ATOM     14  C   UNL     1       2.877   3.591  19.081  0.00  0.00    +0.000 C 
ATOM     15  C   UNL     1       3.341   3.580  20.553  0.00  0.00    +0.000 C 
ATOM     16  C   UNL     1       2.447   2.697  21.414  0.00  0.00    +0.000 C 
ATOM     17  O   UNL     1       1.091   3.131  21.321  0.00  0.00    +0.000 OA
ATOM     18  C   UNL     1       0.576   3.036  19.994  0.00  0.00    +0.000 C 
ATOM     19  C   UNL     1       1.375   3.918  19.040  0.00  0.00    +0.000 C 
ATOM     20  C   UNL     1       3.683   4.626  18.268  0.00  0.00    +0.000 C 
ENDBRANCH   1  10
BRANCH   5  21
ATOM     21  C   UNL     1       8.455   9.646  18.323  0.00  0.00    +0.000 C 
BRANCH  21  22
ATOM     22  C   UNL     1       9.445  10.633  18.882  0.00  0.00    +0.000 A 
ATOM     23  C   UNL     1      10.339  11.319  18.055  0.00  0.00    +0.000 A 
ATOM     24  C   UNL     1      11.216  12.251  18.607  0.00  0.00    +0.000 A 
ATOM     25  C   UNL     1      11.166  12.465  19.971  0.00  0.00    +0.000 A 
ATOM     26  N   UNL     1      10.318  11.825  20.804  0.00  0.00    +0.000 NA
ATOM     27  C   UNL     1       9.477  10.926  20.241  0.00  0.00    +0.000 A 
ENDBRANCH  21  22
ENDBRANCH   5  21
TORSDOF 3
ENDMDL
MODEL 2
REMARK VINA RESULT:      -8.5      6.291      8.151
REMARK  Name = 
REMARK  3 active torsions:
REMARK  status: ('A' for Active; 'I' for Inactive)
REMARK    1  A    between atoms: C_2  and  C_3
REMARK    2  A    between atoms: N_7  and  C_8
REMARK    3  A    between atoms: C_8  and  C_9
REMARK                            x       y       z     vdW  Elec       q    Type
REMARK                         _______ _______ _______ _____ _____    ______ ____
ROOT
ATOM      1  C   UNL     1       1.447   9.280  19.289  0.00  0.00    +0.000 A 
ATOM      2  C   UNL     1       1.852   8.912  18.030  0.00  0.00    +0.000 A 
ATOM      3  N   UNL     1       2.409   7.713  17.753  0.00  0.00    +0.000 NA
ATOM      4  C   UNL     1       2.536   6.841  18.766  0.00  0.00    +0.000 A 
ATOM      5  N   UNL     1       3.123   5.607  18.571  0.00  0.00    +0.000 N 
ATOM      6  N   UNL     1       2.119   7.089  20.014  0.00  0.00    +0.000 NA
ATOM      7  C   UNL     1       1.545   8.289  20.236  0.00  0.00    +0.000 A 
ATOM      8  H   UNL     1       3.459   5.287  19.474  0.00  0.00    +0.000 HD
ENDROOT
BRANCH   1  10
ATOM      9  O   UNL     1       1.514  11.400  20.213  0.00  0.00    +0.000 OA
ATOM     10  C   UNL     1       0.854  10.595  19.560  0.00  0.00    +0.000 C 
ATOM     11  N   UNL     1      -0.392  10.887  19.041  0.00  0.00    +0.000 N 
ATOM     12  C   UNL     1      -0.914  12.232  19.061  0.00  0.00    +0.000 C 
ATOM     13  C   UNL     1      -1.779  12.249  17.812  0.00  0.00    +0.000 C 
ATOM     14  C   UNL     1      -2.347  10.803  17.697  0.00  0.00    +0.000 C 
ATOM     15  C   UNL     1      -2.223  10.274  16.252  0.00  0.00    +0.000 C 
ATOM     16  C   UNL     1      -3.217  10.955  15.320  0.00  0.00    +0.000 C 
ATOM     17  O   UNL     1      -4.547  10.777  15.804  0.00  0.00    +0.000 OA
ATOM     18  C   UNL     1      -4.745  11.366  17.089  0.00  0.00    +0.000 C 
ATOM     19  C   UNL     1      -3.823  10.730  18.124  0.00  0.00    +0.000 C 
ATOM     20  C   UNL     1      -1.461   9.977  18.654  0.00  0.00    +0.000 C 
ENDBRANCH   1  10
BRANCH   5  21
ATOM     21  C   UNL     1       4.070   5.548  17.482  0.00  0.00    +0.000 C 
BRANCH  21  22
ATOM     22  C   UNL     1       5.462   5.769  18.011  0.00  0.00    +0.000 A 
ATOM     23  C   UNL     1       6.371   6.603  17.353  0.00  0.00    +0.000 A 
ATOM     24  C   UNL     1       7.638   6.810  17.894  0.00  0.00    +0.000 A 
ATOM     25  C   UNL     1       7.953   6.173  19.079  0.00  0.00    +0.000 A 
ATOM     26  N   UNL     1       7.105   5.361  19.747  0.00  0.00    +0.000 NA
ATOM     27  C   UNL     1       5.881   5.179  19.200  0.00  0.00    +0.000 A 
ENDBRANCH  21  22
ENDBRANCH   5  21
TORSDOF 3
ENDMDL
MODEL 3
REMARK VINA RESULT:      -8.3      1.263      1.517
REMARK  Name = 
REMARK  3 active torsions:
REMARK  status: ('A' for Active; 'I' for Inactive)
REMARK    1  A    between atoms: C_2  and  C_3
REMARK    2  A    between atoms: N_7  and  C_8
REMARK    3  A    between atoms: C_8  and  C_9
REMARK                            x       y       z     vdW  Elec       q    Type
REMARK                         _______ _______ _______ _____ _____    ______ ____
ROOT
ATOM      1  C   UNL     1       7.217   6.142  17.183  0.00  0.00    +0.000 A 
ATOM      2  C   UNL     1       7.403   7.373  16.604  0.00  0.00    +0.000 A 
ATOM      3  N   UNL     1       7.997   8.407  17.239  0.00  0.00    +0.000 NA
ATOM      4  C   UNL     1       8.449   8.191  18.485  0.00  0.00    +0.000 A 
ATOM      5  N   UNL     1       9.040   9.205  19.211  0.00  0.00    +0.000 N 
ATOM      6  N   UNL     1       8.364   7.010  19.110  0.00  0.00    +0.000 NA
ATOM      7  C   UNL     1       7.786   6.000  18.426  0.00  0.00    +0.000 A 
ATOM      8  H   UNL     1       8.953   8.962  20.193  0.00  0.00    +0.000 HD
ENDROOT
BRANCH   1  10
ATOM      9  O   UNL     1       7.169   4.511  15.544  0.00  0.00    +0.000 OA
ATOM     10  C   UNL     1       6.558   5.041  16.470  0.00  0.00    +0.000 C 
ATOM     11  N   UNL     1       5.311   4.624  16.888  0.00  0.00    +0.000 N 
ATOM     12  C   UNL     1       4.728   3.400  16.395  0.00  0.00    +0.000 C 
ATOM     13  C   UNL     1       3.887   2.955  17.580  0.00  0.00    +0.000 C 
ATOM     14  C   UNL     1       3.388   4.277  18.237  0.00  0.00    +0.000 C 
ATOM     15  C   UNL     1       3.565   4.233  19.770  0.00  0.00    +0.000 C 
ATOM     16  C   UNL     1       2.559   3.292  20.421  0.00  0.00    +0.000 C 
ATOM     17  O   UNL     1       1.229   3.683  20.083  0.00  0.00    +0.000 OA
ATOM     18  C   UNL     1       0.979   3.616  18.680  0.00  0.00    +0.000 C 
ATOM     19  C   UNL     1       1.910   4.554  17.919  0.00  0.00    +0.000 C 
ATOM     20  C   UNL     1       4.292   5.365  17.620  0.00  0.00    +0.000 C 
ENDBRANCH   1  10
BRANCH   5  21
ATOM     21  C   UNL     1       8.623  10.538  18.846  0.00  0.00    +0.000 C 
BRANCH  21  22
ATOM     22  C   UNL     1       9.833  11.420  18.688  0.00  0.00    +0.000 A 
ATOM     23  C   UNL     1      10.929  11.319  19.550  0.00  0.00    +0.000 A 
ATOM     24  C   UNL     1      12.045  12.128  19.349  0.00  0.00    +0.000 A 
ATOM     25  C   UNL     1      12.025  13.014  18.289  0.00  0.00    +0.000 A 
ATOM     26  N   UNL     1      10.989  13.142  17.433  0.00  0.00    +0.000 NA
ATOM     27  C   UNL     1       9.919  12.343  17.651  0.00  0.00    +0.000 A 
ENDBRANCH  21  22
ENDBRANCH   5  21
TORSDOF 3
ENDMDL
MODEL 4
REMARK VINA RESULT:      -8.1      5.421      8.314
REMARK  Name = 
REMARK  3 active torsions:
REMARK  status: ('A' for Active; 'I' for Inactive)
REMARK    1  A    between atoms: C_2  and  C_3
REMARK    2  A    between atoms: N_7  and  C_8
REMARK    3  A    between atoms: C_8  and  C_9
REMARK                            x       y       z     vdW  Elec       q    Type
REMARK                         _______ _______ _______ _____ _____    ______ ____
ROOT
ATOM      1  C   UNL     1       1.912   6.888  19.995  0.00  0.00    +0.000 A 
ATOM      2  C   UNL     1       2.145   7.721  18.930  0.00  0.00    +0.000 A 
ATOM      3  N   UNL     1       1.708   8.998  18.879  0.00  0.00    +0.000 NA
ATOM      4  C   UNL     1       1.040   9.467  19.946  0.00  0.00    +0.000 A 
ATOM      5  N   UNL     1       0.535  10.751  19.959  0.00  0.00    +0.000 N 
ATOM      6  N   UNL     1       0.814   8.748  21.052  0.00  0.00    +0.000 NA
ATOM      7  C   UNL     1       1.293   7.487  21.067  0.00  0.00    +0.000 A 
ATOM      8  H   UNL     1      -0.220  10.771  20.637  0.00  0.00    +0.000 HD
ENDROOT
BRANCH   1  10
ATOM      9  O   UNL     1       1.741   4.678  20.655  0.00  0.00    +0.000 OA
ATOM     10  C   UNL     1       2.392   5.501  20.016  0.00  0.00    +0.000 C 
ATOM     11  N   UNL     1       3.521   5.173  19.293  0.00  0.00    +0.000 N 
ATOM     12  C   UNL     1       3.895   3.797  19.074  0.00  0.00    +0.000 C 
ATOM     13  C   UNL     1       4.582   3.872  17.721  0.00  0.00    +0.000 C 
ATOM     14  C   UNL     1       5.282   5.265  17.703  0.00  0.00    +0.000 C 
ATOM     15  C   UNL     1       5.027   5.993  16.366  0.00  0.00    +0.000 C 
ATOM     16  C   UNL     1       5.812   5.358  15.225  0.00  0.00    +0.000 C 
ATOM     17  O   UNL     1       7.206   5.351  15.532  0.00  0.00    +0.000 OA
ATOM     18  C   UNL     1       7.506   4.579  16.693  0.00  0.00    +0.000 C 
ATOM     19  C   UNL     1       6.800   5.149  17.919  0.00  0.00    +0.000 C 
ATOM     20  C   UNL     1       4.621   6.029  18.870  0.00  0.00    +0.000 C 
ENDBRANCH   1  10
BRANCH   5  21
ATOM     21  C   UNL     1       0.236  11.301  18.658  0.00  0.00    +0.000 C 
BRANCH  21  22
ATOM     22  C   UNL     1      -1.219  11.083  18.339  0.00  0.00    +0.000 A 
ATOM     23  C   UNL     1      -1.635  10.051  17.492  0.00  0.00    +0.000 A 
ATOM     24  C   UNL     1      -2.993   9.859  17.251  0.00  0.00    +0.000 A 
ATOM     25  C   UNL     1      -3.892  10.709  17.867  0.00  0.00    +0.000 A 
ATOM     26  N   UNL     1      -3.533  11.716  18.692  0.00  0.00    +0.000 NA
ATOM     27  C   UNL     1      -2.207  11.879  18.910  0.00  0.00    +0.000 A 
ENDBRANCH  21  22
ENDBRANCH   5  21
TORSDOF 3
ENDMDL
MODEL 5
REMARK VINA RESULT:      -8.0      6.521      9.536
REMARK  Name = 
REMARK  3 active torsions:
REMARK  status: ('A' for Active; 'I' for Inactive)
REMARK    1  A    between atoms: C_2  and  C_3
REMARK    2  A    between atoms: N_7  and  C_8
REMARK    3  A    between atoms: C_8  and  C_9
REMARK                            x       y       z     vdW  Elec       q    Type
REMARK                         _______ _______ _______ _____ _____    ______ ____
ROOT
ATOM      1  C   UNL     1       1.114   9.608  20.070  0.00  0.00    +0.000 A 
ATOM      2  C   UNL     1       1.744   8.944  19.048  0.00  0.00    +0.000 A 
ATOM      3  N   UNL     1       2.212   7.682  19.162  0.00  0.00    +0.000 NA
ATOM      4  C   UNL     1       2.012   7.052  20.332  0.00  0.00    +0.000 A 
ATOM      5  N   UNL     1       2.486   5.772  20.538  0.00  0.00    +0.000 N 
ATOM      6  N   UNL     1       1.359   7.596  21.365  0.00  0.00    +0.000 NA
ATOM      7  C   UNL     1       0.887   8.849  21.194  0.00  0.00    +0.000 A 
ATOM      8  H   UNL     1       2.575   5.641  21.541  0.00  0.00    +0.000 HD
ENDROOT
BRANCH   1  10
ATOM      9  O   UNL     1       1.289  11.887  20.421  0.00  0.00    +0.000 OA
ATOM     10  C   UNL     1       0.626  10.984  19.917  0.00  0.00    +0.000 C 
ATOM     11  N   UNL     1      -0.524  11.208  19.188  0.00  0.00    +0.000 N 
ATOM     12  C   UNL     1      -0.912  12.542  18.796  0.00  0.00    +0.000 C 
ATOM     13  C   UNL     1      -1.635  12.284  17.485  0.00  0.00    +0.000 C 
ATOM     14  C   UNL     1      -2.326  10.899  17.673  0.00  0.00    +0.000 C 
ATOM     15  C   UNL     1      -2.103   9.998  16.440  0.00  0.00    +0.000 C 
ATOM     16  C   UNL     1      -2.922  10.472  15.246  0.00  0.00    +0.000 C 
ATOM     17  O   UNL     1      -4.307  10.517  15.587  0.00  0.00    +0.000 OA
ATOM     18  C   UNL     1      -4.581  11.438  16.642  0.00  0.00    +0.000 C 
ATOM     19  C   UNL     1      -3.839  11.040  17.913  0.00  0.00    +0.000 C 
ATOM     20  C   UNL     1      -1.630  10.301  18.914  0.00  0.00    +0.000 C 
ENDBRANCH   1  10
BRANCH   5  21
ATOM     21  C   UNL     1       3.639   5.414  19.745  0.00  0.00    +0.000 C 
BRANCH  21  22
ATOM     22  C   UNL     1       3.336   4.178  18.942  0.00  0.00    +0.000 A 
ATOM     23  C   UNL     1       3.870   2.932  19.287  0.00  0.00    +0.000 A 
ATOM     24  C   UNL     1       3.536   1.805  18.540  0.00  0.00    +0.000 A 
ATOM     25  C   UNL     1       2.677   1.963  17.469  0.00  0.00    +0.000 A 
ATOM     26  N   UNL     1       2.139   3.146  17.103  0.00  0.00    +0.000 NA
ATOM     27  C   UNL     1       2.479   4.224  17.847  0.00  0.00    +0.000 A 
ENDBRANCH  21  22
ENDBRANCH   5  21
TORSDOF 3
ENDMDL
MODEL 6
REMARK VINA RESULT:      -7.8      1.246      1.661
REMARK  Name = 
REMARK  3 active torsions:
REMARK  status: ('A' for Active; 'I' for Inactive)
REMARK    1  A    between atoms: C_2  and  C_3
REMARK    2  A    between atoms: N_7  and  C_8
REMARK    3  A    between atoms: C_8  and  C_9
REMARK                            x       y       z     vdW  Elec       q    Type
REMARK                         _______ _______ _______ _____ _____    ______ ____
ROOT
ATOM      1  C   UNL     1       6.794   6.059  17.288  0.00  0.00    +0.000 A 
ATOM      2  C   UNL     1       7.688   6.265  18.308  0.00  0.00    +0.000 A 
ATOM      3  N   UNL     1       8.168   7.484  18.636  0.00  0.00    +0.000 NA
ATOM      4  C   UNL     1       7.713   8.537  17.937  0.00  0.00    +0.000 A 
ATOM      5  N   UNL     1       8.178   9.812  18.191  0.00  0.00    +0.000 N 
ATOM      6  N   UNL     1       6.800   8.442  16.964  0.00  0.00    +0.000 NA
ATOM      7  C   UNL     1       6.330   7.206  16.690  0.00  0.00    +0.000 A 
ATOM      8  H   UNL     1       8.021  10.362  17.353  0.00  0.00    +0.000 HD
ENDROOT
BRANCH   1  10
ATOM      9  O   UNL     1       7.022   3.993  16.272  0.00  0.00    +0.000 OA
ATOM     10  C   UNL     1       6.298   4.719  16.949  0.00  0.00    +0.000 C 
ATOM     11  N   UNL     1       5.070   4.319  17.434  0.00  0.00    +0.000 N 
ATOM     12  C   UNL     1       4.643   2.943  17.346  0.00  0.00    +0.000 C 
ATOM     13  C   UNL     1       3.766   2.809  18.579  0.00  0.00    +0.000 C 
ATOM     14  C   UNL     1       3.096   4.206  18.749  0.00  0.00    +0.000 C 
ATOM     15  C   UNL     1       3.164   4.677  20.218  0.00  0.00    +0.000 C 
ATOM     16  C   UNL     1       2.208   3.886  21.103  0.00  0.00    +0.000 C 
ATOM     17  O   UNL     1       0.875   3.993  20.605  0.00  0.00    +0.000 OA
ATOM     18  C   UNL     1       0.736   3.451  19.293  0.00  0.00    +0.000 C 
ATOM     19  C   UNL     1       1.624   4.196  18.303  0.00  0.00    +0.000 C 
ATOM     20  C   UNL     1       3.934   5.134  17.844  0.00  0.00    +0.000 C 
ENDBRANCH   1  10
BRANCH   5  21
ATOM     21  C   UNL     1       9.507   9.875  18.754  0.00  0.00    +0.000 C 
BRANCH  21  22
ATOM     22  C   UNL     1      10.096  11.238  18.507  0.00  0.00    +0.000 A 
ATOM     23  C   UNL     1      11.438  11.515  18.784  0.00  0.00    +0.000 A 
ATOM     24  C   UNL     1      11.955  12.779  18.507  0.00  0.00    +0.000 A 
ATOM     25  C   UNL     1      11.107  13.725  17.962  0.00  0.00    +0.000 A 
ATOM     26  N   UNL     1       9.807  13.498  17.679  0.00  0.00    +0.000 NA
ATOM     27  C   UNL     1       9.332  12.262  17.956  0.00  0.00    +0.000 A 
ENDBRANCH  21  22
ENDBRANCH   5  21
TORSDOF 3
ENDMDL
MODEL 7
REMARK VINA RESULT:      -7.8      0.907      1.458
REMARK  Name = 
REMARK  3 active torsions:
REMARK  status: ('A' for Active; 'I' for Inactive)
REMARK    1  A    between atoms: C_2  and  C_3
REMARK    2  A    between atoms: N_7  and  C_8
REMARK    3  A    between atoms: C_8  and  C_9
REMARK                            x       y       z     vdW  Elec       q    Type
REMARK                         _______ _______ _______ _____ _____    ______ ____
ROOT
ATOM      1  C   UNL     1       6.169   5.461  16.988  0.00  0.00    +0.000 A 
ATOM      2  C   UNL     1       7.034   5.616  18.042  0.00  0.00    +0.000 A 
ATOM      3  N   UNL     1       7.575   6.805  18.387  0.00  0.00    +0.000 NA
ATOM      4  C   UNL     1       7.212   7.881  17.669  0.00  0.00    +0.000 A 
ATOM      5  N   UNL     1       7.744   9.126  17.940  0.00  0.00    +0.000 N 
ATOM      6  N   UNL     1       6.333   7.838  16.661  0.00  0.00    +0.000 NA
ATOM      7  C   UNL     1       5.800   6.632  16.372  0.00  0.00    +0.000 A 
ATOM      8  H   UNL     1       7.653   9.682  17.095  0.00  0.00    +0.000 HD
ENDROOT
BRANCH   1  10
ATOM      9  O   UNL     1       6.181   3.496  15.768  0.00  0.00    +0.000 OA
ATOM     10  C   UNL     1       5.606   4.153  16.632  0.00  0.00    +0.000 C 
ATOM     11  N   UNL     1       4.488   3.701  17.304  0.00  0.00    +0.000 N 
ATOM     12  C   UNL     1       4.040   2.335  17.176  0.00  0.00    +0.000 C 
ATOM     13  C   UNL     1       3.411   2.085  18.537  0.00  0.00    +0.000 C 
ATOM     14  C   UNL     1       2.798   3.456  18.954  0.00  0.00    +0.000 C 
ATOM     15  C   UNL     1       3.148   3.795  20.418  0.00  0.00    +0.000 C 
ATOM     16  C   UNL     1       2.370   2.921  21.395  0.00  0.00    +0.000 C 
ATOM     17  O   UNL     1       0.968   3.062  21.171  0.00  0.00    +0.000 OA
ATOM     18  C   UNL     1       0.577   2.637  19.866  0.00  0.00    +0.000 C 
ATOM     19  C   UNL     1       1.269   3.474  18.795  0.00  0.00    +0.000 C 
ATOM     20  C   UNL     1       3.458   4.468  17.992  0.00  0.00    +0.000 C 
ENDBRANCH   1  10
BRANCH   5  21
ATOM     21  C   UNL     1       9.051   9.110  18.553  0.00  0.00    +0.000 C 
BRANCH  21  22
ATOM     22  C   UNL     1       9.405  10.494  19.026  0.00  0.00    +0.000 A 
ATOM     23  C   UNL     1       9.584  10.781  20.382  0.00  0.00    +0.000 A 
ATOM     24  C   UNL     1       9.947  12.067  20.776  0.00  0.00    +0.000 A 
ATOM     25  C   UNL     1      10.117  13.025  19.795  0.00  0.00    +0.000 A 
ATOM     26  N   UNL     1       9.956  12.791  18.475  0.00  0.00    +0.000 NA
ATOM     27  C   UNL     1       9.605  11.533  18.121  0.00  0.00    +0.000 A 
ENDBRANCH  21  22
ENDBRANCH   5  21
TORSDOF 3
ENDMDL
MODEL 8
REMARK VINA RESULT:      -7.7      5.438      6.920
REMARK  Name = 
REMARK  3 active torsions:
REMARK  status: ('A' for Active; 'I' for Inactive)
REMARK    1  A    between atoms: C_2  and  C_3
REMARK    2  A    between atoms: N_7  and  C_8
REMARK    3  A    between atoms: C_8  and  C_9
REMARK                            x       y       z     vdW  Elec       q    Type
REMARK                         _______ _______ _______ _____ _____    ______ ____
ROOT
ATOM      1  C   UNL     1       2.077   7.718  19.203  0.00  0.00    +0.000 A 
ATOM      2  C   UNL     1       1.442   8.540  20.099  0.00  0.00    +0.000 A 
ATOM      3  N   UNL     1       1.072   9.807  19.809  0.00  0.00    +0.000 NA
ATOM      4  C   UNL     1       1.320  10.254  18.566  0.00  0.00    +0.000 A 
ATOM      5  N   UNL     1       1.000  11.545  18.200  0.00  0.00    +0.000 N 
ATOM      6  N   UNL     1       1.883   9.507  17.609  0.00  0.00    +0.000 NA
ATOM      7  C   UNL     1       2.210   8.241  17.939  0.00  0.00    +0.000 A 
ATOM      8  H   UNL     1       1.588  11.789  17.409  0.00  0.00    +0.000 HD
ENDROOT
BRANCH   1  10
ATOM      9  O   UNL     1       1.766   5.729  20.342  0.00  0.00    +0.000 OA
ATOM     10  C   UNL     1       2.475   6.349  19.553  0.00  0.00    +0.000 C 
ATOM     11  N   UNL     1       3.595   5.805  18.958  0.00  0.00    +0.000 N 
ATOM     12  C   UNL     1       3.892   4.397  19.069  0.00  0.00    +0.000 C 
ATOM     13  C   UNL     1       4.607   4.125  17.756  0.00  0.00    +0.000 C 
ATOM     14  C   UNL     1       5.387   5.437  17.444  0.00  0.00    +0.000 C 
ATOM     15  C   UNL     1       5.199   5.854  15.969  0.00  0.00    +0.000 C 
ATOM     16  C   UNL     1       5.966   4.934  15.027  0.00  0.00    +0.000 C 
ATOM     17  O   UNL     1       7.351   4.923  15.370  0.00  0.00    +0.000 OA
ATOM     18  C   UNL     1       7.584   4.422  16.685  0.00  0.00    +0.000 C 
ATOM     19  C   UNL     1       6.891   5.293  17.727  0.00  0.00    +0.000 C 
ATOM     20  C   UNL     1       4.752   6.482  18.386  0.00  0.00    +0.000 C 
ENDBRANCH   1  10
BRANCH   5  21
ATOM     21  C   UNL     1       0.970  12.497  19.287  0.00  0.00    +0.000 C 
BRANCH  21  22
ATOM     22  C   UNL     1       1.650  13.771  18.862  0.00  0.00    +0.000 A 
ATOM     23  C   UNL     1       2.926  13.763  18.292  0.00  0.00    +0.000 A 
ATOM     24  C   UNL     1       3.507  14.959  17.878  0.00  0.00    +0.000 A 
ATOM     25  C   UNL     1       2.788  16.127  18.051  0.00  0.00    +0.000 A 
ATOM     26  N   UNL     1       1.554  16.178  18.595  0.00  0.00    +0.000 NA
ATOM     27  C   UNL     1       1.013  15.001  18.986  0.00  0.00    +0.000 A 
ENDBRANCH  21  22
ENDBRANCH   5  21
TORSDOF 3
ENDMDL
MODEL 9
REMARK VINA RESULT:      -7.7      4.922      6.504
REMARK  Name = 
REMARK  3 active torsions:
REMARK  status: ('A' for Active; 'I' for Inactive)
REMARK    1  A    between atoms: C_2  and  C_3
REMARK    2  A    between atoms: N_7  and  C_8
REMARK    3  A    between atoms: C_8  and  C_9
REMARK                            x       y       z     vdW  Elec       q    Type
REMARK                         _______ _______ _______ _____ _____    ______ ____
ROOT
ATOM      1  C   UNL     1       2.092   7.659  19.199  0.00  0.00    +0.000 A 
ATOM      2  C   UNL     1       1.449   8.460  20.109  0.00  0.00    +0.000 A 
ATOM      3  N   UNL     1       1.076   9.731  19.843  0.00  0.00    +0.000 NA
ATOM      4  C   UNL     1       1.329  10.205  18.612  0.00  0.00    +0.000 A 
ATOM      5  N   UNL     1       1.006  11.503  18.272  0.00  0.00    +0.000 N 
ATOM      6  N   UNL     1       1.900   9.481  17.642  0.00  0.00    +0.000 NA
ATOM      7  C   UNL     1       2.230   8.209  17.947  0.00  0.00    +0.000 A 
ATOM      8  H   UNL     1       1.597  11.765  17.489  0.00  0.00    +0.000 HD
ENDROOT
BRANCH   1  10
ATOM      9  O   UNL     1       1.786   5.648  20.300  0.00  0.00    +0.000 OA
ATOM     10  C   UNL     1       2.494   6.284  19.523  0.00  0.00    +0.000 C 
ATOM     11  N   UNL     1       3.614   5.754  18.916  0.00  0.00    +0.000 N 
ATOM     12  C   UNL     1       3.913   4.345  18.999  0.00  0.00    +0.000 C 
ATOM     13  C   UNL     1       4.626   4.099  17.680  0.00  0.00    +0.000 C 
ATOM     14  C   UNL     1       5.403   5.419  17.391  0.00  0.00    +0.000 C 
ATOM     15  C   UNL     1       5.212   5.863  15.926  0.00  0.00    +0.000 C 
ATOM     16  C   UNL     1       5.980   4.963  14.965  0.00  0.00    +0.000 C 
ATOM     17  O   UNL     1       7.365   4.948  15.305  0.00  0.00    +0.000 OA
ATOM     18  C   UNL     1       7.602   4.422  16.610  0.00  0.00    +0.000 C 
ATOM     19  C   UNL     1       6.908   5.272  17.670  0.00  0.00    +0.000 C 
ATOM     20  C   UNL     1       4.768   6.444  18.355  0.00  0.00    +0.000 C 
ENDBRANCH   1  10
BRANCH   5  21
ATOM     21  C   UNL     1       0.967  12.431  19.378  0.00  0.00    +0.000 C 
BRANCH  21  22
ATOM     22  C   UNL     1       2.211  13.278  19.372  0.00  0.00    +0.000 A 
ATOM     23  C   UNL     1       2.798  13.706  18.177  0.00  0.00    +0.000 A 
ATOM     24  C   UNL     1       3.928  14.520  18.214  0.00  0.00    +0.000 A 
ATOM     25  C   UNL     1       4.434  14.876  19.449  0.00  0.00    +0.000 A 
ATOM     26  N   UNL     1       3.898  14.486  20.625  0.00  0.00    +0.000 NA
ATOM     27  C   UNL     1       2.800  13.698  20.560  0.00  0.00    +0.000 A 
ENDBRANCH  21  22
ENDBRANCH   5  21
TORSDOF 3
ENDMDL
