MODEL 1
REMARK VINA RESULT:      -7.2      0.000      0.000
REMARK  Name = 
REMARK  7 active torsions:
REMARK  status: ('A' for Active; 'I' for Inactive)
REMARK    1  A    between atoms: C_1  and  C_2
REMARK    2  A    between atoms: C_6  and  N_7
REMARK    3  A    between atoms: C_8  and  S_9
REMARK    4  A    between atoms: N_10  and  C_11
REMARK    5  A    between atoms: C_11  and  C_12
REMARK    6  A    between atoms: C_12  and  C_13
REMARK    7  A    between atoms: C_12  and  N_19
REMARK                            x       y       z     vdW  Elec       q    Type
REMARK                         _______ _______ _______ _____ _____    ______ ____
ROOT
ATOM      1  C   UNL     1       4.901   5.901  16.248  0.00  0.00    +0.000 C 
ENDROOT
BRANCH   1   4
ATOM      2  N   UNL     1       2.711   6.304  19.192  0.00  0.00    +0.000 N 
ATOM      3  C   UNL     1       3.468   6.485  18.068  0.00  0.00    +0.000 C 
ATOM      4  N   UNL     1       4.190   5.597  17.487  0.00  0.00    +0.000 NA
ATOM      5  H   UNL     1       2.099   7.082  19.400  0.00  0.00    +0.000 HD
BRANCH   2  11
ATOM      6  C   UNL     1       0.532   1.936  18.607  0.00  0.00    +0.000 C 
ATOM      7  C   UNL     1       1.198   2.928  19.517  0.00  0.00    +0.000 A 
ATOM      8  C   UNL     1       1.453   2.625  20.852  0.00  0.00    +0.000 A 
ATOM      9  C   UNL     1       2.117   3.546  21.664  0.00  0.00    +0.000 A 
ATOM     10  C   UNL     1       2.532   4.775  21.134  0.00  0.00    +0.000 A 
ATOM     11  C   UNL     1       2.308   5.098  19.793  0.00  0.00    +0.000 A 
ATOM     12  C   UNL     1       1.605   4.165  19.006  0.00  0.00    +0.000 A 
ENDBRANCH   2  11
BRANCH   3  13
ATOM     13  S   UNL     1       3.309   8.142  17.480  0.00  0.00    +0.000 S 
ATOM     14  H   UNL     1       2.097   8.360  18.004  0.00  0.00    +0.000 HD
ENDBRANCH   3  13
ENDBRANCH   1   4
BRANCH   1  15
ATOM     15  C   UNL     1       6.064   4.881  16.005  0.00  0.00    +0.000 C 
BRANCH  15  16
ATOM     16  C   UNL     1       6.273   4.459  14.546  0.00  0.00    +0.000 A 
ATOM     17  C   UNL     1       5.315   3.696  13.859  0.00  0.00    +0.000 A 
ATOM     18  C   UNL     1       5.486   3.364  12.516  0.00  0.00    +0.000 A 
ATOM     19  C   UNL     1       6.604   3.841  11.860  0.00  0.00    +0.000 A 
ATOM     20  N   UNL     1       7.539   4.603  12.458  0.00  0.00    +0.000 NA
ATOM     21  C   UNL     1       7.346   4.897  13.771  0.00  0.00    +0.000 A 
ENDBRANCH  15  16
BRANCH  15  22
ATOM     22  N   UNL     1       7.254   5.383  16.708  0.00  0.00    +0.000 NA
ATOM     23  C   UNL     1       7.761   4.730  17.912  0.00  0.00    +0.000 C 
ATOM     24  C   UNL     1       7.627   5.577  19.187  0.00  0.00    +0.000 C 
ATOM     25  O   UNL     1       8.127   6.907  19.000  0.00  0.00    +0.000 OA
ATOM     26  C   UNL     1       7.422   7.547  17.930  0.00  0.00    +0.000 C 
ATOM     27  C   UNL     1       7.623   6.789  16.610  0.00  0.00    +0.000 C 
ENDBRANCH  15  22
ENDBRANCH   1  15
TORSDOF 6
ENDMDL
MODEL 2
REMARK VINA RESULT:      -7.1      6.002      8.603
REMARK  Name = 
REMARK  7 active torsions:
REMARK  status: ('A' for Active; 'I' for Inactive)
REMARK    1  A    between atoms: C_1  and  C_2
REMARK    2  A    between atoms: C_6  and  N_7
REMARK    3  A    between atoms: C_8  and  S_9
REMARK    4  A    between atoms: N_10  and  C_11
REMARK    5  A    between atoms: C_11  and  C_12
REMARK    6  A    between atoms: C_12  and  C_13
REMARK    7  A    between atoms: C_12  and  N_19
REMARK                            x       y       z     vdW  Elec       q    Type
REMARK                         _______ _______ _______ _____ _____    ______ ____
ROOT
ATOM      1  C   UNL     1      -0.603  10.183  20.270  0.00  0.00    +0.000 C 
ENDROOT
BRANCH   1   4
ATOM      2  N   UNL     1       1.911   7.615  21.116  0.00  0.00    +0.000 N 
ATOM      3  C   UNL     1       1.038   8.666  21.118  0.00  0.00    +0.000 C 
ATOM      4  N   UNL     1       0.348   9.085  20.119  0.00  0.00    +0.000 NA
ATOM      5  H   UNL     1       2.234   7.353  22.038  0.00  0.00    +0.000 HD
BRANCH   2  11
ATOM      6  C   UNL     1       0.986   2.931  19.940  0.00  0.00    +0.000 C 
ATOM      7  C   UNL     1       1.612   4.247  19.578  0.00  0.00    +0.000 A 
ATOM      8  C   UNL     1       2.224   4.440  18.342  0.00  0.00    +0.000 A 
ATOM      9  C   UNL     1       2.757   5.687  18.011  0.00  0.00    +0.000 A 
ATOM     10  C   UNL     1       2.671   6.748  18.922  0.00  0.00    +0.000 A 
ATOM     11  C   UNL     1       2.045   6.591  20.162  0.00  0.00    +0.000 A 
ATOM     12  C   UNL     1       1.549   5.312  20.484  0.00  0.00    +0.000 A 
ENDBRANCH   2  11
BRANCH   3  13
ATOM     13  S   UNL     1       0.954   9.393  22.726  0.00  0.00    +0.000 S 
ATOM     14  H   UNL     1      -0.040   8.617  23.176  0.00  0.00    +0.000 HD
ENDBRANCH   3  13
ENDBRANCH   1   4
BRANCH   1  15
ATOM     15  C   UNL     1      -0.639  11.075  18.985  0.00  0.00    +0.000 C 
BRANCH  15  16
ATOM     16  C   UNL     1      -1.907  10.949  18.133  0.00  0.00    +0.000 A 
ATOM     17  C   UNL     1      -3.077  11.657  18.451  0.00  0.00    +0.000 A 
ATOM     18  C   UNL     1      -4.209  11.581  17.641  0.00  0.00    +0.000 A 
ATOM     19  C   UNL     1      -4.140  10.824  16.489  0.00  0.00    +0.000 A 
ATOM     20  N   UNL     1      -3.036  10.150  16.115  0.00  0.00    +0.000 NA
ATOM     21  C   UNL     1      -1.956  10.236  16.935  0.00  0.00    +0.000 A 
ENDBRANCH  15  16
BRANCH  15  22
ATOM     22  N   UNL     1      -0.259  12.441  19.377  0.00  0.00    +0.000 NA
ATOM     23  C   UNL     1       0.141  13.435  18.384  0.00  0.00    +0.000 C 
ATOM     24  C   UNL     1       1.617  13.850  18.472  0.00  0.00    +0.000 C 
ATOM     25  O   UNL     1       1.998  14.189  19.811  0.00  0.00    +0.000 OA
ATOM     26  C   UNL     1       1.767  13.074  20.681  0.00  0.00    +0.000 C 
ATOM     27  C   UNL     1       0.278  12.698  20.706  0.00  0.00    +0.000 C 
ENDBRANCH  15  22
ENDBRANCH   1  15
TORSDOF 6
ENDMDL
MODEL 3
REMARK VINA RESULT:      -7.0      0.728      1.657
REMARK  Name = 
REMARK  7 active torsions:
REMARK  status: ('A' for Active; 'I' for Inactive)
REMARK    1  A    between atoms: C_1  and  C_2
REMARK    2  A    between atoms: C_6  and  N_7
REMARK    3  A    between atoms: C_8  and  S_9
REMARK    4  A    between atoms: N_10  and  C_11
REMARK    5  A    between atoms: C_11  and  C_12
REMARK    6  A    between atoms: C_12  and  C_13
REMARK    7  A    between atoms: C_12  and  N_19
REMARK                            x       y       z     vdW  Elec       q    Type
REMARK                         _______ _______ _______ _____ _____    ______ ____
ROOT
ATOM      1  C   UNL     1       4.999   5.989  16.158  0.00  0.00    +0.000 C 
ENDROOT
BRANCH   1   4
ATOM      2  N   UNL     1       2.411   5.934  18.790  0.00  0.00    +0.000 N 
ATOM      3  C   UNL     1       3.324   6.287  17.837  0.00  0.00    +0.000 C 
ATOM      4  N   UNL     1       4.111   5.492  17.206  0.00  0.00    +0.000 NA
ATOM      5  H   UNL     1       1.785   6.686  19.051  0.00  0.00    +0.000 HD
BRANCH   2  11
ATOM      6  C   UNL     1       1.596   2.534  22.247  0.00  0.00    +0.000 C 
ATOM      7  C   UNL     1       1.522   2.943  20.803  0.00  0.00    +0.000 A 
ATOM      8  C   UNL     1       0.926   2.120  19.851  0.00  0.00    +0.000 A 
ATOM      9  C   UNL     1       0.827   2.544  18.524  0.00  0.00    +0.000 A 
ATOM     10  C   UNL     1       1.322   3.801  18.152  0.00  0.00    +0.000 A 
ATOM     11  C   UNL     1       1.908   4.656  19.090  0.00  0.00    +0.000 A 
ATOM     12  C   UNL     1       2.026   4.188  20.413  0.00  0.00    +0.000 A 
ENDBRANCH   2  11
BRANCH   3  13
ATOM     13  S   UNL     1       3.276   8.030  17.554  0.00  0.00    +0.000 S 
ATOM     14  H   UNL     1       4.586   8.236  17.738  0.00  0.00    +0.000 HD
ENDBRANCH   3  13
ENDBRANCH   1   4
BRANCH   1  15
ATOM     15  C   UNL     1       6.155   4.973  15.876  0.00  0.00    +0.000 C 
BRANCH  15  16
ATOM     16  C   UNL     1       6.388   4.638  14.398  0.00  0.00    +0.000 A 
ATOM     17  C   UNL     1       7.469   5.180  13.685  0.00  0.00    +0.000 A 
ATOM     18  C   UNL     1       7.707   4.828  12.357  0.00  0.00    +0.000 A 
ATOM     19  C   UNL     1       6.877   3.895  11.768  0.00  0.00    +0.000 A 
ATOM     20  N   UNL     1       5.846   3.317  12.412  0.00  0.00    +0.000 NA
ATOM     21  C   UNL     1       5.635   3.694  13.700  0.00  0.00    +0.000 A 
ENDBRANCH  15  16
BRANCH  15  22
ATOM     22  N   UNL     1       7.337   5.419  16.629  0.00  0.00    +0.000 NA
ATOM     23  C   UNL     1       7.797   4.706  17.818  0.00  0.00    +0.000 C 
ATOM     24  C   UNL     1       7.648   5.502  19.123  0.00  0.00    +0.000 C 
ATOM     25  O   UNL     1       8.182   6.827  19.005  0.00  0.00    +0.000 OA
ATOM     26  C   UNL     1       7.519   7.526  17.945  0.00  0.00    +0.000 C 
ATOM     27  C   UNL     1       7.739   6.819  16.600  0.00  0.00    +0.000 C 
ENDBRANCH  15  22
ENDBRANCH   1  15
TORSDOF 6
ENDMDL
MODEL 4
REMARK VINA RESULT:      -7.0      5.975      8.531
REMARK  Name = 
REMARK  7 active torsions:
REMARK  status: ('A' for Active; 'I' for Inactive)
REMARK    1  A    between atoms: C_1  and  C_2
REMARK    2  A    between atoms: C_6  and  N_7
REMARK    3  A    between atoms: C_8  and  S_9
REMARK    4  A    between atoms: N_10  and  C_11
REMARK    5  A    between atoms: C_11  and  C_12
REMARK    6  A    between atoms: C_12  and  C_13
REMARK    7  A    between atoms: C_12  and  N_19
REMARK                            x       y       z     vdW  Elec       q    Type
REMARK                         _______ _______ _______ _____ _____    ______ ____
ROOT
ATOM      1  C   UNL     1      -0.529  10.254  20.103  0.00  0.00    +0.000 C 
ENDROOT
BRANCH   1   4
ATOM      2  N   UNL     1       1.868   7.621  21.076  0.00  0.00    +0.000 N 
ATOM      3  C   UNL     1       1.028   8.698  21.033  0.00  0.00    +0.000 C 
ATOM      4  N   UNL     1       0.394   9.127  20.002  0.00  0.00    +0.000 NA
ATOM      5  H   UNL     1       2.144   7.359  22.014  0.00  0.00    +0.000 HD
BRANCH   2  11
ATOM      6  C   UNL     1       1.008   2.905  19.985  0.00  0.00    +0.000 C 
ATOM      7  C   UNL     1       1.611   4.225  19.596  0.00  0.00    +0.000 A 
ATOM      8  C   UNL     1       2.210   4.406  18.352  0.00  0.00    +0.000 A 
ATOM      9  C   UNL     1       2.720   5.656  17.997  0.00  0.00    +0.000 A 
ATOM     10  C   UNL     1       2.625   6.731  18.891  0.00  0.00    +0.000 A 
ATOM     11  C   UNL     1       2.011   6.584  20.139  0.00  0.00    +0.000 A 
ATOM     12  C   UNL     1       1.537   5.303  20.485  0.00  0.00    +0.000 A 
ENDBRANCH   2  11
BRANCH   3  13
ATOM     13  S   UNL     1       0.899   9.443  22.629  0.00  0.00    +0.000 S 
ATOM     14  H   UNL     1       1.360   8.388  23.312  0.00  0.00    +0.000 HD
ENDBRANCH   3  13
ENDBRANCH   1   4
BRANCH   1  15
ATOM     15  C   UNL     1      -0.498  11.122  18.800  0.00  0.00    +0.000 C 
BRANCH  15  16
ATOM     16  C   UNL     1      -1.712  10.964  17.877  0.00  0.00    +0.000 A 
ATOM     17  C   UNL     1      -1.788   9.923  16.938  0.00  0.00    +0.000 A 
ATOM     18  C   UNL     1      -2.918   9.752  16.140  0.00  0.00    +0.000 A 
ATOM     19  C   UNL     1      -3.986  10.607  16.326  0.00  0.00    +0.000 A 
ATOM     20  N   UNL     1      -3.984  11.602  17.233  0.00  0.00    +0.000 NA
ATOM     21  C   UNL     1      -2.861  11.747  17.984  0.00  0.00    +0.000 A 
ENDBRANCH  15  16
BRANCH  15  22
ATOM     22  N   UNL     1      -0.159  12.500  19.188  0.00  0.00    +0.000 NA
ATOM     23  C   UNL     1       1.031  13.167  18.667  0.00  0.00    +0.000 C 
ATOM     24  C   UNL     1       2.107  13.448  19.726  0.00  0.00    +0.000 C 
ATOM     25  O   UNL     1       1.559  14.077  20.891  0.00  0.00    +0.000 OA
ATOM     26  C   UNL     1       0.539  13.246  21.459  0.00  0.00    +0.000 C 
ATOM     27  C   UNL     1      -0.612  13.033  20.466  0.00  0.00    +0.000 C 
ENDBRANCH  15  22
ENDBRANCH   1  15
TORSDOF 6
ENDMDL
MODEL 5
REMARK VINA RESULT:      -7.0      2.856      7.347
REMARK  Name = 
REMARK  7 active torsions:
REMARK  status: ('A' for Active; 'I' for Inactive)
REMARK    1  A    between atoms: C_1  and  C_2
REMARK    2  A    between atoms: C_6  and  N_7
REMARK    3  A    between atoms: C_8  and  S_9
REMARK    4  A    between atoms: N_10  and  C_11
REMARK    5  A    between atoms: C_11  and  C_12
REMARK    6  A    between atoms: C_12  and  C_13
REMARK    7  A    between atoms: C_12  and  N_19
REMARK                            x       y       z     vdW  Elec       q    Type
REMARK                         _______ _______ _______ _____ _____    ______ ____
ROOT
ATOM      1  C   UNL     1       2.304   4.856  17.924  0.00  0.00    +0.000 C 
ENDROOT
BRANCH   1   4
ATOM      2  N   UNL     1       5.464   3.288  16.838  0.00  0.00    +0.000 N 
ATOM      3  C   UNL     1       4.285   3.607  17.451  0.00  0.00    +0.000 C 
ATOM      4  N   UNL     1       3.585   4.664  17.250  0.00  0.00    +0.000 NA
ATOM      5  H   UNL     1       5.775   2.343  17.021  0.00  0.00    +0.000 HD
BRANCH   2  11
ATOM      6  C   UNL     1       5.622   3.303  11.923  0.00  0.00    +0.000 C 
ATOM      7  C   UNL     1       6.134   3.845  13.227  0.00  0.00    +0.000 A 
ATOM      8  C   UNL     1       7.060   4.885  13.263  0.00  0.00    +0.000 A 
ATOM      9  C   UNL     1       7.484   5.403  14.488  0.00  0.00    +0.000 A 
ATOM     10  C   UNL     1       6.973   4.879  15.684  0.00  0.00    +0.000 A 
ATOM     11  C   UNL     1       6.028   3.849  15.679  0.00  0.00    +0.000 A 
ATOM     12  C   UNL     1       5.646   3.322  14.430  0.00  0.00    +0.000 A 
ENDBRANCH   2  11
BRANCH   3  13
ATOM     13  S   UNL     1       3.813   2.332  18.578  0.00  0.00    +0.000 S 
ATOM     14  H   UNL     1       2.873   3.047  19.209  0.00  0.00    +0.000 HD
ENDBRANCH   3  13
ENDBRANCH   1   4
BRANCH   1  15
ATOM     15  C   UNL     1       2.483   5.677  19.245  0.00  0.00    +0.000 C 
BRANCH  15  16
ATOM     16  C   UNL     1       2.171   7.174  19.134  0.00  0.00    +0.000 A 
ATOM     17  C   UNL     1       2.316   7.865  17.921  0.00  0.00    +0.000 A 
ATOM     18  C   UNL     1       1.978   9.214  17.814  0.00  0.00    +0.000 A 
ATOM     19  C   UNL     1       1.454   9.848  18.923  0.00  0.00    +0.000 A 
ATOM     20  N   UNL     1       1.262   9.228  20.103  0.00  0.00    +0.000 NA
ATOM     21  C   UNL     1       1.615   7.918  20.175  0.00  0.00    +0.000 A 
ENDBRANCH  15  16
BRANCH  15  22
ATOM     22  N   UNL     1       1.788   4.952  20.320  0.00  0.00    +0.000 NA
ATOM     23  C   UNL     1       2.492   4.517  21.523  0.00  0.00    +0.000 C 
ATOM     24  C   UNL     1       2.618   2.992  21.658  0.00  0.00    +0.000 C 
ATOM     25  O   UNL     1       1.362   2.331  21.455  0.00  0.00    +0.000 OA
ATOM     26  C   UNL     1       0.848   2.652  20.157  0.00  0.00    +0.000 C 
ATOM     27  C   UNL     1       0.602   4.161  20.021  0.00  0.00    +0.000 C 
ENDBRANCH  15  22
ENDBRANCH   1  15
TORSDOF 6
ENDMDL
MODEL 6
REMARK VINA RESULT:      -6.8      2.699      5.087
REMARK  Name = 
REMARK  7 active torsions:
REMARK  status: ('A' for Active; 'I' for Inactive)
REMARK    1  A    between atoms: C_1  and  C_2
REMARK    2  A    between atoms: C_6  and  N_7
REMARK    3  A    between atoms: C_8  and  S_9
REMARK    4  A    between atoms: N_10  and  C_11
REMARK    5  A    between atoms: C_11  and  C_12
REMARK    6  A    between atoms: C_12  and  C_13
REMARK    7  A    between atoms: C_12  and  N_19
REMARK                            x       y       z     vdW  Elec       q    Type
REMARK                         _______ _______ _______ _____ _____    ______ ____
ROOT
ATOM      1  C   UNL     1       4.791   4.229  16.194  0.00  0.00    +0.000 C 
ENDROOT
BRANCH   1   4
ATOM      2  N   UNL     1       2.820   5.216  19.155  0.00  0.00    +0.000 N 
ATOM      3  C   UNL     1       3.604   4.572  18.240  0.00  0.00    +0.000 C 
ATOM      4  N   UNL     1       3.882   4.982  17.055  0.00  0.00    +0.000 NA
ATOM      5  H   UNL     1       2.851   4.804  20.079  0.00  0.00    +0.000 HD
BRANCH   2  11
ATOM      6  C   UNL     1       0.885   8.926  21.737  0.00  0.00    +0.000 C 
ATOM      7  C   UNL     1       1.400   8.404  20.426  0.00  0.00    +0.000 A 
ATOM      8  C   UNL     1       1.500   9.230  19.309  0.00  0.00    +0.000 A 
ATOM      9  C   UNL     1       2.027   8.732  18.116  0.00  0.00    +0.000 A 
ATOM     10  C   UNL     1       2.460   7.401  18.043  0.00  0.00    +0.000 A 
ATOM     11  C   UNL     1       2.390   6.554  19.154  0.00  0.00    +0.000 A 
ATOM     12  C   UNL     1       1.822   7.073  20.333  0.00  0.00    +0.000 A 
ENDBRANCH   2  11
BRANCH   3  13
ATOM     13  S   UNL     1       4.227   3.064  18.915  0.00  0.00    +0.000 S 
ATOM     14  H   UNL     1       4.960   3.636  19.878  0.00  0.00    +0.000 HD
ENDBRANCH   3  13
ENDBRANCH   1   4
BRANCH   1  15
ATOM     15  C   UNL     1       6.021   5.102  15.778  0.00  0.00    +0.000 C 
BRANCH  15  16
ATOM     16  C   UNL     1       6.868   5.638  16.938  0.00  0.00    +0.000 A 
ATOM     17  C   UNL     1       7.118   7.011  17.091  0.00  0.00    +0.000 A 
ATOM     18  C   UNL     1       7.842   7.496  18.179  0.00  0.00    +0.000 A 
ATOM     19  C   UNL     1       8.274   6.596  19.132  0.00  0.00    +0.000 A 
ATOM     20  N   UNL     1       8.037   5.273  19.056  0.00  0.00    +0.000 NA
ATOM     21  C   UNL     1       7.339   4.833  17.976  0.00  0.00    +0.000 A 
ENDBRANCH  15  16
BRANCH  15  22
ATOM     22  N   UNL     1       6.752   4.375  14.729  0.00  0.00    +0.000 NA
ATOM     23  C   UNL     1       7.853   4.996  13.997  0.00  0.00    +0.000 C 
ATOM     24  C   UNL     1       7.557   5.244  12.511  0.00  0.00    +0.000 C 
ATOM     25  O   UNL     1       7.025   4.077  11.870  0.00  0.00    +0.000 OA
ATOM     26  C   UNL     1       5.824   3.663  12.530  0.00  0.00    +0.000 C 
ATOM     27  C   UNL     1       6.101   3.298  13.995  0.00  0.00    +0.000 C 
ENDBRANCH  15  22
ENDBRANCH   1  15
TORSDOF 6
ENDMDL
MODEL 7
REMARK VINA RESULT:      -6.8      6.217      8.775
REMARK  Name = 
REMARK  7 active torsions:
REMARK  status: ('A' for Active; 'I' for Inactive)
REMARK    1  A    between atoms: C_1  and  C_2
REMARK    2  A    between atoms: C_6  and  N_7
REMARK    3  A    between atoms: C_8  and  S_9
REMARK    4  A    between atoms: N_10  and  C_11
REMARK    5  A    between atoms: C_11  and  C_12
REMARK    6  A    between atoms: C_12  and  C_13
REMARK    7  A    between atoms: C_12  and  N_19
REMARK                            x       y       z     vdW  Elec       q    Type
REMARK                         _______ _______ _______ _____ _____    ______ ____
ROOT
ATOM      1  C   UNL     1      -0.458  10.146  19.984  0.00  0.00    +0.000 C 
ENDROOT
BRANCH   1   4
ATOM      2  N   UNL     1       1.953   7.540  20.992  0.00  0.00    +0.000 N 
ATOM      3  C   UNL     1       1.106   8.610  20.935  0.00  0.00    +0.000 C 
ATOM      4  N   UNL     1       0.473   9.025  19.898  0.00  0.00    +0.000 NA
ATOM      5  H   UNL     1       2.227   7.288  21.933  0.00  0.00    +0.000 HD
BRANCH   2  11
ATOM      6  C   UNL     1       0.893   2.885  19.813  0.00  0.00    +0.000 C 
ATOM      7  C   UNL     1       1.607   4.165  19.481  0.00  0.00    +0.000 A 
ATOM      8  C   UNL     1       2.316   4.308  18.290  0.00  0.00    +0.000 A 
ATOM      9  C   UNL     1       2.931   5.523  17.984  0.00  0.00    +0.000 A 
ATOM     10  C   UNL     1       2.829   6.602  18.872  0.00  0.00    +0.000 A 
ATOM     11  C   UNL     1       2.108   6.495  20.065  0.00  0.00    +0.000 A 
ATOM     12  C   UNL     1       1.528   5.246  20.365  0.00  0.00    +0.000 A 
ENDBRANCH   2  11
BRANCH   3  13
ATOM     13  S   UNL     1       0.965   9.368  22.524  0.00  0.00    +0.000 S 
ATOM     14  H   UNL     1       0.400   8.316  23.130  0.00  0.00    +0.000 HD
ENDBRANCH   3  13
ENDBRANCH   1   4
BRANCH   1  15
ATOM     15  C   UNL     1      -0.519  10.931  18.631  0.00  0.00    +0.000 C 
BRANCH  15  16
ATOM     16  C   UNL     1      -1.912  11.054  18.005  0.00  0.00    +0.000 A 
ATOM     17  C   UNL     1      -3.014  11.503  18.751  0.00  0.00    +0.000 A 
ATOM     18  C   UNL     1      -4.267  11.666  18.162  0.00  0.00    +0.000 A 
ATOM     19  C   UNL     1      -4.391  11.417  16.810  0.00  0.00    +0.000 A 
ATOM     20  N   UNL     1      -3.364  11.017  16.037  0.00  0.00    +0.000 NA
ATOM     21  C   UNL     1      -2.161  10.856  16.647  0.00  0.00    +0.000 A 
ENDBRANCH  15  16
BRANCH  15  22
ATOM     22  N   UNL     1       0.221  12.190  18.810  0.00  0.00    +0.000 NA
ATOM     23  C   UNL     1       1.235  12.336  19.851  0.00  0.00    +0.000 C 
ATOM     24  C   UNL     1       0.854  13.325  20.963  0.00  0.00    +0.000 C 
ATOM     25  O   UNL     1       0.390  14.573  20.432  0.00  0.00    +0.000 OA
ATOM     26  C   UNL     1      -0.744  14.351  19.586  0.00  0.00    +0.000 C 
ATOM     27  C   UNL     1      -0.374  13.454  18.397  0.00  0.00    +0.000 C 
ENDBRANCH  15  22
ENDBRANCH   1  15
TORSDOF 6
ENDMDL
MODEL 8
REMARK VINA RESULT:      -6.7      2.640      7.106
REMARK  Name = 
REMARK  7 active torsions:
REMARK  status: ('A' for Active; 'I' for Inactive)
REMARK    1  A    between atoms: C_1  and  C_2
REMARK    2  A    between atoms: C_6  and  N_7
REMARK    3  A    between atoms: C_8  and  S_9
REMARK    4  A    between atoms: N_10  and  C_11
REMARK    5  A    between atoms: C_11  and  C_12
REMARK    6  A    between atoms: C_12  and  C_13
REMARK    7  A    between atoms: C_12  and  N_19
REMARK                            x       y       z     vdW  Elec       q    Type
REMARK                         _______ _______ _______ _____ _____    ______ ____
ROOT
ATOM      1  C   UNL     1       4.958   5.725  19.409  0.00  0.00    +0.000 C 
ENDROOT
BRANCH   1   4
ATOM      2  N   UNL     1       7.442   5.275  16.716  0.00  0.00    +0.000 N 
ATOM      3  C   UNL     1       6.796   5.503  17.899  0.00  0.00    +0.000 C 
ATOM      4  N   UNL     1       5.525   5.536  18.077  0.00  0.00    +0.000 NA
ATOM      5  H   UNL     1       8.439   5.136  16.818  0.00  0.00    +0.000 HD
BRANCH   2  11
ATOM      6  C   UNL     1       7.691   5.167  11.806  0.00  0.00    +0.000 C 
ATOM      7  C   UNL     1       7.020   4.708  13.070  0.00  0.00    +0.000 A 
ATOM      8  C   UNL     1       5.995   3.766  13.041  0.00  0.00    +0.000 A 
ATOM      9  C   UNL     1       5.421   3.320  14.233  0.00  0.00    +0.000 A 
ATOM     10  C   UNL     1       5.881   3.817  15.460  0.00  0.00    +0.000 A 
ATOM     11  C   UNL     1       6.922   4.748  15.521  0.00  0.00    +0.000 A 
ATOM     12  C   UNL     1       7.458   5.206  14.302  0.00  0.00    +0.000 A 
ENDBRANCH   2  11
BRANCH   3  13
ATOM     13  S   UNL     1       7.964   5.733  19.203  0.00  0.00    +0.000 S 
ATOM     14  H   UNL     1       8.363   4.457  19.258  0.00  0.00    +0.000 HD
ENDBRANCH   3  13
ENDBRANCH   1   4
BRANCH   1  15
ATOM     15  C   UNL     1       3.395   5.641  19.370  0.00  0.00    +0.000 C 
BRANCH  15  16
ATOM     16  C   UNL     1       2.675   6.955  19.048  0.00  0.00    +0.000 A 
ATOM     17  C   UNL     1       1.920   7.634  20.017  0.00  0.00    +0.000 A 
ATOM     18  C   UNL     1       1.314   8.857  19.733  0.00  0.00    +0.000 A 
ATOM     19  C   UNL     1       1.510   9.411  18.483  0.00  0.00    +0.000 A 
ATOM     20  N   UNL     1       2.250   8.822  17.525  0.00  0.00    +0.000 NA
ATOM     21  C   UNL     1       2.815   7.625  17.833  0.00  0.00    +0.000 A 
ENDBRANCH  15  16
BRANCH  15  22
ATOM     22  N   UNL     1       3.030   4.485  18.538  0.00  0.00    +0.000 NA
ATOM     23  C   UNL     1       1.680   4.328  18.002  0.00  0.00    +0.000 C 
ATOM     24  C   UNL     1       0.905   3.141  18.594  0.00  0.00    +0.000 C 
ATOM     25  O   UNL     1       1.677   1.933  18.571  0.00  0.00    +0.000 OA
ATOM     26  C   UNL     1       2.893   2.119  19.305  0.00  0.00    +0.000 C 
ATOM     27  C   UNL     1       3.750   3.226  18.675  0.00  0.00    +0.000 C 
ENDBRANCH  15  22
ENDBRANCH   1  15
TORSDOF 6
ENDMDL
MODEL 9
REMARK VINA RESULT:      -6.7      3.540      5.466
REMARK  Name = 
REMARK  7 active torsions:
REMARK  status: ('A' for Active; 'I' for Inactive)
REMARK    1  A    between atoms: C_1  and  C_2
REMARK    2  A    between atoms: C_6  and  N_7
REMARK    3  A    between atoms: C_8  and  S_9
REMARK    4  A    between atoms: N_10  and  C_11
REMARK    5  A    between atoms: C_11  and  C_12
REMARK    6  A    between atoms: C_12  and  C_13
REMARK    7  A    between atoms: C_12  and  N_19
REMARK                            x       y       z     vdW  Elec       q    Type
REMARK                         _______ _______ _______ _____ _____    ______ ____
ROOT
ATOM      1  C   UNL     1       4.053   5.438  18.610  0.00  0.00    +0.000 C 
ENDROOT
BRANCH   1   4
ATOM      2  N   UNL     1       1.445   7.482  20.235  0.00  0.00    +0.000 N 
ATOM      3  C   UNL     1       2.329   6.505  19.874  0.00  0.00    +0.000 C 
ATOM      4  N   UNL     1       3.101   6.520  18.849  0.00  0.00    +0.000 NA
ATOM      5  H   UNL     1       1.045   7.350  21.155  0.00  0.00    +0.000 HD
BRANCH   2  11
ATOM      6  C   UNL     1       0.239  12.136  21.270  0.00  0.00    +0.000 C 
ATOM      7  C   UNL     1       0.748  11.130  20.276  0.00  0.00    +0.000 A 
ATOM      8  C   UNL     1       1.179  11.521  19.011  0.00  0.00    +0.000 A 
ATOM      9  C   UNL     1       1.692  10.573  18.123  0.00  0.00    +0.000 A 
ATOM     10  C   UNL     1       1.778   9.228  18.508  0.00  0.00    +0.000 A 
ATOM     11  C   UNL     1       1.372   8.810  19.779  0.00  0.00    +0.000 A 
ATOM     12  C   UNL     1       0.826   9.781  20.640  0.00  0.00    +0.000 A 
ENDBRANCH   2  11
BRANCH   3  13
ATOM     13  S   UNL     1       2.295   5.182  21.043  0.00  0.00    +0.000 S 
ATOM     14  H   UNL     1       3.621   5.000  21.085  0.00  0.00    +0.000 HD
ENDBRANCH   3  13
ENDBRANCH   1   4
BRANCH   1  15
ATOM     15  C   UNL     1       3.876   4.843  17.173  0.00  0.00    +0.000 C 
BRANCH  15  16
ATOM     16  C   UNL     1       5.135   4.855  16.298  0.00  0.00    +0.000 A 
ATOM     17  C   UNL     1       5.182   4.172  15.072  0.00  0.00    +0.000 A 
ATOM     18  C   UNL     1       6.311   4.233  14.255  0.00  0.00    +0.000 A 
ATOM     19  C   UNL     1       7.371   5.018  14.661  0.00  0.00    +0.000 A 
ATOM     20  N   UNL     1       7.370   5.721  15.809  0.00  0.00    +0.000 NA
ATOM     21  C   UNL     1       6.259   5.628  16.586  0.00  0.00    +0.000 A 
ENDBRANCH  15  16
BRANCH  15  22
ATOM     22  N   UNL     1       3.196   3.546  17.306  0.00  0.00    +0.000 NA
ATOM     23  C   UNL     1       1.740   3.451  17.371  0.00  0.00    +0.000 C 
ATOM     24  C   UNL     1       1.203   2.977  18.729  0.00  0.00    +0.000 C 
ATOM     25  O   UNL     1       1.876   1.798  19.188  0.00  0.00    +0.000 OA
ATOM     26  C   UNL     1       3.282   2.051  19.296  0.00  0.00    +0.000 C 
ATOM     27  C   UNL     1       3.880   2.422  17.932  0.00  0.00    +0.000 C 
ENDBRANCH  15  22
ENDBRANCH   1  15
TORSDOF 6
ENDMDL
