MODEL 1
REMARK VINA RESULT:      -8.4      0.000      0.000
REMARK  Name = 
REMARK  8 active torsions:
REMARK  status: ('A' for Active; 'I' for Inactive)
REMARK    1  A    between atoms: C_1  and  N_2
REMARK    2  A    between atoms: N_9  and  C_10
REMARK    3  A    between atoms: C_10  and  C_11
REMARK    4  A    between atoms: C_11  and  O_12
REMARK    5  A    between atoms: C_16  and  C_18
REMARK    6  A    between atoms: C_18  and  C_19
REMARK    7  A    between atoms: C_18  and  C_20
REMARK    8  A    between atoms: C_20  and  C_21
REMARK                            x       y       z     vdW  Elec       q    Type
REMARK                         _______ _______ _______ _____ _____    ______ ____
ROOT
ATOM      1  C   UNL     1       3.622   5.795  18.591  0.00  0.00    +0.000 C 
ATOM      2  C   UNL     1       4.519   6.490  17.539  0.00  0.00    +0.000 C 
ATOM      3  C   UNL     1       5.908   5.864  17.431  0.00  0.00    +0.000 C 
ATOM      4  N   UNL     1       5.755   4.440  17.188  0.00  0.00    +0.000 N 
ATOM      5  C   UNL     1       5.839   3.781  15.969  0.00  0.00    +0.000 C 
ATOM      6  O   UNL     1       5.562   2.586  15.884  0.00  0.00    +0.000 OA
ATOM      7  C   UNL     1       5.134   3.744  18.330  0.00  0.00    +0.000 C 
ATOM      8  C   UNL     1       3.654   4.206  18.525  0.00  0.00    +0.000 C 
ATOM      9  C   UNL     1       3.085   3.547  19.830  0.00  0.00    +0.000 C 
ATOM     10  C   UNL     1       1.825   2.786  19.431  0.00  0.00    +0.000 C 
ATOM     11  C   UNL     1       2.075   2.372  17.997  0.00  0.00    +0.000 C 
ATOM     12  C   UNL     1       2.779   3.587  17.407  0.00  0.00    +0.000 C 
ENDROOT
BRANCH   1  13
ATOM     13  O   UNL     1       4.244   6.142  19.869  0.00  0.00    +0.000 OA
ATOM     14  H   UNL     1       3.547   6.191  20.548  0.00  0.00    +0.000 HD
ENDBRANCH   1  13
BRANCH   5  15
ATOM     15  C   UNL     1       6.277   4.517  14.684  0.00  0.00    +0.000 C 
ATOM     16  C   UNL     1       5.341   5.676  14.320  0.00  0.00    +0.000 C 
BRANCH  15  17
ATOM     17  C   UNL     1       6.228   3.556  13.467  0.00  0.00    +0.000 C 
BRANCH  17  18
ATOM     18  C   UNL     1       6.923   4.016  12.200  0.00  0.00    +0.000 C 
ATOM     19  F   UNL     1       7.790   5.029  12.388  0.00  0.00    +0.000 F 
ATOM     20  F   UNL     1       7.563   2.995  11.594  0.00  0.00    +0.000 F 
ATOM     21  F   UNL     1       5.990   4.462  11.317  0.00  0.00    +0.000 F 
ENDBRANCH  17  18
ENDBRANCH  15  17
ENDBRANCH   5  15
BRANCH   1  22
ATOM     22  C   UNL     1       2.193   6.446  18.653  0.00  0.00    +0.000 C 
BRANCH  22  31
ATOM     23  C   UNL     1       0.716  14.290  21.743  0.00  0.00    +0.000 C 
ATOM     24  N   UNL     1       0.159  13.627  20.586  0.00  0.00    +0.000 N 
ATOM     25  C   UNL     1       0.429  12.268  20.554  0.00  0.00    +0.000 A 
ATOM     26  N   UNL     1       0.494  11.546  21.693  0.00  0.00    +0.000 NA
ATOM     27  C   UNL     1       0.797  10.234  21.585  0.00  0.00    +0.000 A 
ATOM     28  C   UNL     1       1.060   9.636  20.381  0.00  0.00    +0.000 A 
ATOM     29  C   UNL     1       1.425   8.221  20.220  0.00  0.00    +0.000 A 
ATOM     30  O   UNL     1       1.203   7.442  21.141  0.00  0.00    +0.000 OA
ATOM     31  N   UNL     1       1.983   7.867  18.982  0.00  0.00    +0.000 N 
ATOM     32  C   UNL     1       2.036   8.780  17.934  0.00  0.00    +0.000 A 
ATOM     33  C   UNL     1       1.521  10.008  18.007  0.00  0.00    +0.000 A 
ATOM     34  C   UNL     1       1.022  10.473  19.294  0.00  0.00    +0.000 A 
ATOM     35  N   UNL     1       0.692  11.766  19.341  0.00  0.00    +0.000 NA
ATOM     36  H   UNL     1       0.467  13.994  19.693  0.00  0.00    +0.000 HD
ENDBRANCH  22  31
ENDBRANCH   1  22
TORSDOF 6
ENDMDL
MODEL 2
REMARK VINA RESULT:      -8.1      0.636      1.097
REMARK  Name = 
REMARK  8 active torsions:
REMARK  status: ('A' for Active; 'I' for Inactive)
REMARK    1  A    between atoms: C_1  and  N_2
REMARK    2  A    between atoms: N_9  and  C_10
REMARK    3  A    between atoms: C_10  and  C_11
REMARK    4  A    between atoms: C_11  and  O_12
REMARK    5  A    between atoms: C_16  and  C_18
REMARK    6  A    between atoms: C_18  and  C_19
REMARK    7  A    between atoms: C_18  and  C_20
REMARK    8  A    between atoms: C_20  and  C_21
REMARK                            x       y       z     vdW  Elec       q    Type
REMARK                         _______ _______ _______ _____ _____    ______ ____
ROOT
ATOM      1  C   UNL     1       3.630   5.899  18.463  0.00  0.00    +0.000 C 
ATOM      2  C   UNL     1       4.395   6.619  17.325  0.00  0.00    +0.000 C 
ATOM      3  C   UNL     1       5.801   6.064  17.107  0.00  0.00    +0.000 C 
ATOM      4  N   UNL     1       5.705   4.630  16.903  0.00  0.00    +0.000 N 
ATOM      5  C   UNL     1       5.720   3.950  15.691  0.00  0.00    +0.000 C 
ATOM      6  O   UNL     1       5.502   2.741  15.651  0.00  0.00    +0.000 OA
ATOM      7  C   UNL     1       5.223   3.926  18.105  0.00  0.00    +0.000 C 
ATOM      8  C   UNL     1       3.742   4.313  18.420  0.00  0.00    +0.000 C 
ATOM      9  C   UNL     1       3.323   3.653  19.780  0.00  0.00    +0.000 C 
ATOM     10  C   UNL     1       2.077   2.819  19.504  0.00  0.00    +0.000 C 
ATOM     11  C   UNL     1       2.225   2.388  18.061  0.00  0.00    +0.000 C 
ATOM     12  C   UNL     1       2.809   3.626  17.392  0.00  0.00    +0.000 C 
ENDROOT
BRANCH   1  13
ATOM     13  O   UNL     1       4.339   6.305  19.676  0.00  0.00    +0.000 OA
ATOM     14  H   UNL     1       4.558   5.505  20.187  0.00  0.00    +0.000 HD
ENDBRANCH   1  13
BRANCH   5  15
ATOM     15  C   UNL     1       6.006   4.682  14.362  0.00  0.00    +0.000 C 
ATOM     16  C   UNL     1       5.450   3.932  13.145  0.00  0.00    +0.000 C 
BRANCH  15  17
ATOM     17  C   UNL     1       7.535   4.780  14.117  0.00  0.00    +0.000 C 
BRANCH  17  18
ATOM     18  C   UNL     1       7.982   5.322  12.773  0.00  0.00    +0.000 C 
ATOM     19  F   UNL     1       7.894   4.431  11.767  0.00  0.00    +0.000 F 
ATOM     20  F   UNL     1       7.295   6.434  12.439  0.00  0.00    +0.000 F 
ATOM     21  F   UNL     1       9.289   5.689  12.854  0.00  0.00    +0.000 F 
ENDBRANCH  17  18
ENDBRANCH  15  17
ENDBRANCH   5  15
BRANCH   1  22
ATOM     22  C   UNL     1       2.179   6.475  18.637  0.00  0.00    +0.000 C 
BRANCH  22  31
ATOM     23  C   UNL     1       0.503  14.214  21.887  0.00  0.00    +0.000 C 
ATOM     24  N   UNL     1      -0.078  13.539  20.750  0.00  0.00    +0.000 N 
ATOM     25  C   UNL     1       0.250  12.194  20.688  0.00  0.00    +0.000 A 
ATOM     26  N   UNL     1       0.400  11.464  21.815  0.00  0.00    +0.000 NA
ATOM     27  C   UNL     1       0.756  10.168  21.676  0.00  0.00    +0.000 A 
ATOM     28  C   UNL     1       0.988   9.594  20.454  0.00  0.00    +0.000 A 
ATOM     29  C   UNL     1       1.407   8.199  20.260  0.00  0.00    +0.000 A 
ATOM     30  O   UNL     1       1.264   7.402  21.180  0.00  0.00    +0.000 OA
ATOM     31  N   UNL     1       1.921   7.882  18.993  0.00  0.00    +0.000 N 
ATOM     32  C   UNL     1       1.884   8.807  17.954  0.00  0.00    +0.000 A 
ATOM     33  C   UNL     1       1.319  10.010  18.066  0.00  0.00    +0.000 A 
ATOM     34  C   UNL     1       0.862  10.440  19.381  0.00  0.00    +0.000 A 
ATOM     35  N   UNL     1       0.477  11.716  19.459  0.00  0.00    +0.000 NA
ATOM     36  H   UNL     1       0.171  13.928  19.847  0.00  0.00    +0.000 HD
ENDBRANCH  22  31
ENDBRANCH   1  22
TORSDOF 6
ENDMDL
MODEL 3
REMARK VINA RESULT:      -7.9      2.289      2.818
REMARK  Name = 
REMARK  8 active torsions:
REMARK  status: ('A' for Active; 'I' for Inactive)
REMARK    1  A    between atoms: C_1  and  N_2
REMARK    2  A    between atoms: N_9  and  C_10
REMARK    3  A    between atoms: C_10  and  C_11
REMARK    4  A    between atoms: C_11  and  O_12
REMARK    5  A    between atoms: C_16  and  C_18
REMARK    6  A    between atoms: C_18  and  C_19
REMARK    7  A    between atoms: C_18  and  C_20
REMARK    8  A    between atoms: C_20  and  C_21
REMARK                            x       y       z     vdW  Elec       q    Type
REMARK                         _______ _______ _______ _____ _____    ______ ____
ROOT
ATOM      1  C   UNL     1       2.999   5.261  20.033  0.00  0.00    +0.000 C 
ATOM      2  C   UNL     1       4.229   6.084  19.575  0.00  0.00    +0.000 C 
ATOM      3  C   UNL     1       5.462   5.220  19.317  0.00  0.00    +0.000 C 
ATOM      4  N   UNL     1       5.103   4.172  18.378  0.00  0.00    +0.000 N 
ATOM      5  C   UNL     1       5.339   4.152  17.009  0.00  0.00    +0.000 C 
ATOM      6  O   UNL     1       4.870   3.259  16.307  0.00  0.00    +0.000 OA
ATOM      7  C   UNL     1       4.117   3.232  18.942  0.00  0.00    +0.000 C 
ATOM      8  C   UNL     1       2.746   3.942  19.182  0.00  0.00    +0.000 C 
ATOM      9  C   UNL     1       1.779   2.944  19.910  0.00  0.00    +0.000 C 
ATOM     10  C   UNL     1       0.524   2.834  19.051  0.00  0.00    +0.000 C 
ATOM     11  C   UNL     1       1.014   3.073  17.639  0.00  0.00    +0.000 C 
ATOM     12  C   UNL     1       2.050   4.175  17.818  0.00  0.00    +0.000 C 
ENDROOT
BRANCH   1  13
ATOM     13  O   UNL     1       3.366   4.796  21.370  0.00  0.00    +0.000 OA
ATOM     14  H   UNL     1       2.548   4.627  21.873  0.00  0.00    +0.000 HD
ENDBRANCH   1  13
BRANCH   5  15
ATOM     15  C   UNL     1       6.191   5.242  16.323  0.00  0.00    +0.000 C 
ATOM     16  C   UNL     1       6.817   4.761  15.009  0.00  0.00    +0.000 C 
BRANCH  15  17
ATOM     17  C   UNL     1       7.389   5.639  17.225  0.00  0.00    +0.000 C 
BRANCH  17  18
ATOM     18  C   UNL     1       7.538   7.110  17.564  0.00  0.00    +0.000 C 
ATOM     19  F   UNL     1       6.372   7.785  17.589  0.00  0.00    +0.000 F 
ATOM     20  F   UNL     1       8.171   7.280  18.742  0.00  0.00    +0.000 F 
ATOM     21  F   UNL     1       8.313   7.708  16.621  0.00  0.00    +0.000 F 
ENDBRANCH  17  18
ENDBRANCH  15  17
ENDBRANCH   5  15
BRANCH   1  22
ATOM     22  C   UNL     1       1.744   6.178  20.259  0.00  0.00    +0.000 C 
BRANCH  22  31
ATOM     23  C   UNL     1       1.314  14.686  19.429  0.00  0.00    +0.000 C 
ATOM     24  N   UNL     1       0.718  13.643  18.626  0.00  0.00    +0.000 N 
ATOM     25  C   UNL     1       0.783  12.393  19.220  0.00  0.00    +0.000 A 
ATOM     26  N   UNL     1       0.687  12.255  20.561  0.00  0.00    +0.000 NA
ATOM     27  C   UNL     1       0.796  11.009  21.070  0.00  0.00    +0.000 A 
ATOM     28  C   UNL     1       1.021   9.910  20.285  0.00  0.00    +0.000 A 
ATOM     29  C   UNL     1       1.178   8.542  20.799  0.00  0.00    +0.000 A 
ATOM     30  O   UNL     1       0.801   8.288  21.938  0.00  0.00    +0.000 OA
ATOM     31  N   UNL     1       1.733   7.609  19.909  0.00  0.00    +0.000 N 
ATOM     32  C   UNL     1       1.969   7.944  18.579  0.00  0.00    +0.000 A 
ATOM     33  C   UNL     1       1.640   9.124  18.052  0.00  0.00    +0.000 A 
ATOM     34  C   UNL     1       1.159  10.170  18.945  0.00  0.00    +0.000 A 
ATOM     35  N   UNL     1       1.023  11.375  18.386  0.00  0.00    +0.000 NA
ATOM     36  H   UNL     1       1.117  13.533  17.701  0.00  0.00    +0.000 HD
ENDBRANCH  22  31
ENDBRANCH   1  22
TORSDOF 6
ENDMDL
MODEL 4
REMARK VINA RESULT:      -7.8      6.659     11.609
REMARK  Name = 
REMARK  8 active torsions:
REMARK  status: ('A' for Active; 'I' for Inactive)
REMARK    1  A    between atoms: C_1  and  N_2
REMARK    2  A    between atoms: N_9  and  C_10
REMARK    3  A    between atoms: C_10  and  C_11
REMARK    4  A    between atoms: C_11  and  O_12
REMARK    5  A    between atoms: C_16  and  C_18
REMARK    6  A    between atoms: C_18  and  C_19
REMARK    7  A    between atoms: C_18  and  C_20
REMARK    8  A    between atoms: C_20  and  C_21
REMARK                            x       y       z     vdW  Elec       q    Type
REMARK                         _______ _______ _______ _____ _____    ______ ____
ROOT
ATOM      1  C   UNL     1       0.105  11.073  21.021  0.00  0.00    +0.000 C 
ATOM      2  C   UNL     1      -1.050  10.895  22.038  0.00  0.00    +0.000 C 
ATOM      3  C   UNL     1      -1.074  11.983  23.110  0.00  0.00    +0.000 C 
ATOM      4  N   UNL     1      -1.095  13.278  22.454  0.00  0.00    +0.000 N 
ATOM      5  C   UNL     1      -2.200  14.087  22.225  0.00  0.00    +0.000 C 
ATOM      6  O   UNL     1      -2.099  15.105  21.544  0.00  0.00    +0.000 OA
ATOM      7  C   UNL     1       0.146  13.542  21.702  0.00  0.00    +0.000 C 
ATOM      8  C   UNL     1       0.282  12.562  20.492  0.00  0.00    +0.000 C 
ATOM      9  C   UNL     1       1.677  12.788  19.811  0.00  0.00    +0.000 C 
ATOM     10  C   UNL     1       1.410  13.099  18.343  0.00  0.00    +0.000 C 
ATOM     11  C   UNL     1       0.054  13.770  18.342  0.00  0.00    +0.000 C 
ATOM     12  C   UNL     1      -0.721  12.980  19.387  0.00  0.00    +0.000 C 
ENDROOT
BRANCH   1  13
ATOM     13  O   UNL     1       1.309  10.795  21.804  0.00  0.00    +0.000 OA
ATOM     14  H   UNL     1       1.144  10.008  22.355  0.00  0.00    +0.000 HD
ENDBRANCH   1  13
BRANCH   5  15
ATOM     15  C   UNL     1      -3.586  13.741  22.812  0.00  0.00    +0.000 C 
ATOM     16  C   UNL     1      -4.505  13.060  21.791  0.00  0.00    +0.000 C 
BRANCH  15  17
ATOM     17  C   UNL     1      -4.333  15.034  23.233  0.00  0.00    +0.000 C 
BRANCH  17  18
ATOM     18  C   UNL     1      -3.837  15.739  24.481  0.00  0.00    +0.000 C 
ATOM     19  F   UNL     1      -2.819  16.593  24.260  0.00  0.00    +0.000 F 
ATOM     20  F   UNL     1      -4.837  16.398  25.103  0.00  0.00    +0.000 F 
ATOM     21  F   UNL     1      -3.381  14.812  25.365  0.00  0.00    +0.000 F 
ENDBRANCH  17  18
ENDBRANCH  15  17
ENDBRANCH   5  15
BRANCH   1  22
ATOM     22  C   UNL     1       0.080   9.956  19.918  0.00  0.00    +0.000 C 
BRANCH  22  31
ATOM     23  C   UNL     1       6.516   4.637  18.034  0.00  0.00    +0.000 C 
ATOM     24  N   UNL     1       5.160   4.347  18.439  0.00  0.00    +0.000 N 
ATOM     25  C   UNL     1       4.329   5.455  18.395  0.00  0.00    +0.000 A 
ATOM     26  N   UNL     1       4.489   6.405  17.448  0.00  0.00    +0.000 NA
ATOM     27  C   UNL     1       3.664   7.474  17.491  0.00  0.00    +0.000 A 
ATOM     28  C   UNL     1       2.709   7.629  18.460  0.00  0.00    +0.000 A 
ATOM     29  C   UNL     1       1.813   8.790  18.562  0.00  0.00    +0.000 A 
ATOM     30  O   UNL     1       1.679   9.525  17.590  0.00  0.00    +0.000 OA
ATOM     31  N   UNL     1       1.145   8.946  19.787  0.00  0.00    +0.000 N 
ATOM     32  C   UNL     1       1.223   7.967  20.773  0.00  0.00    +0.000 A 
ATOM     33  C   UNL     1       1.871   6.813  20.609  0.00  0.00    +0.000 A 
ATOM     34  C   UNL     1       2.671   6.635  19.404  0.00  0.00    +0.000 A 
ATOM     35  N   UNL     1       3.436   5.540  19.388  0.00  0.00    +0.000 NA
ATOM     36  H   UNL     1       5.064   3.964  19.373  0.00  0.00    +0.000 HD
ENDBRANCH  22  31
ENDBRANCH   1  22
TORSDOF 6
ENDMDL
MODEL 5
REMARK VINA RESULT:      -7.7      6.737     11.641
REMARK  Name = 
REMARK  8 active torsions:
REMARK  status: ('A' for Active; 'I' for Inactive)
REMARK    1  A    between atoms: C_1  and  N_2
REMARK    2  A    between atoms: N_9  and  C_10
REMARK    3  A    between atoms: C_10  and  C_11
REMARK    4  A    between atoms: C_11  and  O_12
REMARK    5  A    between atoms: C_16  and  C_18
REMARK    6  A    between atoms: C_18  and  C_19
REMARK    7  A    between atoms: C_18  and  C_20
REMARK    8  A    between atoms: C_20  and  C_21
REMARK                            x       y       z     vdW  Elec       q    Type
REMARK                         _______ _______ _______ _____ _____    ______ ____
ROOT
ATOM      1  C   UNL     1       0.081  11.080  20.939  0.00  0.00    +0.000 C 
ATOM      2  C   UNL     1      -1.110  10.808  21.891  0.00  0.00    +0.000 C 
ATOM      3  C   UNL     1      -1.217  11.831  23.021  0.00  0.00    +0.000 C 
ATOM      4  N   UNL     1      -1.253  13.160  22.438  0.00  0.00    +0.000 N 
ATOM      5  C   UNL     1      -2.375  13.946  22.205  0.00  0.00    +0.000 C 
ATOM      6  O   UNL     1      -2.278  15.005  21.588  0.00  0.00    +0.000 OA
ATOM      7  C   UNL     1       0.009  13.506  21.758  0.00  0.00    +0.000 C 
ATOM      8  C   UNL     1       0.230  12.602  20.502  0.00  0.00    +0.000 C 
ATOM      9  C   UNL     1       1.645  12.909  19.899  0.00  0.00    +0.000 C 
ATOM     10  C   UNL     1       1.432  13.296  18.440  0.00  0.00    +0.000 C 
ATOM     11  C   UNL     1       0.055  13.924  18.416  0.00  0.00    +0.000 C 
ATOM     12  C   UNL     1      -0.737  13.051  19.379  0.00  0.00    +0.000 C 
ENDROOT
BRANCH   1  13
ATOM     13  O   UNL     1       1.259  10.795  21.759  0.00  0.00    +0.000 OA
ATOM     14  H   UNL     1       1.080  11.092  22.670  0.00  0.00    +0.000 HD
ENDBRANCH   1  13
BRANCH   5  15
ATOM     15  C   UNL     1      -3.772  13.524  22.708  0.00  0.00    +0.000 C 
ATOM     16  C   UNL     1      -4.558  12.723  21.663  0.00  0.00    +0.000 C 
BRANCH  15  17
ATOM     17  C   UNL     1      -4.642  14.775  23.002  0.00  0.00    +0.000 C 
BRANCH  17  18
ATOM     18  C   UNL     1      -6.031  14.531  23.560  0.00  0.00    +0.000 C 
ATOM     19  F   UNL     1      -6.989  14.433  22.617  0.00  0.00    +0.000 F 
ATOM     20  F   UNL     1      -6.062  13.428  24.335  0.00  0.00    +0.000 F 
ATOM     21  F   UNL     1      -6.379  15.574  24.360  0.00  0.00    +0.000 F 
ENDBRANCH  17  18
ENDBRANCH  15  17
ENDBRANCH   5  15
BRANCH   1  22
ATOM     22  C   UNL     1       0.141  10.028  19.774  0.00  0.00    +0.000 C 
BRANCH  22  31
ATOM     23  C   UNL     1       6.542   4.591  18.121  0.00  0.00    +0.000 C 
ATOM     24  N   UNL     1       5.177   4.327  18.514  0.00  0.00    +0.000 N 
ATOM     25  C   UNL     1       4.359   5.442  18.429  0.00  0.00    +0.000 A 
ATOM     26  N   UNL     1       4.543   6.366  17.461  0.00  0.00    +0.000 NA
ATOM     27  C   UNL     1       3.730   7.445  17.464  0.00  0.00    +0.000 A 
ATOM     28  C   UNL     1       2.764   7.635  18.415  0.00  0.00    +0.000 A 
ATOM     29  C   UNL     1       1.880   8.808  18.475  0.00  0.00    +0.000 A 
ATOM     30  O   UNL     1       1.768   9.519  17.482  0.00  0.00    +0.000 OA
ATOM     31  N   UNL     1       1.197   9.003  19.685  0.00  0.00    +0.000 N 
ATOM     32  C   UNL     1       1.249   8.050  20.697  0.00  0.00    +0.000 A 
ATOM     33  C   UNL     1       1.886   6.884  20.572  0.00  0.00    +0.000 A 
ATOM     34  C   UNL     1       2.701   6.666  19.384  0.00  0.00    +0.000 A 
ATOM     35  N   UNL     1       3.454   5.563  19.407  0.00  0.00    +0.000 NA
ATOM     36  H   UNL     1       5.064   3.969  19.456  0.00  0.00    +0.000 HD
ENDBRANCH  22  31
ENDBRANCH   1  22
TORSDOF 6
ENDMDL
MODEL 6
REMARK VINA RESULT:      -7.6      4.004      5.435
REMARK  Name = 
REMARK  8 active torsions:
REMARK  status: ('A' for Active; 'I' for Inactive)
REMARK    1  A    between atoms: C_1  and  N_2
REMARK    2  A    between atoms: N_9  and  C_10
REMARK    3  A    between atoms: C_10  and  C_11
REMARK    4  A    between atoms: C_11  and  O_12
REMARK    5  A    between atoms: C_16  and  C_18
REMARK    6  A    between atoms: C_18  and  C_19
REMARK    7  A    between atoms: C_18  and  C_20
REMARK    8  A    between atoms: C_20  and  C_21
REMARK                            x       y       z     vdW  Elec       q    Type
REMARK                         _______ _______ _______ _____ _____    ______ ____
ROOT
ATOM      1  C   UNL     1       3.014   6.446  18.128  0.00  0.00    +0.000 C 
ATOM      2  C   UNL     1       1.723   5.639  18.409  0.00  0.00    +0.000 C 
ATOM      3  C   UNL     1       1.607   4.381  17.552  0.00  0.00    +0.000 C 
ATOM      4  N   UNL     1       2.814   3.591  17.724  0.00  0.00    +0.000 N 
ATOM      5  C   UNL     1       2.986   2.488  18.550  0.00  0.00    +0.000 C 
ATOM      6  O   UNL     1       4.098   1.987  18.699  0.00  0.00    +0.000 OA
ATOM      7  C   UNL     1       4.008   4.277  17.198  0.00  0.00    +0.000 C 
ATOM      8  C   UNL     1       4.330   5.557  18.035  0.00  0.00    +0.000 C 
ATOM      9  C   UNL     1       5.516   6.324  17.354  0.00  0.00    +0.000 C 
ATOM     10  C   UNL     1       6.607   6.483  18.407  0.00  0.00    +0.000 C 
ATOM     11  C   UNL     1       6.435   5.279  19.308  0.00  0.00    +0.000 C 
ATOM     12  C   UNL     1       4.923   5.133  19.401  0.00  0.00    +0.000 C 
ENDROOT
BRANCH   1  13
ATOM     13  O   UNL     1       2.811   6.979  16.781  0.00  0.00    +0.000 OA
ATOM     14  H   UNL     1       2.104   7.649  16.818  0.00  0.00    +0.000 HD
ENDBRANCH   1  13
BRANCH   5  15
ATOM     15  C   UNL     1       1.797   1.855  19.306  0.00  0.00    +0.000 C 
ATOM     16  C   UNL     1       0.616   1.533  18.383  0.00  0.00    +0.000 C 
BRANCH  15  17
ATOM     17  C   UNL     1       1.236   2.848  20.357  0.00  0.00    +0.000 C 
BRANCH  17  18
ATOM     18  C   UNL     1       1.971   2.937  21.681  0.00  0.00    +0.000 C 
ATOM     19  F   UNL     1       3.075   2.166  21.746  0.00  0.00    +0.000 F 
ATOM     20  F   UNL     1       2.307   4.211  21.971  0.00  0.00    +0.000 F 
ATOM     21  F   UNL     1       1.146   2.520  22.678  0.00  0.00    +0.000 F 
ENDBRANCH  17  18
ENDBRANCH  15  17
ENDBRANCH   5  15
BRANCH   1  22
ATOM     22  C   UNL     1       3.114   7.716  19.049  0.00  0.00    +0.000 C 
BRANCH  22  31
ATOM     23  C   UNL     1      -3.711  12.734  20.275  0.00  0.00    +0.000 C 
ATOM     24  N   UNL     1      -2.516  12.579  21.073  0.00  0.00    +0.000 N 
ATOM     25  C   UNL     1      -1.512  11.880  20.422  0.00  0.00    +0.000 A 
ATOM     26  N   UNL     1      -1.339  11.995  19.088  0.00  0.00    +0.000 NA
ATOM     27  C   UNL     1      -0.363  11.254  18.518  0.00  0.00    +0.000 A 
ATOM     28  C   UNL     1       0.420  10.391  19.237  0.00  0.00    +0.000 A 
ATOM     29  C   UNL     1       1.470   9.543  18.653  0.00  0.00    +0.000 A 
ATOM     30  O   UNL     1       1.896   9.810  17.535  0.00  0.00    +0.000 OA
ATOM     31  N   UNL     1       1.930   8.491  19.461  0.00  0.00    +0.000 N 
ATOM     32  C   UNL     1       1.515   8.370  20.783  0.00  0.00    +0.000 A 
ATOM     33  C   UNL     1       0.717   9.255  21.383  0.00  0.00    +0.000 A 
ATOM     34  C   UNL     1       0.122  10.309  20.574  0.00  0.00    +0.000 A 
ATOM     35  N   UNL     1      -0.805  11.045  21.193  0.00  0.00    +0.000 NA
ATOM     36  H   UNL     1      -2.652  12.110  21.961  0.00  0.00    +0.000 HD
ENDBRANCH  22  31
ENDBRANCH   1  22
TORSDOF 6
ENDMDL
MODEL 7
REMARK VINA RESULT:      -7.6      5.585     10.826
REMARK  Name = 
REMARK  8 active torsions:
REMARK  status: ('A' for Active; 'I' for Inactive)
REMARK    1  A    between atoms: C_1  and  N_2
REMARK    2  A    between atoms: N_9  and  C_10
REMARK    3  A    between atoms: C_10  and  C_11
REMARK    4  A    between atoms: C_11  and  O_12
REMARK    5  A    between atoms: C_16  and  C_18
REMARK    6  A    between atoms: C_18  and  C_19
REMARK    7  A    between atoms: C_18  and  C_20
REMARK    8  A    between atoms: C_20  and  C_21
REMARK                            x       y       z     vdW  Elec       q    Type
REMARK                         _______ _______ _______ _____ _____    ______ ____
ROOT
ATOM      1  C   UNL     1       0.046  11.118  21.032  0.00  0.00    +0.000 C 
ATOM      2  C   UNL     1      -1.152  10.996  22.005  0.00  0.00    +0.000 C 
ATOM      3  C   UNL     1      -1.167  12.086  23.075  0.00  0.00    +0.000 C 
ATOM      4  N   UNL     1      -1.105  13.379  22.417  0.00  0.00    +0.000 N 
ATOM      5  C   UNL     1      -2.163  14.237  22.146  0.00  0.00    +0.000 C 
ATOM      6  O   UNL     1      -1.990  15.247  21.468  0.00  0.00    +0.000 OA
ATOM      7  C   UNL     1       0.173  13.585  21.710  0.00  0.00    +0.000 C 
ATOM      8  C   UNL     1       0.309  12.596  20.507  0.00  0.00    +0.000 C 
ATOM      9  C   UNL     1       1.737  12.756  19.879  0.00  0.00    +0.000 C 
ATOM     10  C   UNL     1       1.540  13.075  18.401  0.00  0.00    +0.000 C 
ATOM     11  C   UNL     1       0.216  13.807  18.349  0.00  0.00    +0.000 C 
ATOM     12  C   UNL     1      -0.632  13.056  19.366  0.00  0.00    +0.000 C 
ENDROOT
BRANCH   1  13
ATOM     13  O   UNL     1       1.206  10.788  21.859  0.00  0.00    +0.000 OA
ATOM     14  H   UNL     1       1.180  11.340  22.662  0.00  0.00    +0.000 HD
ENDBRANCH   1  13
BRANCH   5  15
ATOM     15  C   UNL     1      -3.584  13.956  22.681  0.00  0.00    +0.000 C 
ATOM     16  C   UNL     1      -3.613  13.759  24.202  0.00  0.00    +0.000 C 
BRANCH  15  17
ATOM     17  C   UNL     1      -4.132  12.631  22.089  0.00  0.00    +0.000 C 
BRANCH  17  18
ATOM     18  C   UNL     1      -4.576  12.658  20.638  0.00  0.00    +0.000 C 
ATOM     19  F   UNL     1      -3.623  12.270  19.768  0.00  0.00    +0.000 F 
ATOM     20  F   UNL     1      -5.678  11.905  20.448  0.00  0.00    +0.000 F 
ATOM     21  F   UNL     1      -4.917  13.930  20.300  0.00  0.00    +0.000 F 
ENDBRANCH  17  18
ENDBRANCH  15  17
ENDBRANCH   5  15
BRANCH   1  22
ATOM     22  C   UNL     1       0.011  10.000  19.929  0.00  0.00    +0.000 C 
BRANCH  22  31
ATOM     23  C   UNL     1       6.477   4.756  17.940  0.00  0.00    +0.000 C 
ATOM     24  N   UNL     1       5.125   4.450  18.349  0.00  0.00    +0.000 N 
ATOM     25  C   UNL     1       4.285   5.552  18.324  0.00  0.00    +0.000 A 
ATOM     26  N   UNL     1       4.433   6.516  17.389  0.00  0.00    +0.000 NA
ATOM     27  C   UNL     1       3.600   7.578  17.450  0.00  0.00    +0.000 A 
ATOM     28  C   UNL     1       2.649   7.713  18.427  0.00  0.00    +0.000 A 
ATOM     29  C   UNL     1       1.745   8.866  18.549  0.00  0.00    +0.000 A 
ATOM     30  O   UNL     1       1.600   9.612  17.587  0.00  0.00    +0.000 OA
ATOM     31  N   UNL     1       1.083   9.000  19.780  0.00  0.00    +0.000 N 
ATOM     32  C   UNL     1       1.174   8.009  20.752  0.00  0.00    +0.000 A 
ATOM     33  C   UNL     1       1.830   6.862  20.569  0.00  0.00    +0.000 A 
ATOM     34  C   UNL     1       2.624   6.706  19.358  0.00  0.00    +0.000 A 
ATOM     35  N   UNL     1       3.398   5.618  19.323  0.00  0.00    +0.000 NA
ATOM     36  H   UNL     1       5.038   4.055  19.279  0.00  0.00    +0.000 HD
ENDBRANCH  22  31
ENDBRANCH   1  22
TORSDOF 6
ENDMDL
MODEL 8
REMARK VINA RESULT:      -7.6      4.825      9.604
REMARK  Name = 
REMARK  8 active torsions:
REMARK  status: ('A' for Active; 'I' for Inactive)
REMARK    1  A    between atoms: C_1  and  N_2
REMARK    2  A    between atoms: N_9  and  C_10
REMARK    3  A    between atoms: C_10  and  C_11
REMARK    4  A    between atoms: C_11  and  O_12
REMARK    5  A    between atoms: C_16  and  C_18
REMARK    6  A    between atoms: C_18  and  C_19
REMARK    7  A    between atoms: C_18  and  C_20
REMARK    8  A    between atoms: C_20  and  C_21
REMARK                            x       y       z     vdW  Elec       q    Type
REMARK                         _______ _______ _______ _____ _____    ______ ____
ROOT
ATOM      1  C   UNL     1       0.338  11.944  19.148  0.00  0.00    +0.000 C 
ATOM      2  C   UNL     1       1.834  12.190  18.831  0.00  0.00    +0.000 C 
ATOM      3  C   UNL     1       2.209  13.671  18.830  0.00  0.00    +0.000 C 
ATOM      4  N   UNL     1       1.798  14.252  20.096  0.00  0.00    +0.000 N 
ATOM      5  C   UNL     1       2.595  14.497  21.207  0.00  0.00    +0.000 C 
ATOM      6  O   UNL     1       2.094  14.877  22.263  0.00  0.00    +0.000 OA
ATOM      7  C   UNL     1       0.333  14.252  20.261  0.00  0.00    +0.000 C 
ATOM      8  C   UNL     1      -0.214  12.792  20.375  0.00  0.00    +0.000 C 
ATOM      9  C   UNL     1      -1.782  12.839  20.406  0.00  0.00    +0.000 C 
ATOM     10  C   UNL     1      -2.224  12.120  21.676  0.00  0.00    +0.000 C 
ATOM     11  C   UNL     1      -1.088  12.348  22.650  0.00  0.00    +0.000 C 
ATOM     12  C   UNL     1       0.149  12.224  21.770  0.00  0.00    +0.000 C 
ENDROOT
BRANCH   1  13
ATOM     13  O   UNL     1      -0.361  12.464  17.973  0.00  0.00    +0.000 OA
ATOM     14  H   UNL     1      -0.134  11.906  17.207  0.00  0.00    +0.000 HD
ENDBRANCH   1  13
BRANCH   5  15
ATOM     15  C   UNL     1       4.126  14.302  21.158  0.00  0.00    +0.000 C 
ATOM     16  C   UNL     1       4.737  14.077  22.546  0.00  0.00    +0.000 C 
BRANCH  15  17
ATOM     17  C   UNL     1       4.816  15.580  20.611  0.00  0.00    +0.000 C 
BRANCH  17  18
ATOM     18  C   UNL     1       5.745  15.406  19.425  0.00  0.00    +0.000 C 
ATOM     19  F   UNL     1       5.318  14.500  18.524  0.00  0.00    +0.000 F 
ATOM     20  F   UNL     1       5.964  16.580  18.798  0.00  0.00    +0.000 F 
ATOM     21  F   UNL     1       6.956  14.975  19.866  0.00  0.00    +0.000 F 
ENDBRANCH  17  18
ENDBRANCH  15  17
ENDBRANCH   5  15
BRANCH   1  22
ATOM     22  C   UNL     1      -0.004  10.411  19.170  0.00  0.00    +0.000 C 
BRANCH  22  31
ATOM     23  C   UNL     1       6.285   4.613  18.860  0.00  0.00    +0.000 C 
ATOM     24  N   UNL     1       4.911   4.471  19.282  0.00  0.00    +0.000 N 
ATOM     25  C   UNL     1       4.120   5.556  18.939  0.00  0.00    +0.000 A 
ATOM     26  N   UNL     1       4.335   6.237  17.792  0.00  0.00    +0.000 NA
ATOM     27  C   UNL     1       3.547   7.306  17.544  0.00  0.00    +0.000 A 
ATOM     28  C   UNL     1       2.576   7.723  18.415  0.00  0.00    +0.000 A 
ATOM     29  C   UNL     1       1.719   8.898  18.199  0.00  0.00    +0.000 A 
ATOM     30  O   UNL     1       1.634   9.373  17.071  0.00  0.00    +0.000 OA
ATOM     31  N   UNL     1       1.029   9.371  19.326  0.00  0.00    +0.000 N 
ATOM     32  C   UNL     1       1.049   8.666  20.525  0.00  0.00    +0.000 A 
ATOM     33  C   UNL     1       1.660   7.489  20.671  0.00  0.00    +0.000 A 
ATOM     34  C   UNL     1       2.481   6.995  19.573  0.00  0.00    +0.000 A 
ATOM     35  N   UNL     1       3.208   5.910  19.852  0.00  0.00    +0.000 NA
ATOM     36  H   UNL     1       4.779   4.334  20.278  0.00  0.00    +0.000 HD
ENDBRANCH  22  31
ENDBRANCH   1  22
TORSDOF 6
ENDMDL
MODEL 9
REMARK VINA RESULT:      -7.5      1.405      1.711
REMARK  Name = 
REMARK  8 active torsions:
REMARK  status: ('A' for Active; 'I' for Inactive)
REMARK    1  A    between atoms: C_1  and  N_2
REMARK    2  A    between atoms: N_9  and  C_10
REMARK    3  A    between atoms: C_10  and  C_11
REMARK    4  A    between atoms: C_11  and  O_12
REMARK    5  A    between atoms: C_16  and  C_18
REMARK    6  A    between atoms: C_18  and  C_19
REMARK    7  A    between atoms: C_18  and  C_20
REMARK    8  A    between atoms: C_20  and  C_21
REMARK                            x       y       z     vdW  Elec       q    Type
REMARK                         _______ _______ _______ _____ _____    ______ ____
ROOT
ATOM      1  C   UNL     1       3.142   5.226  20.018  0.00  0.00    +0.000 C 
ATOM      2  C   UNL     1       4.311   6.043  19.415  0.00  0.00    +0.000 C 
ATOM      3  C   UNL     1       5.455   5.165  18.911  0.00  0.00    +0.000 C 
ATOM      4  N   UNL     1       4.913   4.187  17.984  0.00  0.00    +0.000 N 
ATOM      5  C   UNL     1       4.925   4.247  16.596  0.00  0.00    +0.000 C 
ATOM      6  O   UNL     1       4.318   3.411  15.930  0.00  0.00    +0.000 OA
ATOM      7  C   UNL     1       3.998   3.240  18.646  0.00  0.00    +0.000 C 
ATOM      8  C   UNL     1       2.708   3.969  19.146  0.00  0.00    +0.000 C 
ATOM      9  C   UNL     1       1.836   2.953  19.963  0.00  0.00    +0.000 C 
ATOM     10  C   UNL     1       0.457   2.928  19.314  0.00  0.00    +0.000 C 
ATOM     11  C   UNL     1       0.722   3.242  17.858  0.00  0.00    +0.000 C 
ATOM     12  C   UNL     1       1.812   4.304  17.928  0.00  0.00    +0.000 C 
ENDROOT
BRANCH   1  13
ATOM     13  O   UNL     1       3.701   4.668  21.250  0.00  0.00    +0.000 OA
ATOM     14  H   UNL     1       2.987   4.220  21.738  0.00  0.00    +0.000 HD
ENDBRANCH   1  13
BRANCH   5  15
ATOM     15  C   UNL     1       5.694   5.355  15.845  0.00  0.00    +0.000 C 
ATOM     16  C   UNL     1       5.060   6.739  16.027  0.00  0.00    +0.000 C 
BRANCH  15  17
ATOM     17  C   UNL     1       5.665   5.091  14.316  0.00  0.00    +0.000 C 
BRANCH  17  18
ATOM     18  C   UNL     1       6.926   4.522  13.693  0.00  0.00    +0.000 C 
ATOM     19  F   UNL     1       6.729   3.378  13.009  0.00  0.00    +0.000 F 
ATOM     20  F   UNL     1       7.522   5.422  12.883  0.00  0.00    +0.000 F 
ATOM     21  F   UNL     1       7.820   4.238  14.676  0.00  0.00    +0.000 F 
ENDBRANCH  17  18
ENDBRANCH  15  17
ENDBRANCH   5  15
BRANCH   1  22
ATOM     22  C   UNL     1       1.972   6.159  20.498  0.00  0.00    +0.000 C 
BRANCH  22  31
ATOM     23  C   UNL     1       0.718  14.491  18.994  0.00  0.00    +0.000 C 
ATOM     24  N   UNL     1       0.248  13.335  18.266  0.00  0.00    +0.000 N 
ATOM     25  C   UNL     1       0.423  12.147  18.958  0.00  0.00    +0.000 A 
ATOM     26  N   UNL     1       0.309  12.103  20.303  0.00  0.00    +0.000 NA
ATOM     27  C   UNL     1       0.529  10.917  20.910  0.00  0.00    +0.000 A 
ATOM     28  C   UNL     1       0.882   9.789  20.217  0.00  0.00    +0.000 A 
ATOM     29  C   UNL     1       1.161   8.487  20.841  0.00  0.00    +0.000 A 
ATOM     30  O   UNL     1       0.783   8.285  21.990  0.00  0.00    +0.000 OA
ATOM     31  N   UNL     1       1.828   7.551  20.035  0.00  0.00    +0.000 N 
ATOM     32  C   UNL     1       2.062   7.804  18.688  0.00  0.00    +0.000 A 
ATOM     33  C   UNL     1       1.630   8.901  18.064  0.00  0.00    +0.000 A 
ATOM     34  C   UNL     1       1.025   9.958  18.864  0.00  0.00    +0.000 A 
ATOM     35  N   UNL     1       0.784  11.097  18.209  0.00  0.00    +0.000 NA
ATOM     36  H   UNL     1       0.679  13.195  17.359  0.00  0.00    +0.000 HD
ENDBRANCH  22  31
ENDBRANCH   1  22
TORSDOF 6
ENDMDL
