MODEL 1
REMARK VINA RESULT:      -8.1      0.000      0.000
REMARK  Name = 
REMARK  9 active torsions:
REMARK  status: ('A' for Active; 'I' for Inactive)
REMARK    1  A    between atoms: C_1  and  C_2
REMARK    2  A    between atoms: C_5  and  S_6
REMARK    3  A    between atoms: S_6  and  N_9
REMARK    4  A    between atoms: N_9  and  C_10
REMARK    5  A    between atoms: C_10  and  C_11
REMARK    6  A    between atoms: C_11  and  O_13
REMARK    7  A    between atoms: O_13  and  C_14
REMARK    8  A    between atoms: C_14  and  C_15
REMARK    9  A    between atoms: C_22  and  C_23
REMARK                            x       y       z     vdW  Elec       q    Type
REMARK                         _______ _______ _______ _____ _____    ______ ____
ROOT
ATOM      1  C   UNL     1       4.508   2.710  20.411  0.00  0.00    +0.000 C 
ATOM      2  O   UNL     1       4.932   1.593  20.131  0.00  0.00    +0.000 OA
ENDROOT
BRANCH   1   3
ATOM      3  C   UNL     1       4.937   3.981  19.594  0.00  0.00    +0.000 C 
BRANCH   3   4
ATOM      4  N   UNL     1       6.218   3.904  18.791  0.00  0.00    +0.000 NA
ATOM      5  H   UNL     1       7.047   3.808  19.386  0.00  0.00    +0.000 HD
BRANCH   4   6
ATOM      6  S   UNL     1       6.580   5.191  17.713  0.00  0.00    +0.000 S 
ATOM      7  O   UNL     1       7.959   5.525  18.011  0.00  0.00    +0.000 OA
ATOM      8  O   UNL     1       5.539   6.185  17.843  0.00  0.00    +0.000 OA
BRANCH   6  13
ATOM      9  C   UNL     1       6.111   3.560  11.798  0.00  0.00    +0.000 C 
ATOM     10  C   UNL     1       6.241   3.938  13.252  0.00  0.00    +0.000 A 
ATOM     11  C   UNL     1       5.310   3.498  14.205  0.00  0.00    +0.000 A 
ATOM     12  C   UNL     1       5.453   3.835  15.563  0.00  0.00    +0.000 A 
ATOM     13  C   UNL     1       6.548   4.592  16.010  0.00  0.00    +0.000 A 
ATOM     14  C   UNL     1       7.439   5.095  15.048  0.00  0.00    +0.000 A 
ATOM     15  C   UNL     1       7.292   4.760  13.684  0.00  0.00    +0.000 A 
ENDBRANCH   6  13
ENDBRANCH   4   6
ENDBRANCH   3   4
ENDBRANCH   1   3
BRANCH   1  16
ATOM     16  O   UNL     1       3.584   2.898  21.419  0.00  0.00    +0.000 OA
BRANCH  16  17
ATOM     17  C   UNL     1       2.097   2.626  21.182  0.00  0.00    +0.000 C 
BRANCH  17  18
ATOM     18  C   UNL     1       1.416   3.642  20.219  0.00  0.00    +0.000 A 
ATOM     19  C   UNL     1       0.742   3.105  19.191  0.00  0.00    +0.000 A 
ATOM     20  C   UNL     1       1.655   3.114  18.016  0.00  0.00    +0.000 A 
ATOM     21  O   UNL     1       1.966   2.066  17.479  0.00  0.00    +0.000 OA
ATOM     22  O   UNL     1       2.184   4.321  17.632  0.00  0.00    +0.000 OA
ATOM     23  C   UNL     1       2.095   5.361  18.563  0.00  0.00    +0.000 A 
ATOM     24  C   UNL     1       2.301   6.642  18.025  0.00  0.00    +0.000 A 
ATOM     25  C   UNL     1       2.144   7.772  18.817  0.00  0.00    +0.000 A 
ATOM     26  C   UNL     1       2.357   9.126  18.184  0.00  0.00    +0.000 C 
ATOM     27  C   UNL     1       1.729   7.567  20.143  0.00  0.00    +0.000 A 
ATOM     28  C   UNL     1       1.558   6.241  20.685  0.00  0.00    +0.000 A 
ATOM     29  C   UNL     1       1.776   5.086  19.907  0.00  0.00    +0.000 A 
ENDBRANCH  17  18
ENDBRANCH  16  17
ENDBRANCH   1  16
TORSDOF 7
ENDMDL
MODEL 2
REMARK VINA RESULT:      -7.9      3.658      7.111
REMARK  Name = 
REMARK  9 active torsions:
REMARK  status: ('A' for Active; 'I' for Inactive)
REMARK    1  A    between atoms: C_1  and  C_2
REMARK    2  A    between atoms: C_5  and  S_6
REMARK    3  A    between atoms: S_6  and  N_9
REMARK    4  A    between atoms: N_9  and  C_10
REMARK    5  A    between atoms: C_10  and  C_11
REMARK    6  A    between atoms: C_11  and  O_13
REMARK    7  A    between atoms: O_13  and  C_14
REMARK    8  A    between atoms: C_14  and  C_15
REMARK    9  A    between atoms: C_22  and  C_23
REMARK                            x       y       z     vdW  Elec       q    Type
REMARK                         _______ _______ _______ _____ _____    ______ ____
ROOT
ATOM      1  C   UNL     1       1.812   5.317  20.349  0.00  0.00    +0.000 C 
ATOM      2  O   UNL     1       2.432   4.973  21.350  0.00  0.00    +0.000 OA
ENDROOT
BRANCH   1   3
ATOM      3  C   UNL     1       1.660   6.830  19.956  0.00  0.00    +0.000 C 
BRANCH   3   4
ATOM      4  N   UNL     1       1.966   7.868  21.013  0.00  0.00    +0.000 NA
ATOM      5  H   UNL     1       2.495   7.480  21.801  0.00  0.00    +0.000 HD
BRANCH   4   6
ATOM      6  S   UNL     1       0.653   8.717  21.724  0.00  0.00    +0.000 S 
ATOM      7  O   UNL     1       1.191   9.220  22.974  0.00  0.00    +0.000 OA
ATOM      8  O   UNL     1      -0.497   7.840  21.720  0.00  0.00    +0.000 OA
BRANCH   6  13
ATOM      9  C   UNL     1      -0.235  13.618  18.110  0.00  0.00    +0.000 C 
ATOM     10  C   UNL     1      -0.042  12.421  19.006  0.00  0.00    +0.000 A 
ATOM     11  C   UNL     1       0.525  12.550  20.283  0.00  0.00    +0.000 A 
ATOM     12  C   UNL     1       0.678  11.430  21.122  0.00  0.00    +0.000 A 
ATOM     13  C   UNL     1       0.239  10.159  20.720  0.00  0.00    +0.000 A 
ATOM     14  C   UNL     1      -0.260  10.015  19.415  0.00  0.00    +0.000 A 
ATOM     15  C   UNL     1      -0.409  11.138  18.572  0.00  0.00    +0.000 A 
ENDBRANCH   6  13
ENDBRANCH   4   6
ENDBRANCH   3   4
ENDBRANCH   1   3
BRANCH   1  16
ATOM     16  O   UNL     1       1.267   4.389  19.484  0.00  0.00    +0.000 OA
BRANCH  16  17
ATOM     17  C   UNL     1       1.593   4.422  17.990  0.00  0.00    +0.000 C 
BRANCH  17  18
ATOM     18  C   UNL     1       3.106   4.246  17.672  0.00  0.00    +0.000 A 
ATOM     19  C   UNL     1       3.575   2.992  17.760  0.00  0.00    +0.000 A 
ATOM     20  C   UNL     1       4.185   2.845  19.109  0.00  0.00    +0.000 A 
ATOM     21  O   UNL     1       3.750   2.016  19.886  0.00  0.00    +0.000 OA
ATOM     22  O   UNL     1       5.178   3.728  19.456  0.00  0.00    +0.000 OA
ATOM     23  C   UNL     1       5.292   4.876  18.665  0.00  0.00    +0.000 A 
ATOM     24  C   UNL     1       6.510   5.559  18.804  0.00  0.00    +0.000 A 
ATOM     25  C   UNL     1       6.797   6.659  18.006  0.00  0.00    +0.000 A 
ATOM     26  C   UNL     1       8.130   7.345  18.182  0.00  0.00    +0.000 C 
ATOM     27  C   UNL     1       5.840   7.010  17.040  0.00  0.00    +0.000 A 
ATOM     28  C   UNL     1       4.579   6.316  16.938  0.00  0.00    +0.000 A 
ATOM     29  C   UNL     1       4.253   5.238  17.786  0.00  0.00    +0.000 A 
ENDBRANCH  17  18
ENDBRANCH  16  17
ENDBRANCH   1  16
TORSDOF 7
ENDMDL
MODEL 3
REMARK VINA RESULT:      -7.8      4.410      7.579
REMARK  Name = 
REMARK  9 active torsions:
REMARK  status: ('A' for Active; 'I' for Inactive)
REMARK    1  A    between atoms: C_1  and  C_2
REMARK    2  A    between atoms: C_5  and  S_6
REMARK    3  A    between atoms: S_6  and  N_9
REMARK    4  A    between atoms: N_9  and  C_10
REMARK    5  A    between atoms: C_10  and  C_11
REMARK    6  A    between atoms: C_11  and  O_13
REMARK    7  A    between atoms: O_13  and  C_14
REMARK    8  A    between atoms: C_14  and  C_15
REMARK    9  A    between atoms: C_22  and  C_23
REMARK                            x       y       z     vdW  Elec       q    Type
REMARK                         _______ _______ _______ _____ _____    ______ ____
ROOT
ATOM      1  C   UNL     1       1.504   7.814  20.524  0.00  0.00    +0.000 C 
ATOM      2  O   UNL     1       1.961   8.321  19.504  0.00  0.00    +0.000 OA
ENDROOT
BRANCH   1   3
ATOM      3  C   UNL     1       0.914   8.693  21.684  0.00  0.00    +0.000 C 
BRANCH   3   4
ATOM      4  N   UNL     1       1.274  10.162  21.710  0.00  0.00    +0.000 NA
ATOM      5  H   UNL     1       1.752  10.433  22.575  0.00  0.00    +0.000 HD
BRANCH   4   6
ATOM      6  S   UNL     1       0.014  11.312  21.510  0.00  0.00    +0.000 S 
ATOM      7  O   UNL     1       0.681  12.594  21.637  0.00  0.00    +0.000 OA
ATOM      8  O   UNL     1      -1.062  10.952  22.406  0.00  0.00    +0.000 OA
BRANCH   6  13
ATOM      9  C   UNL     1      -2.697  11.080  15.990  0.00  0.00    +0.000 C 
ATOM     10  C   UNL     1      -2.009  11.131  17.331  0.00  0.00    +0.000 A 
ATOM     11  C   UNL     1      -1.879   9.984  18.128  0.00  0.00    +0.000 A 
ATOM     12  C   UNL     1      -1.213  10.037  19.366  0.00  0.00    +0.000 A 
ATOM     13  C   UNL     1      -0.632  11.229  19.825  0.00  0.00    +0.000 A 
ATOM     14  C   UNL     1      -0.826  12.394  19.066  0.00  0.00    +0.000 A 
ATOM     15  C   UNL     1      -1.498  12.341  17.825  0.00  0.00    +0.000 A 
ENDBRANCH   6  13
ENDBRANCH   4   6
ENDBRANCH   3   4
ENDBRANCH   1   3
BRANCH   1  16
ATOM     16  O   UNL     1       1.430   6.445  20.677  0.00  0.00    +0.000 OA
BRANCH  16  17
ATOM     17  C   UNL     1       2.587   5.542  20.244  0.00  0.00    +0.000 C 
BRANCH  17  18
ATOM     18  C   UNL     1       2.609   5.234  18.719  0.00  0.00    +0.000 A 
ATOM     19  C   UNL     1       1.671   4.377  18.287  0.00  0.00    +0.000 A 
ATOM     20  C   UNL     1       2.301   3.031  18.228  0.00  0.00    +0.000 A 
ATOM     21  O   UNL     1       1.856   2.121  18.902  0.00  0.00    +0.000 OA
ATOM     22  O   UNL     1       3.432   2.892  17.461  0.00  0.00    +0.000 OA
ATOM     23  C   UNL     1       4.076   4.076  17.086  0.00  0.00    +0.000 A 
ATOM     24  C   UNL     1       4.987   3.932  16.028  0.00  0.00    +0.000 A 
ATOM     25  C   UNL     1       5.623   5.043  15.489  0.00  0.00    +0.000 A 
ATOM     26  C   UNL     1       6.578   4.835  14.338  0.00  0.00    +0.000 C 
ATOM     27  C   UNL     1       5.273   6.295  16.020  0.00  0.00    +0.000 A 
ATOM     28  C   UNL     1       4.361   6.417  17.131  0.00  0.00    +0.000 A 
ATOM     29  C   UNL     1       3.758   5.290  17.726  0.00  0.00    +0.000 A 
ENDBRANCH  17  18
ENDBRANCH  16  17
ENDBRANCH   1  16
TORSDOF 7
ENDMDL
MODEL 4
REMARK VINA RESULT:      -7.8      4.968      8.899
REMARK  Name = 
REMARK  9 active torsions:
REMARK  status: ('A' for Active; 'I' for Inactive)
REMARK    1  A    between atoms: C_1  and  C_2
REMARK    2  A    between atoms: C_5  and  S_6
REMARK    3  A    between atoms: S_6  and  N_9
REMARK    4  A    between atoms: N_9  and  C_10
REMARK    5  A    between atoms: C_10  and  C_11
REMARK    6  A    between atoms: C_11  and  O_13
REMARK    7  A    between atoms: O_13  and  C_14
REMARK    8  A    between atoms: C_14  and  C_15
REMARK    9  A    between atoms: C_22  and  C_23
REMARK                            x       y       z     vdW  Elec       q    Type
REMARK                         _______ _______ _______ _____ _____    ______ ____
ROOT
ATOM      1  C   UNL     1       1.609   8.172  20.397  0.00  0.00    +0.000 C 
ATOM      2  O   UNL     1       1.139   8.251  21.527  0.00  0.00    +0.000 OA
ENDROOT
BRANCH   1   3
ATOM      3  C   UNL     1       1.247   9.214  19.280  0.00  0.00    +0.000 C 
BRANCH   3   4
ATOM      4  N   UNL     1      -0.095   9.908  19.373  0.00  0.00    +0.000 NA
ATOM      5  H   UNL     1      -0.671   9.759  18.539  0.00  0.00    +0.000 HD
BRANCH   4   6
ATOM      6  S   UNL     1      -0.115  11.605  19.639  0.00  0.00    +0.000 S 
ATOM      7  O   UNL     1      -0.767  12.142  18.459  0.00  0.00    +0.000 OA
ATOM      8  O   UNL     1       1.227  12.016  19.987  0.00  0.00    +0.000 OA
BRANCH   6  13
ATOM      9  C   UNL     1      -4.055  12.481  24.284  0.00  0.00    +0.000 C 
ATOM     10  C   UNL     1      -3.078  12.290  23.152  0.00  0.00    +0.000 A 
ATOM     11  C   UNL     1      -3.357  12.761  21.860  0.00  0.00    +0.000 A 
ATOM     12  C   UNL     1      -2.428  12.600  20.816  0.00  0.00    +0.000 A 
ATOM     13  C   UNL     1      -1.183  11.994  21.042  0.00  0.00    +0.000 A 
ATOM     14  C   UNL     1      -0.932  11.455  22.315  0.00  0.00    +0.000 A 
ATOM     15  C   UNL     1      -1.866  11.613  23.361  0.00  0.00    +0.000 A 
ENDBRANCH   6  13
ENDBRANCH   4   6
ENDBRANCH   3   4
ENDBRANCH   1   3
BRANCH   1  16
ATOM     16  O   UNL     1       2.530   7.197  20.067  0.00  0.00    +0.000 OA
BRANCH  16  17
ATOM     17  C   UNL     1       2.083   5.767  19.756  0.00  0.00    +0.000 C 
BRANCH  17  18
ATOM     18  C   UNL     1       2.372   5.321  18.293  0.00  0.00    +0.000 A 
ATOM     19  C   UNL     1       1.557   4.374  17.804  0.00  0.00    +0.000 A 
ATOM     20  C   UNL     1       2.246   3.068  17.984  0.00  0.00    +0.000 A 
ATOM     21  O   UNL     1       1.734   2.199  18.667  0.00  0.00    +0.000 OA
ATOM     22  O   UNL     1       3.494   2.925  17.429  0.00  0.00    +0.000 OA
ATOM     23  C   UNL     1       4.140   4.106  17.046  0.00  0.00    +0.000 A 
ATOM     24  C   UNL     1       5.220   3.918  16.169  0.00  0.00    +0.000 A 
ATOM     25  C   UNL     1       5.889   5.010  15.631  0.00  0.00    +0.000 A 
ATOM     26  C   UNL     1       7.030   4.752  14.677  0.00  0.00    +0.000 C 
ATOM     27  C   UNL     1       5.401   6.283  15.968  0.00  0.00    +0.000 A 
ATOM     28  C   UNL     1       4.312   6.454  16.899  0.00  0.00    +0.000 A 
ATOM     29  C   UNL     1       3.668   5.353  17.499  0.00  0.00    +0.000 A 
ENDBRANCH  17  18
ENDBRANCH  16  17
ENDBRANCH   1  16
TORSDOF 7
ENDMDL
MODEL 5
REMARK VINA RESULT:      -7.8      4.885      8.762
REMARK  Name = 
REMARK  9 active torsions:
REMARK  status: ('A' for Active; 'I' for Inactive)
REMARK    1  A    between atoms: C_1  and  C_2
REMARK    2  A    between atoms: C_5  and  S_6
REMARK    3  A    between atoms: S_6  and  N_9
REMARK    4  A    between atoms: N_9  and  C_10
REMARK    5  A    between atoms: C_10  and  C_11
REMARK    6  A    between atoms: C_11  and  O_13
REMARK    7  A    between atoms: O_13  and  C_14
REMARK    8  A    between atoms: C_14  and  C_15
REMARK    9  A    between atoms: C_22  and  C_23
REMARK                            x       y       z     vdW  Elec       q    Type
REMARK                         _______ _______ _______ _____ _____    ______ ____
ROOT
ATOM      1  C   UNL     1       1.490   7.685  20.478  0.00  0.00    +0.000 C 
ATOM      2  O   UNL     1       2.168   8.131  19.559  0.00  0.00    +0.000 OA
ENDROOT
BRANCH   1   3
ATOM      3  C   UNL     1       0.586   8.617  21.362  0.00  0.00    +0.000 C 
BRANCH   3   4
ATOM      4  N   UNL     1       1.166   9.940  21.813  0.00  0.00    +0.000 NA
ATOM      5  H   UNL     1       0.962  10.142  22.796  0.00  0.00    +0.000 HD
BRANCH   4   6
ATOM      6  S   UNL     1       0.717  11.359  20.955  0.00  0.00    +0.000 S 
ATOM      7  O   UNL     1       0.486  10.896  19.600  0.00  0.00    +0.000 OA
ATOM      8  O   UNL     1       1.711  12.374  21.224  0.00  0.00    +0.000 OA
BRANCH   6  13
ATOM      9  C   UNL     1      -4.903  12.976  22.868  0.00  0.00    +0.000 C 
ATOM     10  C   UNL     1      -3.517  12.605  22.406  0.00  0.00    +0.000 A 
ATOM     11  C   UNL     1      -3.109  12.817  21.081  0.00  0.00    +0.000 A 
ATOM     12  C   UNL     1      -1.805  12.490  20.665  0.00  0.00    +0.000 A 
ATOM     13  C   UNL     1      -0.866  11.973  21.571  0.00  0.00    +0.000 A 
ATOM     14  C   UNL     1      -1.294  11.690  22.878  0.00  0.00    +0.000 A 
ATOM     15  C   UNL     1      -2.604  12.014  23.293  0.00  0.00    +0.000 A 
ENDBRANCH   6  13
ENDBRANCH   4   6
ENDBRANCH   3   4
ENDBRANCH   1   3
BRANCH   1  16
ATOM     16  O   UNL     1       1.439   6.331  20.745  0.00  0.00    +0.000 OA
BRANCH  16  17
ATOM     17  C   UNL     1       2.572   5.401  20.306  0.00  0.00    +0.000 C 
BRANCH  17  18
ATOM     18  C   UNL     1       2.609   5.133  18.774  0.00  0.00    +0.000 A 
ATOM     19  C   UNL     1       1.684   4.278  18.312  0.00  0.00    +0.000 A 
ATOM     20  C   UNL     1       2.328   2.940  18.224  0.00  0.00    +0.000 A 
ATOM     21  O   UNL     1       1.888   2.009  18.871  0.00  0.00    +0.000 OA
ATOM     22  O   UNL     1       3.467   2.832  17.463  0.00  0.00    +0.000 OA
ATOM     23  C   UNL     1       4.101   4.032  17.124  0.00  0.00    +0.000 A 
ATOM     24  C   UNL     1       5.022   3.924  16.070  0.00  0.00    +0.000 A 
ATOM     25  C   UNL     1       5.651   5.055  15.565  0.00  0.00    +0.000 A 
ATOM     26  C   UNL     1       6.617   4.887  14.417  0.00  0.00    +0.000 C 
ATOM     27  C   UNL     1       5.283   6.290  16.125  0.00  0.00    +0.000 A 
ATOM     28  C   UNL     1       4.362   6.374  17.231  0.00  0.00    +0.000 A 
ATOM     29  C   UNL     1       3.766   5.226  17.792  0.00  0.00    +0.000 A 
ENDBRANCH  17  18
ENDBRANCH  16  17
ENDBRANCH   1  16
TORSDOF 7
ENDMDL
MODEL 6
REMARK VINA RESULT:      -7.8      5.616      8.077
REMARK  Name = 
REMARK  9 active torsions:
REMARK  status: ('A' for Active; 'I' for Inactive)
REMARK    1  A    between atoms: C_1  and  C_2
REMARK    2  A    between atoms: C_5  and  S_6
REMARK    3  A    between atoms: S_6  and  N_9
REMARK    4  A    between atoms: N_9  and  C_10
REMARK    5  A    between atoms: C_10  and  C_11
REMARK    6  A    between atoms: C_11  and  O_13
REMARK    7  A    between atoms: O_13  and  C_14
REMARK    8  A    between atoms: C_14  and  C_15
REMARK    9  A    between atoms: C_22  and  C_23
REMARK                            x       y       z     vdW  Elec       q    Type
REMARK                         _______ _______ _______ _____ _____    ______ ____
ROOT
ATOM      1  C   UNL     1       7.907   7.945  17.916  0.00  0.00    +0.000 C 
ATOM      2  O   UNL     1       8.388   7.238  18.797  0.00  0.00    +0.000 OA
ENDROOT
BRANCH   1   3
ATOM      3  C   UNL     1       8.135   9.498  17.893  0.00  0.00    +0.000 C 
BRANCH   3   4
ATOM      4  N   UNL     1       9.070  10.090  18.926  0.00  0.00    +0.000 NA
ATOM      5  H   UNL     1       8.643  10.139  19.856  0.00  0.00    +0.000 HD
BRANCH   4   6
ATOM      6  S   UNL     1       9.713  11.656  18.639  0.00  0.00    +0.000 S 
ATOM      7  O   UNL     1       8.771  12.262  17.716  0.00  0.00    +0.000 OA
ATOM      8  O   UNL     1      11.103  11.505  18.274  0.00  0.00    +0.000 OA
BRANCH   6  13
ATOM      9  C   UNL     1       8.973  15.085  23.694  0.00  0.00    +0.000 C 
ATOM     10  C   UNL     1       9.181  14.244  22.461  0.00  0.00    +0.000 A 
ATOM     11  C   UNL     1       9.469  14.829  21.219  0.00  0.00    +0.000 A 
ATOM     12  C   UNL     1       9.686  14.034  20.078  0.00  0.00    +0.000 A 
ATOM     13  C   UNL     1       9.653  12.633  20.156  0.00  0.00    +0.000 A 
ATOM     14  C   UNL     1       9.291  12.047  21.381  0.00  0.00    +0.000 A 
ATOM     15  C   UNL     1       9.069  12.846  22.523  0.00  0.00    +0.000 A 
ENDBRANCH   6  13
ENDBRANCH   4   6
ENDBRANCH   3   4
ENDBRANCH   1   3
BRANCH   1  16
ATOM     16  O   UNL     1       7.192   7.403  16.867  0.00  0.00    +0.000 OA
BRANCH  16  17
ATOM     17  C   UNL     1       5.693   7.126  16.999  0.00  0.00    +0.000 C 
BRANCH  17  18
ATOM     18  C   UNL     1       5.361   5.730  17.599  0.00  0.00    +0.000 A 
ATOM     19  C   UNL     1       6.267   4.768  17.367  0.00  0.00    +0.000 A 
ATOM     20  C   UNL     1       5.798   3.999  16.184  0.00  0.00    +0.000 A 
ATOM     21  O   UNL     1       6.485   3.948  15.180  0.00  0.00    +0.000 OA
ATOM     22  O   UNL     1       4.546   3.438  16.246  0.00  0.00    +0.000 OA
ATOM     23  C   UNL     1       3.703   3.915  17.255  0.00  0.00    +0.000 A 
ATOM     24  C   UNL     1       2.598   3.092  17.526  0.00  0.00    +0.000 A 
ATOM     25  C   UNL     1       1.734   3.393  18.571  0.00  0.00    +0.000 A 
ATOM     26  C   UNL     1       0.573   2.464  18.832  0.00  0.00    +0.000 C 
ATOM     27  C   UNL     1       2.050   4.516  19.353  0.00  0.00    +0.000 A 
ATOM     28  C   UNL     1       3.170   5.368  19.036  0.00  0.00    +0.000 A 
ATOM     29  C   UNL     1       4.017   5.105  17.940  0.00  0.00    +0.000 A 
ENDBRANCH  17  18
ENDBRANCH  16  17
ENDBRANCH   1  16
TORSDOF 7
ENDMDL
MODEL 7
REMARK VINA RESULT:      -7.7      5.450      7.875
REMARK  Name = 
REMARK  9 active torsions:
REMARK  status: ('A' for Active; 'I' for Inactive)
REMARK    1  A    between atoms: C_1  and  C_2
REMARK    2  A    between atoms: C_5  and  S_6
REMARK    3  A    between atoms: S_6  and  N_9
REMARK    4  A    between atoms: N_9  and  C_10
REMARK    5  A    between atoms: C_10  and  C_11
REMARK    6  A    between atoms: C_11  and  O_13
REMARK    7  A    between atoms: O_13  and  C_14
REMARK    8  A    between atoms: C_14  and  C_15
REMARK    9  A    between atoms: C_22  and  C_23
REMARK                            x       y       z     vdW  Elec       q    Type
REMARK                         _______ _______ _______ _____ _____    ______ ____
ROOT
ATOM      1  C   UNL     1       7.865   7.850  17.849  0.00  0.00    +0.000 C 
ATOM      2  O   UNL     1       8.293   7.069  18.693  0.00  0.00    +0.000 OA
ENDROOT
BRANCH   1   3
ATOM      3  C   UNL     1       8.191   9.385  17.908  0.00  0.00    +0.000 C 
BRANCH   3   4
ATOM      4  N   UNL     1       9.152   9.861  18.976  0.00  0.00    +0.000 NA
ATOM      5  H   UNL     1       8.759   9.782  19.919  0.00  0.00    +0.000 HD
BRANCH   4   6
ATOM      6  S   UNL     1       9.756  11.465  18.869  0.00  0.00    +0.000 S 
ATOM      7  O   UNL     1       9.050  12.035  17.738  0.00  0.00    +0.000 OA
ATOM      8  O   UNL     1      11.200  11.397  18.875  0.00  0.00    +0.000 OA
BRANCH   6  13
ATOM      9  C   UNL     1       8.572  14.667  23.989  0.00  0.00    +0.000 C 
ATOM     10  C   UNL     1       8.835  13.882  22.729  0.00  0.00    +0.000 A 
ATOM     11  C   UNL     1       8.883  12.480  22.741  0.00  0.00    +0.000 A 
ATOM     12  C   UNL     1       9.105  11.754  21.556  0.00  0.00    +0.000 A 
ATOM     13  C   UNL     1       9.252  12.410  20.324  0.00  0.00    +0.000 A 
ATOM     14  C   UNL     1       9.280  13.814  20.321  0.00  0.00    +0.000 A 
ATOM     15  C   UNL     1       9.061  14.541  21.511  0.00  0.00    +0.000 A 
ENDBRANCH   6  13
ENDBRANCH   4   6
ENDBRANCH   3   4
ENDBRANCH   1   3
BRANCH   1  16
ATOM     16  O   UNL     1       7.127   7.410  16.769  0.00  0.00    +0.000 OA
BRANCH  16  17
ATOM     17  C   UNL     1       5.629   7.129  16.904  0.00  0.00    +0.000 C 
BRANCH  17  18
ATOM     18  C   UNL     1       5.301   5.806  17.653  0.00  0.00    +0.000 A 
ATOM     19  C   UNL     1       6.037   4.741  17.299  0.00  0.00    +0.000 A 
ATOM     20  C   UNL     1       5.248   3.977  16.296  0.00  0.00    +0.000 A 
ATOM     21  O   UNL     1       5.692   3.806  15.175  0.00  0.00    +0.000 OA
ATOM     22  O   UNL     1       3.991   3.560  16.659  0.00  0.00    +0.000 OA
ATOM     23  C   UNL     1       3.439   4.170  17.791  0.00  0.00    +0.000 A 
ATOM     24  C   UNL     1       2.345   3.486  18.344  0.00  0.00    +0.000 A 
ATOM     25  C   UNL     1       1.763   3.926  19.526  0.00  0.00    +0.000 A 
ATOM     26  C   UNL     1       0.602   3.142  20.089  0.00  0.00    +0.000 C 
ATOM     27  C   UNL     1       2.351   5.040  20.147  0.00  0.00    +0.000 A 
ATOM     28  C   UNL     1       3.452   5.750  19.543  0.00  0.00    +0.000 A 
ATOM     29  C   UNL     1       4.009   5.348  18.312  0.00  0.00    +0.000 A 
ENDBRANCH  17  18
ENDBRANCH  16  17
ENDBRANCH   1  16
TORSDOF 7
ENDMDL
MODEL 8
REMARK VINA RESULT:      -7.7      5.748      8.751
REMARK  Name = 
REMARK  9 active torsions:
REMARK  status: ('A' for Active; 'I' for Inactive)
REMARK    1  A    between atoms: C_1  and  C_2
REMARK    2  A    between atoms: C_5  and  S_6
REMARK    3  A    between atoms: S_6  and  N_9
REMARK    4  A    between atoms: N_9  and  C_10
REMARK    5  A    between atoms: C_10  and  C_11
REMARK    6  A    between atoms: C_11  and  O_13
REMARK    7  A    between atoms: O_13  and  C_14
REMARK    8  A    between atoms: C_14  and  C_15
REMARK    9  A    between atoms: C_22  and  C_23
REMARK                            x       y       z     vdW  Elec       q    Type
REMARK                         _______ _______ _______ _____ _____    ______ ____
ROOT
ATOM      1  C   UNL     1       8.014   7.816  17.971  0.00  0.00    +0.000 C 
ATOM      2  O   UNL     1       8.378   7.199  18.967  0.00  0.00    +0.000 OA
ENDROOT
BRANCH   1   3
ATOM      3  C   UNL     1       7.417   7.079  16.720  0.00  0.00    +0.000 C 
BRANCH   3   4
ATOM      4  N   UNL     1       5.964   6.659  16.776  0.00  0.00    +0.000 NA
ATOM      5  H   UNL     1       5.562   6.763  17.713  0.00  0.00    +0.000 HD
BRANCH   4   6
ATOM      6  S   UNL     1       5.560   5.063  16.284  0.00  0.00    +0.000 S 
ATOM      7  O   UNL     1       6.671   4.256  16.752  0.00  0.00    +0.000 OA
ATOM      8  O   UNL     1       5.223   5.103  14.879  0.00  0.00    +0.000 OA
BRANCH   6  13
ATOM      9  C   UNL     1       0.881   3.147  19.791  0.00  0.00    +0.000 C 
ATOM     10  C   UNL     1       2.012   3.613  18.910  0.00  0.00    +0.000 A 
ATOM     11  C   UNL     1       2.962   2.712  18.407  0.00  0.00    +0.000 A 
ATOM     12  C   UNL     1       4.000   3.152  17.565  0.00  0.00    +0.000 A 
ATOM     13  C   UNL     1       4.096   4.497  17.177  0.00  0.00    +0.000 A 
ATOM     14  C   UNL     1       3.191   5.413  17.739  0.00  0.00    +0.000 A 
ATOM     15  C   UNL     1       2.153   4.971  18.588  0.00  0.00    +0.000 A 
ENDBRANCH   6  13
ENDBRANCH   4   6
ENDBRANCH   3   4
ENDBRANCH   1   3
BRANCH   1  16
ATOM     16  O   UNL     1       8.053   9.195  17.924  0.00  0.00    +0.000 OA
BRANCH  16  17
ATOM     17  C   UNL     1       9.083   9.980  18.740  0.00  0.00    +0.000 C 
BRANCH  17  18
ATOM     18  C   UNL     1       9.464  11.354  18.118  0.00  0.00    +0.000 A 
ATOM     19  C   UNL     1      10.764  11.519  17.829  0.00  0.00    +0.000 A 
ATOM     20  C   UNL     1      11.380  12.243  18.973  0.00  0.00    +0.000 A 
ATOM     21  O   UNL     1      12.282  11.726  19.606  0.00  0.00    +0.000 OA
ATOM     22  O   UNL     1      10.835  13.454  19.326  0.00  0.00    +0.000 OA
ATOM     23  C   UNL     1       9.564  13.735  18.812  0.00  0.00    +0.000 A 
ATOM     24  C   UNL     1       9.198  15.088  18.879  0.00  0.00    +0.000 A 
ATOM     25  C   UNL     1       8.005  15.524  18.316  0.00  0.00    +0.000 A 
ATOM     26  C   UNL     1       7.668  16.993  18.398  0.00  0.00    +0.000 C 
ATOM     27  C   UNL     1       7.229  14.562  17.648  0.00  0.00    +0.000 A 
ATOM     28  C   UNL     1       7.607  13.170  17.623  0.00  0.00    +0.000 A 
ATOM     29  C   UNL     1       8.785  12.708  18.245  0.00  0.00    +0.000 A 
ENDBRANCH  17  18
ENDBRANCH  16  17
ENDBRANCH   1  16
TORSDOF 7
ENDMDL
MODEL 9
REMARK VINA RESULT:      -7.7      6.258      8.867
REMARK  Name = 
REMARK  9 active torsions:
REMARK  status: ('A' for Active; 'I' for Inactive)
REMARK    1  A    between atoms: C_1  and  C_2
REMARK    2  A    between atoms: C_5  and  S_6
REMARK    3  A    between atoms: S_6  and  N_9
REMARK    4  A    between atoms: N_9  and  C_10
REMARK    5  A    between atoms: C_10  and  C_11
REMARK    6  A    between atoms: C_11  and  O_13
REMARK    7  A    between atoms: O_13  and  C_14
REMARK    8  A    between atoms: C_14  and  C_15
REMARK    9  A    between atoms: C_22  and  C_23
REMARK                            x       y       z     vdW  Elec       q    Type
REMARK                         _______ _______ _______ _____ _____    ______ ____
ROOT
ATOM      1  C   UNL     1       8.209   7.483  18.382  0.00  0.00    +0.000 C 
ATOM      2  O   UNL     1       8.081   6.420  18.981  0.00  0.00    +0.000 OA
ENDROOT
BRANCH   1   3
ATOM      3  C   UNL     1       7.551   7.719  16.976  0.00  0.00    +0.000 C 
BRANCH   3   4
ATOM      4  N   UNL     1       6.093   7.348  16.809  0.00  0.00    +0.000 NA
ATOM      5  H   UNL     1       5.573   7.399  17.690  0.00  0.00    +0.000 HD
BRANCH   4   6
ATOM      6  S   UNL     1       5.717   5.807  16.149  0.00  0.00    +0.000 S 
ATOM      7  O   UNL     1       6.910   5.017  16.391  0.00  0.00    +0.000 OA
ATOM      8  O   UNL     1       5.230   6.007  14.803  0.00  0.00    +0.000 OA
BRANCH   6  13
ATOM      9  C   UNL     1       0.858   3.262  18.938  0.00  0.00    +0.000 C 
ATOM     10  C   UNL     1       2.062   3.885  18.278  0.00  0.00    +0.000 A 
ATOM     11  C   UNL     1       2.241   5.276  18.251  0.00  0.00    +0.000 A 
ATOM     12  C   UNL     1       3.381   5.846  17.655  0.00  0.00    +0.000 A 
ATOM     13  C   UNL     1       4.386   5.040  17.099  0.00  0.00    +0.000 A 
ATOM     14  C   UNL     1       4.174   3.652  17.058  0.00  0.00    +0.000 A 
ATOM     15  C   UNL     1       3.028   3.081  17.653  0.00  0.00    +0.000 A 
ENDBRANCH   6  13
ENDBRANCH   4   6
ENDBRANCH   3   4
ENDBRANCH   1   3
BRANCH   1  16
ATOM     16  O   UNL     1       8.886   8.548  18.941  0.00  0.00    +0.000 OA
BRANCH  16  17
ATOM     17  C   UNL     1       8.616   9.981  18.476  0.00  0.00    +0.000 C 
BRANCH  17  18
ATOM     18  C   UNL     1       9.725  10.994  18.882  0.00  0.00    +0.000 A 
ATOM     19  C   UNL     1       9.999  11.060  20.195  0.00  0.00    +0.000 A 
ATOM     20  C   UNL     1       9.221  12.201  20.747  0.00  0.00    +0.000 A 
ATOM     21  O   UNL     1       8.394  12.008  21.619  0.00  0.00    +0.000 OA
ATOM     22  O   UNL     1       9.416  13.437  20.180  0.00  0.00    +0.000 OA
ATOM     23  C   UNL     1      10.055  13.453  18.936  0.00  0.00    +0.000 A 
ATOM     24  C   UNL     1      10.561  14.708  18.560  0.00  0.00    +0.000 A 
ATOM     25  C   UNL     1      11.305  14.847  17.395  0.00  0.00    +0.000 A 
ATOM     26  C   UNL     1      11.843  16.214  17.047  0.00  0.00    +0.000 C 
ATOM     27  C   UNL     1      11.558  13.678  16.659  0.00  0.00    +0.000 A 
ATOM     28  C   UNL     1      10.999  12.406  17.044  0.00  0.00    +0.000 A 
ATOM     29  C   UNL     1      10.190  12.266  18.191  0.00  0.00    +0.000 A 
ENDBRANCH  17  18
ENDBRANCH  16  17
ENDBRANCH   1  16
TORSDOF 7
ENDMDL
