MODEL 1
REMARK VINA RESULT:     -10.1      0.000      0.000
REMARK  Name = 
REMARK  7 active torsions:
REMARK  status: ('A' for Active; 'I' for Inactive)
REMARK    1  A    between atoms: C_1  and  C_2
REMARK    2  A    between atoms: C_2  and  C_3
REMARK    3  A    between atoms: C_6  and  C_7
REMARK    4  A    between atoms: C_6  and  C_8
REMARK    5  A    between atoms: C_18  and  C_19
REMARK    6  A    between atoms: C_22  and  C_23
REMARK    7  A    between atoms: C_23  and  O_25
REMARK                            x       y       z     vdW  Elec       q    Type
REMARK                         _______ _______ _______ _____ _____    ______ ____
ROOT
ATOM      1  C   UNL     1       5.879   4.528  16.167  0.00  0.00    +0.000 C 
ATOM      2  C   UNL     1       5.201   5.432  17.329  0.00  0.00    +0.000 C 
ATOM      3  C   UNL     1       6.204   6.621  17.181  0.00  0.00    +0.000 C 
ATOM      4  C   UNL     1       5.425   4.308  18.462  0.00  0.00    +0.000 C 
ATOM      5  C   UNL     1       4.320   3.996  19.452  0.00  0.00    +0.000 C 
ATOM      6  C   UNL     1       2.936   4.105  18.815  0.00  0.00    +0.000 C 
ATOM      7  C   UNL     1       2.588   3.553  17.410  0.00  0.00    +0.000 C 
ATOM      8  C   UNL     1       1.900   3.490  19.768  0.00  0.00    +0.000 C 
ATOM      9  C   UNL     1       2.929   5.595  18.637  0.00  0.00    +0.000 A 
ATOM     10  C   UNL     1       2.208   6.361  19.565  0.00  0.00    +0.000 A 
ATOM     11  C   UNL     1       2.060   7.711  19.419  0.00  0.00    +0.000 A 
ATOM     12  C   UNL     1       2.422   8.263  18.198  0.00  0.00    +0.000 A 
ATOM     13  C   UNL     1       3.369   7.529  17.350  0.00  0.00    +0.000 A 
ATOM     14  C   UNL     1       3.765   6.183  17.646  0.00  0.00    +0.000 A 
ATOM     15  C   UNL     1       1.620   9.506  17.807  0.00  0.00    +0.000 C 
ATOM     16  C   UNL     1       0.826  10.332  18.925  0.00  0.00    +0.000 C 
ATOM     17  C   UNL     1       0.877   9.745  20.306  0.00  0.00    +0.000 A 
ATOM     18  C   UNL     1       0.388  10.156  21.609  0.00  0.00    +0.000 A 
ATOM     19  C   UNL     1       0.847   9.201  22.501  0.00  0.00    +0.000 A 
ATOM     20  N   UNL     1       1.483   8.229  21.821  0.00  0.00    +0.000 N 
ATOM     21  C   UNL     1       1.465   8.508  20.473  0.00  0.00    +0.000 A 
ATOM     22  H   UNL     1       1.965   7.425  22.221  0.00  0.00    +0.000 HD
ENDROOT
BRANCH  18  23
ATOM     23  C   UNL     1      -0.377  11.316  22.098  0.00  0.00    +0.000 A 
ATOM     24  C   UNL     1      -1.461  11.141  22.957  0.00  0.00    +0.000 A 
ATOM     25  C   UNL     1      -2.165  12.238  23.489  0.00  0.00    +0.000 A 
ATOM     26  C   UNL     1      -1.829  13.522  23.118  0.00  0.00    +0.000 A 
ATOM     27  C   UNL     1      -0.745  13.729  22.241  0.00  0.00    +0.000 A 
ATOM     28  C   UNL     1      -0.024  12.621  21.740  0.00  0.00    +0.000 A 
BRANCH  26  29
ATOM     29  C   UNL     1      -2.621  14.662  23.643  0.00  0.00    +0.000 C 
ATOM     30  O   UNL     1      -2.607  15.789  23.146  0.00  0.00    +0.000 OA
BRANCH  29  31
ATOM     31  O   UNL     1      -3.338  14.378  24.756  0.00  0.00    +0.000 OA
ATOM     32  H   UNL     1      -4.304  14.304  24.598  0.00  0.00    +0.000 HD
ENDBRANCH  29  31
ENDBRANCH  26  29
ENDBRANCH  18  23
TORSDOF 3
ENDMDL
MODEL 2
REMARK VINA RESULT:      -9.9      0.766      1.138
REMARK  Name = 
REMARK  7 active torsions:
REMARK  status: ('A' for Active; 'I' for Inactive)
REMARK    1  A    between atoms: C_1  and  C_2
REMARK    2  A    between atoms: C_2  and  C_3
REMARK    3  A    between atoms: C_6  and  C_7
REMARK    4  A    between atoms: C_6  and  C_8
REMARK    5  A    between atoms: C_18  and  C_19
REMARK    6  A    between atoms: C_22  and  C_23
REMARK    7  A    between atoms: C_23  and  O_25
REMARK                            x       y       z     vdW  Elec       q    Type
REMARK                         _______ _______ _______ _____ _____    ______ ____
ROOT
ATOM      1  C   UNL     1       6.494   4.722  16.181  0.00  0.00    +0.000 C 
ATOM      2  C   UNL     1       5.680   5.565  17.301  0.00  0.00    +0.000 C 
ATOM      3  C   UNL     1       6.586   6.833  17.205  0.00  0.00    +0.000 C 
ATOM      4  C   UNL     1       5.936   4.461  18.448  0.00  0.00    +0.000 C 
ATOM      5  C   UNL     1       4.808   4.055  19.377  0.00  0.00    +0.000 C 
ATOM      6  C   UNL     1       3.456   4.049  18.665  0.00  0.00    +0.000 C 
ATOM      7  C   UNL     1       3.234   3.472  17.244  0.00  0.00    +0.000 C 
ATOM      8  C   UNL     1       2.426   3.347  19.561  0.00  0.00    +0.000 C 
ATOM      9  C   UNL     1       3.334   5.533  18.482  0.00  0.00    +0.000 A 
ATOM     10  C   UNL     1       2.501   6.234  19.367  0.00  0.00    +0.000 A 
ATOM     11  C   UNL     1       2.249   7.567  19.210  0.00  0.00    +0.000 A 
ATOM     12  C   UNL     1       2.630   8.150  18.009  0.00  0.00    +0.000 A 
ATOM     13  C   UNL     1       3.680   7.499  17.216  0.00  0.00    +0.000 A 
ATOM     14  C   UNL     1       4.170   6.191  17.537  0.00  0.00    +0.000 A 
ATOM     15  C   UNL     1       1.748   9.322  17.571  0.00  0.00    +0.000 C 
ATOM     16  C   UNL     1       0.828  10.076  18.641  0.00  0.00    +0.000 C 
ATOM     17  C   UNL     1       0.852   9.493  20.025  0.00  0.00    +0.000 A 
ATOM     18  C   UNL     1       0.260   9.860  21.298  0.00  0.00    +0.000 A 
ATOM     19  C   UNL     1       0.748   8.945  22.216  0.00  0.00    +0.000 A 
ATOM     20  N   UNL     1       1.499   8.031  21.576  0.00  0.00    +0.000 N 
ATOM     21  C   UNL     1       1.533   8.310  20.227  0.00  0.00    +0.000 A 
ATOM     22  H   UNL     1       2.025   7.270  22.003  0.00  0.00    +0.000 HD
ENDROOT
BRANCH  18  23
ATOM     23  C   UNL     1      -0.626  10.950  21.741  0.00  0.00    +0.000 A 
ATOM     24  C   UNL     1      -1.005  11.960  20.858  0.00  0.00    +0.000 A 
ATOM     25  C   UNL     1      -1.904  12.975  21.239  0.00  0.00    +0.000 A 
ATOM     26  C   UNL     1      -2.384  13.023  22.530  0.00  0.00    +0.000 A 
ATOM     27  C   UNL     1      -2.008  12.022  23.449  0.00  0.00    +0.000 A 
ATOM     28  C   UNL     1      -1.132  10.990  23.044  0.00  0.00    +0.000 A 
BRANCH  26  29
ATOM     29  C   UNL     1      -3.283  14.135  22.931  0.00  0.00    +0.000 C 
ATOM     30  O   UNL     1      -4.509  14.097  22.812  0.00  0.00    +0.000 OA
BRANCH  29  31
ATOM     31  O   UNL     1      -2.642  15.229  23.402  0.00  0.00    +0.000 OA
ATOM     32  H   UNL     1      -2.021  15.634  22.759  0.00  0.00    +0.000 HD
ENDBRANCH  29  31
ENDBRANCH  26  29
ENDBRANCH  18  23
TORSDOF 3
ENDMDL
MODEL 3
REMARK VINA RESULT:      -9.1      0.959      1.072
REMARK  Name = 
REMARK  7 active torsions:
REMARK  status: ('A' for Active; 'I' for Inactive)
REMARK    1  A    between atoms: C_1  and  C_2
REMARK    2  A    between atoms: C_2  and  C_3
REMARK    3  A    between atoms: C_6  and  C_7
REMARK    4  A    between atoms: C_6  and  C_8
REMARK    5  A    between atoms: C_18  and  C_19
REMARK    6  A    between atoms: C_22  and  C_23
REMARK    7  A    between atoms: C_23  and  O_25
REMARK                            x       y       z     vdW  Elec       q    Type
REMARK                         _______ _______ _______ _____ _____    ______ ____
ROOT
ATOM      1  C   UNL     1       5.081   3.446  16.898  0.00  0.00    +0.000 C 
ATOM      2  C   UNL     1       4.550   4.576  17.932  0.00  0.00    +0.000 C 
ATOM      3  C   UNL     1       5.760   5.539  17.716  0.00  0.00    +0.000 C 
ATOM      4  C   UNL     1       4.529   3.554  19.179  0.00  0.00    +0.000 C 
ATOM      5  C   UNL     1       3.357   3.554  20.141  0.00  0.00    +0.000 C 
ATOM      6  C   UNL     1       2.036   3.846  19.431  0.00  0.00    +0.000 C 
ATOM      7  C   UNL     1       1.632   3.222  18.072  0.00  0.00    +0.000 C 
ATOM      8  C   UNL     1       0.877   3.532  20.390  0.00  0.00    +0.000 C 
ATOM      9  C   UNL     1       2.311   5.285  19.108  0.00  0.00    +0.000 A 
ATOM     10  C   UNL     1       1.718   6.261  19.922  0.00  0.00    +0.000 A 
ATOM     11  C   UNL     1       1.828   7.593  19.638  0.00  0.00    +0.000 A 
ATOM     12  C   UNL     1       2.322   7.939  18.388  0.00  0.00    +0.000 A 
ATOM     13  C   UNL     1       3.139   6.960  17.661  0.00  0.00    +0.000 A 
ATOM     14  C   UNL     1       3.269   5.604  18.105  0.00  0.00    +0.000 A 
ATOM     15  C   UNL     1       1.776   9.260  17.839  0.00  0.00    +0.000 C 
ATOM     16  C   UNL     1       1.118  10.328  18.832  0.00  0.00    +0.000 C 
ATOM     17  C   UNL     1       1.019   9.890  20.265  0.00  0.00    +0.000 A 
ATOM     18  C   UNL     1       0.578  10.518  21.497  0.00  0.00    +0.000 A 
ATOM     19  C   UNL     1       0.825   9.594  22.498  0.00  0.00    +0.000 A 
ATOM     20  N   UNL     1       1.289   8.457  21.948  0.00  0.00    +0.000 N 
ATOM     21  C   UNL     1       1.362   8.592  20.579  0.00  0.00    +0.000 A 
ATOM     22  H   UNL     1       1.602   7.625  22.446  0.00  0.00    +0.000 HD
ENDROOT
BRANCH  18  23
ATOM     23  C   UNL     1       0.028  11.842  21.833  0.00  0.00    +0.000 A 
ATOM     24  C   UNL     1      -1.024  11.965  22.740  0.00  0.00    +0.000 A 
ATOM     25  C   UNL     1      -1.521  13.224  23.127  0.00  0.00    +0.000 A 
ATOM     26  C   UNL     1      -1.011  14.373  22.562  0.00  0.00    +0.000 A 
ATOM     27  C   UNL     1       0.045  14.279  21.632  0.00  0.00    +0.000 A 
ATOM     28  C   UNL     1       0.559  13.011  21.278  0.00  0.00    +0.000 A 
BRANCH  26  29
ATOM     29  C   UNL     1      -1.588  15.688  22.938  0.00  0.00    +0.000 C 
ATOM     30  O   UNL     1      -2.228  16.399  22.162  0.00  0.00    +0.000 OA
BRANCH  29  31
ATOM     31  O   UNL     1      -1.317  16.074  24.207  0.00  0.00    +0.000 OA
ATOM     32  H   UNL     1      -1.254  17.046  24.322  0.00  0.00    +0.000 HD
ENDBRANCH  29  31
ENDBRANCH  26  29
ENDBRANCH  18  23
TORSDOF 3
ENDMDL
MODEL 4
REMARK VINA RESULT:      -9.0      4.379      9.950
REMARK  Name = 
REMARK  7 active torsions:
REMARK  status: ('A' for Active; 'I' for Inactive)
REMARK    1  A    between atoms: C_1  and  C_2
REMARK    2  A    between atoms: C_2  and  C_3
REMARK    3  A    between atoms: C_6  and  C_7
REMARK    4  A    between atoms: C_6  and  C_8
REMARK    5  A    between atoms: C_18  and  C_19
REMARK    6  A    between atoms: C_22  and  C_23
REMARK    7  A    between atoms: C_23  and  O_25
REMARK                            x       y       z     vdW  Elec       q    Type
REMARK                         _______ _______ _______ _____ _____    ______ ____
ROOT
ATOM      1  C   UNL     1      -3.443  15.008  24.157  0.00  0.00    +0.000 C 
ATOM      2  C   UNL     1      -2.456  14.214  23.146  0.00  0.00    +0.000 C 
ATOM      3  C   UNL     1      -1.145  14.593  23.906  0.00  0.00    +0.000 C 
ATOM      4  C   UNL     1      -2.935  15.066  21.863  0.00  0.00    +0.000 C 
ATOM      5  C   UNL     1      -3.209  14.368  20.546  0.00  0.00    +0.000 C 
ATOM      6  C   UNL     1      -3.814  12.980  20.751  0.00  0.00    +0.000 C 
ATOM      7  C   UNL     1      -4.929  12.670  21.780  0.00  0.00    +0.000 C 
ATOM      8  C   UNL     1      -4.341  12.464  19.403  0.00  0.00    +0.000 C 
ATOM      9  C   UNL     1      -2.592  12.326  21.325  0.00  0.00    +0.000 A 
ATOM     10  C   UNL     1      -1.826  11.513  20.475  0.00  0.00    +0.000 A 
ATOM     11  C   UNL     1      -0.760  10.796  20.939  0.00  0.00    +0.000 A 
ATOM     12  C   UNL     1      -0.613  10.692  22.315  0.00  0.00    +0.000 A 
ATOM     13  C   UNL     1      -1.246  11.707  23.167  0.00  0.00    +0.000 A 
ATOM     14  C   UNL     1      -2.170  12.668  22.640  0.00  0.00    +0.000 A 
ATOM     15  C   UNL     1       0.050   9.393  22.781  0.00  0.00    +0.000 C 
ATOM     16  C   UNL     1       0.913   8.522  21.754  0.00  0.00    +0.000 C 
ATOM     17  C   UNL     1       0.934   9.035  20.343  0.00  0.00    +0.000 A 
ATOM     18  C   UNL     1       1.609   8.639  19.122  0.00  0.00    +0.000 A 
ATOM     19  C   UNL     1       1.266   9.591  18.176  0.00  0.00    +0.000 A 
ATOM     20  N   UNL     1       0.385  10.454  18.716  0.00  0.00    +0.000 N 
ATOM     21  C   UNL     1       0.122  10.103  20.021  0.00  0.00    +0.000 A 
ATOM     22  H   UNL     1      -0.001  11.285  18.270  0.00  0.00    +0.000 HD
ENDROOT
BRANCH  18  23
ATOM     23  C   UNL     1       2.539   7.551  18.770  0.00  0.00    +0.000 A 
ATOM     24  C   UNL     1       3.337   7.640  17.631  0.00  0.00    +0.000 A 
ATOM     25  C   UNL     1       4.280   6.644  17.312  0.00  0.00    +0.000 A 
ATOM     26  C   UNL     1       4.390   5.517  18.099  0.00  0.00    +0.000 A 
ATOM     27  C   UNL     1       3.586   5.395  19.251  0.00  0.00    +0.000 A 
ATOM     28  C   UNL     1       2.668   6.418  19.579  0.00  0.00    +0.000 A 
BRANCH  26  29
ATOM     29  C   UNL     1       5.347   4.451  17.713  0.00  0.00    +0.000 C 
ATOM     30  O   UNL     1       5.658   4.202  16.547  0.00  0.00    +0.000 OA
BRANCH  29  31
ATOM     31  O   UNL     1       5.828   3.730  18.754  0.00  0.00    +0.000 OA
ATOM     32  H   UNL     1       6.797   3.815  18.883  0.00  0.00    +0.000 HD
ENDBRANCH  29  31
ENDBRANCH  26  29
ENDBRANCH  18  23
TORSDOF 3
ENDMDL
MODEL 5
REMARK VINA RESULT:      -8.6      1.821      3.449
REMARK  Name = 
REMARK  7 active torsions:
REMARK  status: ('A' for Active; 'I' for Inactive)
REMARK    1  A    between atoms: C_1  and  C_2
REMARK    2  A    between atoms: C_2  and  C_3
REMARK    3  A    between atoms: C_6  and  C_7
REMARK    4  A    between atoms: C_6  and  C_8
REMARK    5  A    between atoms: C_18  and  C_19
REMARK    6  A    between atoms: C_22  and  C_23
REMARK    7  A    between atoms: C_23  and  O_25
REMARK                            x       y       z     vdW  Elec       q    Type
REMARK                         _______ _______ _______ _____ _____    ______ ____
ROOT
ATOM      1  C   UNL     1       3.484   1.878  18.829  0.00  0.00    +0.000 C 
ATOM      2  C   UNL     1       2.870   3.355  18.567  0.00  0.00    +0.000 C 
ATOM      3  C   UNL     1       1.380   2.916  18.734  0.00  0.00    +0.000 C 
ATOM      4  C   UNL     1       3.530   3.469  17.100  0.00  0.00    +0.000 C 
ATOM      5  C   UNL     1       4.192   4.761  16.663  0.00  0.00    +0.000 C 
ATOM      6  C   UNL     1       4.897   5.461  17.823  0.00  0.00    +0.000 C 
ATOM      7  C   UNL     1       5.767   4.726  18.873  0.00  0.00    +0.000 C 
ATOM      8  C   UNL     1       5.788   6.580  17.261  0.00  0.00    +0.000 C 
ATOM      9  C   UNL     1       3.664   5.859  18.580  0.00  0.00    +0.000 A 
ATOM     10  C   UNL     1       3.227   7.187  18.466  0.00  0.00    +0.000 A 
ATOM     11  C   UNL     1       2.178   7.661  19.201  0.00  0.00    +0.000 A 
ATOM     12  C   UNL     1       1.723   6.870  20.246  0.00  0.00    +0.000 A 
ATOM     13  C   UNL     1       2.007   5.430  20.210  0.00  0.00    +0.000 A 
ATOM     14  C   UNL     1       2.904   4.859  19.249  0.00  0.00    +0.000 A 
ATOM     15  C   UNL     1       1.133   7.655  21.420  0.00  0.00    +0.000 C 
ATOM     16  C   UNL     1       0.652   9.167  21.210  0.00  0.00    +0.000 C 
ATOM     17  C   UNL     1       0.903   9.732  19.842  0.00  0.00    +0.000 A 
ATOM     18  C   UNL     1       0.590  10.985  19.181  0.00  0.00    +0.000 A 
ATOM     19  C   UNL     1       1.027  10.841  17.876  0.00  0.00    +0.000 A 
ATOM     20  N   UNL     1       1.642   9.652  17.743  0.00  0.00    +0.000 N 
ATOM     21  C   UNL     1       1.630   8.978  18.944  0.00  0.00    +0.000 A 
ATOM     22  H   UNL     1       2.018   9.255  16.883  0.00  0.00    +0.000 HD
ENDROOT
BRANCH  18  23
ATOM     23  C   UNL     1      -0.089  12.224  19.600  0.00  0.00    +0.000 A 
ATOM     24  C   UNL     1       0.358  13.465  19.152  0.00  0.00    +0.000 A 
ATOM     25  C   UNL     1      -0.315  14.657  19.485  0.00  0.00    +0.000 A 
ATOM     26  C   UNL     1      -1.409  14.622  20.323  0.00  0.00    +0.000 A 
ATOM     27  C   UNL     1      -1.877  13.381  20.802  0.00  0.00    +0.000 A 
ATOM     28  C   UNL     1      -1.213  12.189  20.432  0.00  0.00    +0.000 A 
BRANCH  26  29
ATOM     29  C   UNL     1      -2.069  15.894  20.710  0.00  0.00    +0.000 C 
ATOM     30  O   UNL     1      -2.149  16.294  21.873  0.00  0.00    +0.000 OA
BRANCH  29  31
ATOM     31  O   UNL     1      -2.626  16.571  19.678  0.00  0.00    +0.000 OA
ATOM     32  H   UNL     1      -3.108  16.000  19.043  0.00  0.00    +0.000 HD
ENDBRANCH  29  31
ENDBRANCH  26  29
ENDBRANCH  18  23
TORSDOF 3
ENDMDL
MODEL 6
REMARK VINA RESULT:      -8.6      4.530      9.829
REMARK  Name = 
REMARK  7 active torsions:
REMARK  status: ('A' for Active; 'I' for Inactive)
REMARK    1  A    between atoms: C_1  and  C_2
REMARK    2  A    between atoms: C_2  and  C_3
REMARK    3  A    between atoms: C_6  and  C_7
REMARK    4  A    between atoms: C_6  and  C_8
REMARK    5  A    between atoms: C_18  and  C_19
REMARK    6  A    between atoms: C_22  and  C_23
REMARK    7  A    between atoms: C_23  and  O_25
REMARK                            x       y       z     vdW  Elec       q    Type
REMARK                         _______ _______ _______ _____ _____    ______ ____
ROOT
ATOM      1  C   UNL     1      -5.959  14.161  20.775  0.00  0.00    +0.000 C 
ATOM      2  C   UNL     1      -4.865  12.968  20.861  0.00  0.00    +0.000 C 
ATOM      3  C   UNL     1      -5.744  11.922  20.104  0.00  0.00    +0.000 C 
ATOM      4  C   UNL     1      -4.829  12.994  22.473  0.00  0.00    +0.000 C 
ATOM      5  C   UNL     1      -3.503  12.906  23.204  0.00  0.00    +0.000 C 
ATOM      6  C   UNL     1      -2.387  13.626  22.450  0.00  0.00    +0.000 C 
ATOM      7  C   UNL     1      -2.555  15.013  21.781  0.00  0.00    +0.000 C 
ATOM      8  C   UNL     1      -1.168  13.760  23.376  0.00  0.00    +0.000 C 
ATOM      9  C   UNL     1      -2.292  12.670  21.298  0.00  0.00    +0.000 A 
ATOM     10  C   UNL     1      -1.245  11.737  21.307  0.00  0.00    +0.000 A 
ATOM     11  C   UNL     1      -1.020  10.901  20.250  0.00  0.00    +0.000 A 
ATOM     12  C   UNL     1      -1.693  11.175  19.068  0.00  0.00    +0.000 A 
ATOM     13  C   UNL     1      -2.926  11.971  19.130  0.00  0.00    +0.000 A 
ATOM     14  C   UNL     1      -3.336  12.638  20.331  0.00  0.00    +0.000 A 
ATOM     15  C   UNL     1      -0.939  10.759  17.803  0.00  0.00    +0.000 C 
ATOM     16  C   UNL     1       0.242   9.683  17.893  0.00  0.00    +0.000 C 
ATOM     17  C   UNL     1       0.573   9.215  19.280  0.00  0.00    +0.000 A 
ATOM     18  C   UNL     1       1.485   8.232  19.837  0.00  0.00    +0.000 A 
ATOM     19  C   UNL     1       1.240   8.222  21.200  0.00  0.00    +0.000 A 
ATOM     20  N   UNL     1       0.332   9.170  21.494  0.00  0.00    +0.000 N 
ATOM     21  C   UNL     1      -0.050   9.830  20.347  0.00  0.00    +0.000 A 
ATOM     22  H   UNL     1      -0.076   9.357  22.409  0.00  0.00    +0.000 HD
ENDROOT
BRANCH  18  23
ATOM     23  C   UNL     1       2.474   7.307  19.257  0.00  0.00    +0.000 A 
ATOM     24  C   UNL     1       2.726   6.072  19.853  0.00  0.00    +0.000 A 
ATOM     25  C   UNL     1       3.617   5.145  19.280  0.00  0.00    +0.000 A 
ATOM     26  C   UNL     1       4.312   5.470  18.135  0.00  0.00    +0.000 A 
ATOM     27  C   UNL     1       4.086   6.717  17.517  0.00  0.00    +0.000 A 
ATOM     28  C   UNL     1       3.163   7.625  18.083  0.00  0.00    +0.000 A 
BRANCH  26  29
ATOM     29  C   UNL     1       5.292   4.503  17.579  0.00  0.00    +0.000 C 
ATOM     30  O   UNL     1       5.300   4.141  16.401  0.00  0.00    +0.000 OA
BRANCH  29  31
ATOM     31  O   UNL     1       6.163   4.006  18.489  0.00  0.00    +0.000 OA
ATOM     32  H   UNL     1       7.041   3.779  18.115  0.00  0.00    +0.000 HD
ENDBRANCH  29  31
ENDBRANCH  26  29
ENDBRANCH  18  23
TORSDOF 3
ENDMDL
MODEL 7
REMARK VINA RESULT:      -8.5      1.929      3.539
REMARK  Name = 
REMARK  7 active torsions:
REMARK  status: ('A' for Active; 'I' for Inactive)
REMARK    1  A    between atoms: C_1  and  C_2
REMARK    2  A    between atoms: C_2  and  C_3
REMARK    3  A    between atoms: C_6  and  C_7
REMARK    4  A    between atoms: C_6  and  C_8
REMARK    5  A    between atoms: C_18  and  C_19
REMARK    6  A    between atoms: C_22  and  C_23
REMARK    7  A    between atoms: C_23  and  O_25
REMARK                            x       y       z     vdW  Elec       q    Type
REMARK                         _______ _______ _______ _____ _____    ______ ____
ROOT
ATOM      1  C   UNL     1       2.946   2.241  19.949  0.00  0.00    +0.000 C 
ATOM      2  C   UNL     1       2.304   3.673  19.543  0.00  0.00    +0.000 C 
ATOM      3  C   UNL     1       0.863   3.323  20.033  0.00  0.00    +0.000 C 
ATOM      4  C   UNL     1       2.702   3.512  17.988  0.00  0.00    +0.000 C 
ATOM      5  C   UNL     1       3.286   4.687  17.228  0.00  0.00    +0.000 C 
ATOM      6  C   UNL     1       4.185   5.549  18.113  0.00  0.00    +0.000 C 
ATOM      7  C   UNL     1       5.218   4.972  19.112  0.00  0.00    +0.000 C 
ATOM      8  C   UNL     1       4.971   6.523  17.222  0.00  0.00    +0.000 C 
ATOM      9  C   UNL     1       3.103   6.113  18.986  0.00  0.00    +0.000 A 
ATOM     10  C   UNL     1       2.661   7.417  18.719  0.00  0.00    +0.000 A 
ATOM     11  C   UNL     1       1.757   8.047  19.528  0.00  0.00    +0.000 A 
ATOM     12  C   UNL     1       1.485   7.461  20.756  0.00  0.00    +0.000 A 
ATOM     13  C   UNL     1       1.750   6.026  20.923  0.00  0.00    +0.000 A 
ATOM     14  C   UNL     1       2.464   5.269  19.938  0.00  0.00    +0.000 A 
ATOM     15  C   UNL     1       1.112   8.455  21.858  0.00  0.00    +0.000 C 
ATOM     16  C   UNL     1       0.610   9.925  21.474  0.00  0.00    +0.000 C 
ATOM     17  C   UNL     1       0.624  10.240  20.006  0.00  0.00    +0.000 A 
ATOM     18  C   UNL     1       0.209  11.373  19.200  0.00  0.00    +0.000 A 
ATOM     19  C   UNL     1       0.413  10.994  17.884  0.00  0.00    +0.000 A 
ATOM     20  N   UNL     1       0.990   9.778  17.858  0.00  0.00    +0.000 N 
ATOM     21  C   UNL     1       1.181   9.319  19.142  0.00  0.00    +0.000 A 
ATOM     22  H   UNL     1       1.209   9.228  17.029  0.00  0.00    +0.000 HD
ENDROOT
BRANCH  18  23
ATOM     23  C   UNL     1      -0.380  12.688  19.507  0.00  0.00    +0.000 A 
ATOM     24  C   UNL     1      -1.518  12.788  20.306  0.00  0.00    +0.000 A 
ATOM     25  C   UNL     1      -2.059  14.037  20.667  0.00  0.00    +0.000 A 
ATOM     26  C   UNL     1      -1.501  15.199  20.180  0.00  0.00    +0.000 A 
ATOM     27  C   UNL     1      -0.356  15.128  19.359  0.00  0.00    +0.000 A 
ATOM     28  C   UNL     1       0.197  13.870  19.032  0.00  0.00    +0.000 A 
BRANCH  26  29
ATOM     29  C   UNL     1      -2.121  16.504  20.523  0.00  0.00    +0.000 C 
ATOM     30  O   UNL     1      -2.231  16.925  21.675  0.00  0.00    +0.000 OA
BRANCH  29  31
ATOM     31  O   UNL     1      -2.605  17.188  19.460  0.00  0.00    +0.000 OA
ATOM     32  H   UNL     1      -2.646  16.661  18.633  0.00  0.00    +0.000 HD
ENDBRANCH  29  31
ENDBRANCH  26  29
ENDBRANCH  18  23
TORSDOF 3
ENDMDL
MODEL 8
REMARK VINA RESULT:      -8.5      1.068      1.236
REMARK  Name = 
REMARK  7 active torsions:
REMARK  status: ('A' for Active; 'I' for Inactive)
REMARK    1  A    between atoms: C_1  and  C_2
REMARK    2  A    between atoms: C_2  and  C_3
REMARK    3  A    between atoms: C_6  and  C_7
REMARK    4  A    between atoms: C_6  and  C_8
REMARK    5  A    between atoms: C_18  and  C_19
REMARK    6  A    between atoms: C_22  and  C_23
REMARK    7  A    between atoms: C_23  and  O_25
REMARK                            x       y       z     vdW  Elec       q    Type
REMARK                         _______ _______ _______ _____ _____    ______ ____
ROOT
ATOM      1  C   UNL     1       5.471   4.849  16.716  0.00  0.00    +0.000 C 
ATOM      2  C   UNL     1       4.738   5.839  17.771  0.00  0.00    +0.000 C 
ATOM      3  C   UNL     1       5.693   7.048  17.510  0.00  0.00    +0.000 C 
ATOM      4  C   UNL     1       4.994   4.848  19.017  0.00  0.00    +0.000 C 
ATOM      5  C   UNL     1       3.888   4.592  20.023  0.00  0.00    +0.000 C 
ATOM      6  C   UNL     1       2.510   4.575  19.364  0.00  0.00    +0.000 C 
ATOM      7  C   UNL     1       2.207   3.866  18.020  0.00  0.00    +0.000 C 
ATOM      8  C   UNL     1       1.488   4.017  20.365  0.00  0.00    +0.000 C 
ATOM      9  C   UNL     1       2.443   6.037  19.032  0.00  0.00    +0.000 A 
ATOM     10  C   UNL     1       1.677   6.862  19.868  0.00  0.00    +0.000 A 
ATOM     11  C   UNL     1       1.474   8.182  19.582  0.00  0.00    +0.000 A 
ATOM     12  C   UNL     1       1.831   8.621  18.314  0.00  0.00    +0.000 A 
ATOM     13  C   UNL     1       2.820   7.845  17.556  0.00  0.00    +0.000 A 
ATOM     14  C   UNL     1       3.267   6.555  17.994  0.00  0.00    +0.000 A 
ATOM     15  C   UNL     1       0.982   9.781  17.788  0.00  0.00    +0.000 C 
ATOM     16  C   UNL     1       0.139  10.682  18.806  0.00  0.00    +0.000 C 
ATOM     17  C   UNL     1       0.194  10.244  20.241  0.00  0.00    +0.000 A 
ATOM     18  C   UNL     1      -0.330  10.766  21.489  0.00  0.00    +0.000 A 
ATOM     19  C   UNL     1       0.155   9.929  22.480  0.00  0.00    +0.000 A 
ATOM     20  N   UNL     1       0.841   8.920  21.912  0.00  0.00    +0.000 N 
ATOM     21  C   UNL     1       0.832   9.058  20.541  0.00  0.00    +0.000 A 
ATOM     22  H   UNL     1       1.352   8.184  22.397  0.00  0.00    +0.000 HD
ENDROOT
BRANCH  18  23
ATOM     23  C   UNL     1      -1.151  11.936  21.847  0.00  0.00    +0.000 A 
ATOM     24  C   UNL     1      -0.851  12.695  22.977  0.00  0.00    +0.000 A 
ATOM     25  C   UNL     1      -1.580  13.855  23.302  0.00  0.00    +0.000 A 
ATOM     26  C   UNL     1      -2.658  14.233  22.530  0.00  0.00    +0.000 A 
ATOM     27  C   UNL     1      -2.992  13.477  21.388  0.00  0.00    +0.000 A 
ATOM     28  C   UNL     1      -2.232  12.334  21.054  0.00  0.00    +0.000 A 
BRANCH  26  29
ATOM     29  C   UNL     1      -3.451  15.425  22.922  0.00  0.00    +0.000 C 
ATOM     30  O   UNL     1      -4.650  15.558  22.676  0.00  0.00    +0.000 OA
BRANCH  29  31
ATOM     31  O   UNL     1      -2.734  16.392  23.543  0.00  0.00    +0.000 OA
ATOM     32  H   UNL     1      -1.845  16.101  23.837  0.00  0.00    +0.000 HD
ENDBRANCH  29  31
ENDBRANCH  26  29
ENDBRANCH  18  23
TORSDOF 3
ENDMDL
MODEL 9
REMARK VINA RESULT:      -8.4      1.775      3.202
REMARK  Name = 
REMARK  7 active torsions:
REMARK  status: ('A' for Active; 'I' for Inactive)
REMARK    1  A    between atoms: C_1  and  C_2
REMARK    2  A    between atoms: C_2  and  C_3
REMARK    3  A    between atoms: C_6  and  C_7
REMARK    4  A    between atoms: C_6  and  C_8
REMARK    5  A    between atoms: C_18  and  C_19
REMARK    6  A    between atoms: C_22  and  C_23
REMARK    7  A    between atoms: C_23  and  O_25
REMARK                            x       y       z     vdW  Elec       q    Type
REMARK                         _______ _______ _______ _____ _____    ______ ____
ROOT
ATOM      1  C   UNL     1       3.709   1.859  18.774  0.00  0.00    +0.000 C 
ATOM      2  C   UNL     1       3.041   3.313  18.521  0.00  0.00    +0.000 C 
ATOM      3  C   UNL     1       1.567   2.815  18.669  0.00  0.00    +0.000 C 
ATOM      4  C   UNL     1       3.710   3.468  17.062  0.00  0.00    +0.000 C 
ATOM      5  C   UNL     1       4.325   4.789  16.644  0.00  0.00    +0.000 C 
ATOM      6  C   UNL     1       4.991   5.504  17.818  0.00  0.00    +0.000 C 
ATOM      7  C   UNL     1       5.879   4.792  18.869  0.00  0.00    +0.000 C 
ATOM      8  C   UNL     1       5.843   6.662  17.275  0.00  0.00    +0.000 C 
ATOM      9  C   UNL     1       3.736   5.846  18.566  0.00  0.00    +0.000 A 
ATOM     10  C   UNL     1       3.250   7.157  18.461  0.00  0.00    +0.000 A 
ATOM     11  C   UNL     1       2.176   7.583  19.190  0.00  0.00    +0.000 A 
ATOM     12  C   UNL     1       1.742   6.763  20.223  0.00  0.00    +0.000 A 
ATOM     13  C   UNL     1       2.082   5.336  20.176  0.00  0.00    +0.000 A 
ATOM     14  C   UNL     1       3.009   4.810  19.218  0.00  0.00    +0.000 A 
ATOM     15  C   UNL     1       1.111   7.513  21.399  0.00  0.00    +0.000 C 
ATOM     16  C   UNL     1       0.572   9.007  21.199  0.00  0.00    +0.000 C 
ATOM     17  C   UNL     1       0.814   9.595  19.840  0.00  0.00    +0.000 A 
ATOM     18  C   UNL     1       0.459  10.842  19.188  0.00  0.00    +0.000 A 
ATOM     19  C   UNL     1       0.914  10.729  17.885  0.00  0.00    +0.000 A 
ATOM     20  N   UNL     1       1.577   9.566  17.747  0.00  0.00    +0.000 N 
ATOM     21  C   UNL     1       1.579   8.880  18.941  0.00  0.00    +0.000 A 
ATOM     22  H   UNL     1       1.976   9.193  16.886  0.00  0.00    +0.000 HD
ENDROOT
BRANCH  18  23
ATOM     23  C   UNL     1      -0.271  12.049  19.613  0.00  0.00    +0.000 A 
ATOM     24  C   UNL     1      -1.431  11.944  20.379  0.00  0.00    +0.000 A 
ATOM     25  C   UNL     1      -2.108  13.085  20.852  0.00  0.00    +0.000 A 
ATOM     26  C   UNL     1      -1.664  14.344  20.511  0.00  0.00    +0.000 A 
ATOM     27  C   UNL     1      -0.500  14.480  19.726  0.00  0.00    +0.000 A 
ATOM     28  C   UNL     1       0.189  13.328  19.286  0.00  0.00    +0.000 A 
BRANCH  26  29
ATOM     29  C   UNL     1      -2.425  15.533  20.969  0.00  0.00    +0.000 C 
ATOM     30  O   UNL     1      -2.147  16.689  20.644  0.00  0.00    +0.000 OA
BRANCH  29  31
ATOM     31  O   UNL     1      -3.439  15.252  21.823  0.00  0.00    +0.000 OA
ATOM     32  H   UNL     1      -3.167  15.218  22.765  0.00  0.00    +0.000 HD
ENDBRANCH  29  31
ENDBRANCH  26  29
ENDBRANCH  18  23
TORSDOF 3
ENDMDL
