MODEL 1
REMARK VINA RESULT:      -8.8      0.000      0.000
REMARK  Name = 
REMARK  8 active torsions:
REMARK  status: ('A' for Active; 'I' for Inactive)
REMARK    1  A    between atoms: C_1  and  C_2
REMARK    2  A    between atoms: C_2  and  C_3
REMARK    3  A    between atoms: C_2  and  C_4
REMARK    4  A    between atoms: C_7  and  S_8
REMARK    5  A    between atoms: S_8  and  C_11
REMARK    6  A    between atoms: N_18  and  C_19
REMARK    7  A    between atoms: C_19  and  C_20
REMARK    8  A    between atoms: C_20  and  C_21
REMARK                            x       y       z     vdW  Elec       q    Type
REMARK                         _______ _______ _______ _____ _____    ______ ____
ROOT
ATOM      1  C   UNL     1       1.534   8.589  19.520  0.00  0.00    +0.000 A 
ATOM      2  N   UNL     1       0.898   8.462  20.731  0.00  0.00    +0.000 NA
ATOM      3  N   UNL     1       1.142   7.240  21.192  0.00  0.00    +0.000 NA
ATOM      4  N   UNL     1       1.914   6.609  20.293  0.00  0.00    +0.000 N 
ATOM      5  C   UNL     1       2.216   7.425  19.208  0.00  0.00    +0.000 A 
ATOM      6  N   UNL     1       2.991   6.999  18.149  0.00  0.00    +0.000 NA
ATOM      7  C   UNL     1       3.423   5.753  18.116  0.00  0.00    +0.000 A 
ATOM      8  N   UNL     1       4.137   5.314  17.021  0.00  0.00    +0.000 N 
ATOM      9  C   UNL     1       3.122   4.878  19.250  0.00  0.00    +0.000 A 
ATOM     10  S   UNL     1       3.653   3.275  19.422  0.00  0.00    +0.000 S 
ATOM     11  C   UNL     1       2.892   3.140  20.965  0.00  0.00    +0.000 A 
ATOM     12  C   UNL     1       2.236   4.299  21.335  0.00  0.00    +0.000 A 
ATOM     13  C   UNL     1       2.390   5.286  20.338  0.00  0.00    +0.000 A 
ATOM     14  H   UNL     1       4.434   4.345  17.047  0.00  0.00    +0.000 HD
ENDROOT
BRANCH   1  15
ATOM     15  S   UNL     1       1.472  10.044  18.608  0.00  0.00    +0.000 S 
ATOM     16  O   UNL     1       1.970   9.714  17.280  0.00  0.00    +0.000 OA
ATOM     17  O   UNL     1       2.116  11.037  19.442  0.00  0.00    +0.000 OA
BRANCH  15  21
ATOM     18  C   UNL     1      -2.998  11.035  18.278  0.00  0.00    +0.000 A 
ATOM     19  C   UNL     1      -2.183  11.679  19.222  0.00  0.00    +0.000 A 
ATOM     20  C   UNL     1      -0.815  11.399  19.303  0.00  0.00    +0.000 A 
ATOM     21  C   UNL     1      -0.245  10.471  18.431  0.00  0.00    +0.000 A 
ATOM     22  C   UNL     1      -1.041   9.804  17.493  0.00  0.00    +0.000 A 
ATOM     23  C   UNL     1      -2.407  10.092  17.417  0.00  0.00    +0.000 A 
BRANCH  18  25
ATOM     24  C   UNL     1      -4.874  12.444  19.230  0.00  0.00    +0.000 C 
ATOM     25  C   UNL     1      -4.482  11.365  18.217  0.00  0.00    +0.000 C 
ATOM     26  C   UNL     1      -4.922  11.767  16.807  0.00  0.00    +0.000 C 
ENDBRANCH  18  25
ENDBRANCH  15  21
ENDBRANCH   1  15
BRANCH   8  27
ATOM     27  C   UNL     1       5.002   6.222  16.281  0.00  0.00    +0.000 C 
BRANCH  27  28
ATOM     28  C   UNL     1       6.372   5.591  16.035  0.00  0.00    +0.000 C 
BRANCH  28  29
ATOM     29  C   UNL     1       6.456   5.032  14.634  0.00  0.00    +0.000 A 
ATOM     30  C   UNL     1       5.526   4.084  14.184  0.00  0.00    +0.000 A 
ATOM     31  C   UNL     1       5.674   3.494  12.928  0.00  0.00    +0.000 A 
ATOM     32  C   UNL     1       6.747   3.848  12.111  0.00  0.00    +0.000 A 
ATOM     33  C   UNL     1       7.665   4.801  12.543  0.00  0.00    +0.000 A 
ATOM     34  C   UNL     1       7.522   5.391  13.798  0.00  0.00    +0.000 A 
ENDBRANCH  28  29
ENDBRANCH  27  28
ENDBRANCH   8  27
TORSDOF 6
ENDMDL
MODEL 2
REMARK VINA RESULT:      -8.7      4.313      9.225
REMARK  Name = 
REMARK  8 active torsions:
REMARK  status: ('A' for Active; 'I' for Inactive)
REMARK    1  A    between atoms: C_1  and  C_2
REMARK    2  A    between atoms: C_2  and  C_3
REMARK    3  A    between atoms: C_2  and  C_4
REMARK    4  A    between atoms: C_7  and  S_8
REMARK    5  A    between atoms: S_8  and  C_11
REMARK    6  A    between atoms: N_18  and  C_19
REMARK    7  A    between atoms: C_19  and  C_20
REMARK    8  A    between atoms: C_20  and  C_21
REMARK                            x       y       z     vdW  Elec       q    Type
REMARK                         _______ _______ _______ _____ _____    ______ ____
ROOT
ATOM      1  C   UNL     1      -0.669  12.005  20.896  0.00  0.00    +0.000 A 
ATOM      2  N   UNL     1      -0.123  11.758  22.131  0.00  0.00    +0.000 NA
ATOM      3  N   UNL     1      -1.086  11.895  23.036  0.00  0.00    +0.000 NA
ATOM      4  N   UNL     1      -2.215  12.221  22.388  0.00  0.00    +0.000 N 
ATOM      5  C   UNL     1      -2.019  12.290  21.013  0.00  0.00    +0.000 A 
ATOM      6  N   UNL     1      -3.030  12.614  20.131  0.00  0.00    +0.000 NA
ATOM      7  C   UNL     1      -4.223  12.934  20.596  0.00  0.00    +0.000 A 
ATOM      8  N   UNL     1      -5.209  13.325  19.715  0.00  0.00    +0.000 N 
ATOM      9  C   UNL     1      -4.453  12.864  22.040  0.00  0.00    +0.000 A 
ATOM     10  S   UNL     1      -5.934  13.163  22.814  0.00  0.00    +0.000 S 
ATOM     11  C   UNL     1      -5.252  12.804  24.358  0.00  0.00    +0.000 A 
ATOM     12  C   UNL     1      -3.912  12.471  24.280  0.00  0.00    +0.000 A 
ATOM     13  C   UNL     1      -3.479  12.503  22.938  0.00  0.00    +0.000 A 
ATOM     14  H   UNL     1      -6.101  13.569  20.130  0.00  0.00    +0.000 HD
ENDROOT
BRANCH   1  15
ATOM     15  S   UNL     1       0.261  11.909  19.454  0.00  0.00    +0.000 S 
ATOM     16  O   UNL     1       1.398  12.800  19.641  0.00  0.00    +0.000 OA
ATOM     17  O   UNL     1      -0.692  12.098  18.380  0.00  0.00    +0.000 OA
BRANCH  15  21
ATOM     18  C   UNL     1       2.071   7.692  19.293  0.00  0.00    +0.000 A 
ATOM     19  C   UNL     1       1.445   8.167  20.458  0.00  0.00    +0.000 A 
ATOM     20  C   UNL     1       0.867   9.440  20.497  0.00  0.00    +0.000 A 
ATOM     21  C   UNL     1       0.905  10.254  19.364  0.00  0.00    +0.000 A 
ATOM     22  C   UNL     1       1.537   9.809  18.198  0.00  0.00    +0.000 A 
ATOM     23  C   UNL     1       2.110   8.533  18.166  0.00  0.00    +0.000 A 
BRANCH  18  25
ATOM     24  C   UNL     1       2.117   5.413  20.395  0.00  0.00    +0.000 C 
ATOM     25  C   UNL     1       2.686   6.302  19.286  0.00  0.00    +0.000 C 
ATOM     26  C   UNL     1       2.543   5.619  17.923  0.00  0.00    +0.000 C 
ENDBRANCH  18  25
ENDBRANCH  15  21
ENDBRANCH   1  15
BRANCH   8  27
ATOM     27  C   UNL     1      -5.265  12.777  18.367  0.00  0.00    +0.000 C 
BRANCH  27  28
ATOM     28  C   UNL     1      -5.135  11.255  18.392  0.00  0.00    +0.000 C 
BRANCH  28  29
ATOM     29  C   UNL     1      -4.174  10.786  17.325  0.00  0.00    +0.000 A 
ATOM     30  C   UNL     1      -4.334  11.184  15.991  0.00  0.00    +0.000 A 
ATOM     31  C   UNL     1      -3.507  10.662  14.996  0.00  0.00    +0.000 A 
ATOM     32  C   UNL     1      -2.512   9.742  15.325  0.00  0.00    +0.000 A 
ATOM     33  C   UNL     1      -2.334   9.354  16.650  0.00  0.00    +0.000 A 
ATOM     34  C   UNL     1      -3.161   9.872  17.647  0.00  0.00    +0.000 A 
ENDBRANCH  28  29
ENDBRANCH  27  28
ENDBRANCH   8  27
TORSDOF 6
ENDMDL
MODEL 3
REMARK VINA RESULT:      -8.6      0.359      1.363
REMARK  Name = 
REMARK  8 active torsions:
REMARK  status: ('A' for Active; 'I' for Inactive)
REMARK    1  A    between atoms: C_1  and  C_2
REMARK    2  A    between atoms: C_2  and  C_3
REMARK    3  A    between atoms: C_2  and  C_4
REMARK    4  A    between atoms: C_7  and  S_8
REMARK    5  A    between atoms: S_8  and  C_11
REMARK    6  A    between atoms: N_18  and  C_19
REMARK    7  A    between atoms: C_19  and  C_20
REMARK    8  A    between atoms: C_20  and  C_21
REMARK                            x       y       z     vdW  Elec       q    Type
REMARK                         _______ _______ _______ _____ _____    ______ ____
ROOT
ATOM      1  C   UNL     1       1.559   8.474  19.534  0.00  0.00    +0.000 A 
ATOM      2  N   UNL     1       0.935   8.351  20.751  0.00  0.00    +0.000 NA
ATOM      3  N   UNL     1       1.177   7.128  21.211  0.00  0.00    +0.000 NA
ATOM      4  N   UNL     1       1.936   6.493  20.305  0.00  0.00    +0.000 N 
ATOM      5  C   UNL     1       2.232   7.306  19.217  0.00  0.00    +0.000 A 
ATOM      6  N   UNL     1       2.994   6.875  18.150  0.00  0.00    +0.000 NA
ATOM      7  C   UNL     1       3.419   5.627  18.114  0.00  0.00    +0.000 A 
ATOM      8  N   UNL     1       4.120   5.183  17.013  0.00  0.00    +0.000 N 
ATOM      9  C   UNL     1       3.124   4.754  19.252  0.00  0.00    +0.000 A 
ATOM     10  S   UNL     1       3.649   3.149  19.420  0.00  0.00    +0.000 S 
ATOM     11  C   UNL     1       2.902   3.019  20.970  0.00  0.00    +0.000 A 
ATOM     12  C   UNL     1       2.256   4.182  21.346  0.00  0.00    +0.000 A 
ATOM     13  C   UNL     1       2.405   5.167  20.346  0.00  0.00    +0.000 A 
ATOM     14  H   UNL     1       4.412   4.213  17.036  0.00  0.00    +0.000 HD
ENDROOT
BRANCH   1  15
ATOM     15  S   UNL     1       1.496   9.928  18.622  0.00  0.00    +0.000 S 
ATOM     16  O   UNL     1       1.987   9.597  17.291  0.00  0.00    +0.000 OA
ATOM     17  O   UNL     1       2.146  10.920  19.452  0.00  0.00    +0.000 OA
BRANCH  15  21
ATOM     18  C   UNL     1      -2.892  11.158  18.064  0.00  0.00    +0.000 A 
ATOM     19  C   UNL     1      -2.294  10.209  17.219  0.00  0.00    +0.000 A 
ATOM     20  C   UNL     1      -0.966   9.812  17.407  0.00  0.00    +0.000 A 
ATOM     21  C   UNL     1      -0.221  10.359  18.453  0.00  0.00    +0.000 A 
ATOM     22  C   UNL     1      -0.790  11.319  19.297  0.00  0.00    +0.000 A 
ATOM     23  C   UNL     1      -2.120  11.708  19.104  0.00  0.00    +0.000 A 
BRANCH  18  25
ATOM     24  C   UNL     1      -4.712  11.542  16.346  0.00  0.00    +0.000 C 
ATOM     25  C   UNL     1      -4.339  11.564  17.831  0.00  0.00    +0.000 C 
ATOM     26  C   UNL     1      -5.313  10.705  18.642  0.00  0.00    +0.000 C 
ENDBRANCH  18  25
ENDBRANCH  15  21
ENDBRANCH   1  15
BRANCH   8  27
ATOM     27  C   UNL     1       4.982   6.086  16.263  0.00  0.00    +0.000 C 
BRANCH  27  28
ATOM     28  C   UNL     1       6.390   5.507  16.126  0.00  0.00    +0.000 C 
BRANCH  28  29
ATOM     29  C   UNL     1       6.602   4.950  14.737  0.00  0.00    +0.000 A 
ATOM     30  C   UNL     1       7.612   5.458  13.908  0.00  0.00    +0.000 A 
ATOM     31  C   UNL     1       7.732   5.014  12.591  0.00  0.00    +0.000 A 
ATOM     32  C   UNL     1       6.848   4.058  12.092  0.00  0.00    +0.000 A 
ATOM     33  C   UNL     1       5.853   3.535  12.914  0.00  0.00    +0.000 A 
ATOM     34  C   UNL     1       5.729   3.978  14.230  0.00  0.00    +0.000 A 
ENDBRANCH  28  29
ENDBRANCH  27  28
ENDBRANCH   8  27
TORSDOF 6
ENDMDL
MODEL 4
REMARK VINA RESULT:      -8.5      1.498      2.653
REMARK  Name = 
REMARK  8 active torsions:
REMARK  status: ('A' for Active; 'I' for Inactive)
REMARK    1  A    between atoms: C_1  and  C_2
REMARK    2  A    between atoms: C_2  and  C_3
REMARK    3  A    between atoms: C_2  and  C_4
REMARK    4  A    between atoms: C_7  and  S_8
REMARK    5  A    between atoms: S_8  and  C_11
REMARK    6  A    between atoms: N_18  and  C_19
REMARK    7  A    between atoms: C_19  and  C_20
REMARK    8  A    between atoms: C_20  and  C_21
REMARK                            x       y       z     vdW  Elec       q    Type
REMARK                         _______ _______ _______ _____ _____    ______ ____
ROOT
ATOM      1  C   UNL     1       1.683   8.162  19.424  0.00  0.00    +0.000 A 
ATOM      2  N   UNL     1       1.154   8.188  20.690  0.00  0.00    +0.000 NA
ATOM      3  N   UNL     1       1.347   6.993  21.236  0.00  0.00    +0.000 NA
ATOM      4  N   UNL     1       1.985   6.229  20.336  0.00  0.00    +0.000 N 
ATOM      5  C   UNL     1       2.246   6.924  19.161  0.00  0.00    +0.000 A 
ATOM      6  N   UNL     1       2.887   6.351  18.082  0.00  0.00    +0.000 NA
ATOM      7  C   UNL     1       3.222   5.075  18.124  0.00  0.00    +0.000 A 
ATOM      8  N   UNL     1       3.798   4.490  17.017  0.00  0.00    +0.000 N 
ATOM      9  C   UNL     1       2.961   4.324  19.353  0.00  0.00    +0.000 A 
ATOM     10  S   UNL     1       3.386   2.703  19.623  0.00  0.00    +0.000 S 
ATOM     11  C   UNL     1       2.761   2.759  21.230  0.00  0.00    +0.000 A 
ATOM     12  C   UNL     1       2.228   3.994  21.549  0.00  0.00    +0.000 A 
ATOM     13  C   UNL     1       2.363   4.879  20.459  0.00  0.00    +0.000 A 
ATOM     14  H   UNL     1       4.023   3.506  17.104  0.00  0.00    +0.000 HD
ENDROOT
BRANCH   1  15
ATOM     15  S   UNL     1       1.647   9.537  18.393  0.00  0.00    +0.000 S 
ATOM     16  O   UNL     1       2.041   9.067  17.072  0.00  0.00    +0.000 OA
ATOM     17  O   UNL     1       2.396  10.555  19.099  0.00  0.00    +0.000 OA
BRANCH  15  21
ATOM     18  C   UNL     1      -2.691  10.982  17.975  0.00  0.00    +0.000 A 
ATOM     19  C   UNL     1      -2.167  10.005  17.112  0.00  0.00    +0.000 A 
ATOM     20  C   UNL     1      -0.855   9.543  17.258  0.00  0.00    +0.000 A 
ATOM     21  C   UNL     1      -0.051  10.052  18.279  0.00  0.00    +0.000 A 
ATOM     22  C   UNL     1      -0.545  11.038  19.140  0.00  0.00    +0.000 A 
ATOM     23  C   UNL     1      -1.859  11.492  18.989  0.00  0.00    +0.000 A 
BRANCH  18  25
ATOM     24  C   UNL     1      -4.522  11.521  16.311  0.00  0.00    +0.000 C 
ATOM     25  C   UNL     1      -4.122  11.459  17.788  0.00  0.00    +0.000 C 
ATOM     26  C   UNL     1      -5.119  10.607  18.579  0.00  0.00    +0.000 C 
ENDBRANCH  18  25
ENDBRANCH  15  21
ENDBRANCH   1  15
BRANCH   8  27
ATOM     27  C   UNL     1       4.656   5.260  16.128  0.00  0.00    +0.000 C 
BRANCH  27  28
ATOM     28  C   UNL     1       6.097   4.752  16.185  0.00  0.00    +0.000 C 
BRANCH  28  29
ATOM     29  C   UNL     1       6.931   5.620  17.097  0.00  0.00    +0.000 A 
ATOM     30  C   UNL     1       7.424   5.119  18.310  0.00  0.00    +0.000 A 
ATOM     31  C   UNL     1       8.102   5.958  19.195  0.00  0.00    +0.000 A 
ATOM     32  C   UNL     1       8.297   7.301  18.875  0.00  0.00    +0.000 A 
ATOM     33  C   UNL     1       7.826   7.803  17.665  0.00  0.00    +0.000 A 
ATOM     34  C   UNL     1       7.146   6.968  16.779  0.00  0.00    +0.000 A 
ENDBRANCH  28  29
ENDBRANCH  27  28
ENDBRANCH   8  27
TORSDOF 6
ENDMDL
MODEL 5
REMARK VINA RESULT:      -8.4      1.530      2.719
REMARK  Name = 
REMARK  8 active torsions:
REMARK  status: ('A' for Active; 'I' for Inactive)
REMARK    1  A    between atoms: C_1  and  C_2
REMARK    2  A    between atoms: C_2  and  C_3
REMARK    3  A    between atoms: C_2  and  C_4
REMARK    4  A    between atoms: C_7  and  S_8
REMARK    5  A    between atoms: S_8  and  C_11
REMARK    6  A    between atoms: N_18  and  C_19
REMARK    7  A    between atoms: C_19  and  C_20
REMARK    8  A    between atoms: C_20  and  C_21
REMARK                            x       y       z     vdW  Elec       q    Type
REMARK                         _______ _______ _______ _____ _____    ______ ____
ROOT
ATOM      1  C   UNL     1       1.682   8.093  19.374  0.00  0.00    +0.000 A 
ATOM      2  N   UNL     1       1.172   8.148  20.647  0.00  0.00    +0.000 NA
ATOM      3  N   UNL     1       1.371   6.964  21.216  0.00  0.00    +0.000 NA
ATOM      4  N   UNL     1       1.994   6.180  20.324  0.00  0.00    +0.000 N 
ATOM      5  C   UNL     1       2.239   6.849  19.130  0.00  0.00    +0.000 A 
ATOM      6  N   UNL     1       2.863   6.251  18.054  0.00  0.00    +0.000 NA
ATOM      7  C   UNL     1       3.195   4.975  18.119  0.00  0.00    +0.000 A 
ATOM      8  N   UNL     1       3.754   4.365  17.017  0.00  0.00    +0.000 N 
ATOM      9  C   UNL     1       2.951   4.252  19.369  0.00  0.00    +0.000 A 
ATOM     10  S   UNL     1       3.377   2.636  19.668  0.00  0.00    +0.000 S 
ATOM     11  C   UNL     1       2.776   2.728  21.282  0.00  0.00    +0.000 A 
ATOM     12  C   UNL     1       2.251   3.971  21.582  0.00  0.00    +0.000 A 
ATOM     13  C   UNL     1       2.371   4.832  20.470  0.00  0.00    +0.000 A 
ATOM     14  H   UNL     1       3.978   3.382  17.122  0.00  0.00    +0.000 HD
ENDROOT
BRANCH   1  15
ATOM     15  S   UNL     1       1.634   9.445  18.314  0.00  0.00    +0.000 S 
ATOM     16  O   UNL     1       1.826   8.918  16.970  0.00  0.00    +0.000 OA
ATOM     17  O   UNL     1       2.542  10.411  18.896  0.00  0.00    +0.000 OA
BRANCH  15  21
ATOM     18  C   UNL     1      -2.593  11.239  18.367  0.00  0.00    +0.000 A 
ATOM     19  C   UNL     1      -2.263  10.190  17.493  0.00  0.00    +0.000 A 
ATOM     20  C   UNL     1      -0.984   9.623  17.498  0.00  0.00    +0.000 A 
ATOM     21  C   UNL     1      -0.019  10.099  18.386  0.00  0.00    +0.000 A 
ATOM     22  C   UNL     1      -0.319  11.154  19.254  0.00  0.00    +0.000 A 
ATOM     23  C   UNL     1      -1.601  11.713  19.245  0.00  0.00    +0.000 A 
BRANCH  18  25
ATOM     24  C   UNL     1      -5.040  10.809  17.876  0.00  0.00    +0.000 C 
ATOM     25  C   UNL     1      -3.994  11.829  18.336  0.00  0.00    +0.000 C 
ATOM     26  C   UNL     1      -4.391  12.435  19.685  0.00  0.00    +0.000 C 
ENDBRANCH  18  25
ENDBRANCH  15  21
ENDBRANCH   1  15
BRANCH   8  27
ATOM     27  C   UNL     1       4.601   5.114  16.099  0.00  0.00    +0.000 C 
BRANCH  27  28
ATOM     28  C   UNL     1       6.065   4.700  16.247  0.00  0.00    +0.000 C 
BRANCH  28  29
ATOM     29  C   UNL     1       6.790   5.640  17.181  0.00  0.00    +0.000 A 
ATOM     30  C   UNL     1       6.996   6.982  16.830  0.00  0.00    +0.000 A 
ATOM     31  C   UNL     1       7.759   7.815  17.649  0.00  0.00    +0.000 A 
ATOM     32  C   UNL     1       8.318   7.317  18.825  0.00  0.00    +0.000 A 
ATOM     33  C   UNL     1       8.105   5.991  19.191  0.00  0.00    +0.000 A 
ATOM     34  C   UNL     1       7.345   5.155  18.373  0.00  0.00    +0.000 A 
ENDBRANCH  28  29
ENDBRANCH  27  28
ENDBRANCH   8  27
TORSDOF 6
ENDMDL
MODEL 6
REMARK VINA RESULT:      -8.4      1.483      2.524
REMARK  Name = 
REMARK  8 active torsions:
REMARK  status: ('A' for Active; 'I' for Inactive)
REMARK    1  A    between atoms: C_1  and  C_2
REMARK    2  A    between atoms: C_2  and  C_3
REMARK    3  A    between atoms: C_2  and  C_4
REMARK    4  A    between atoms: C_7  and  S_8
REMARK    5  A    between atoms: S_8  and  C_11
REMARK    6  A    between atoms: N_18  and  C_19
REMARK    7  A    between atoms: C_19  and  C_20
REMARK    8  A    between atoms: C_20  and  C_21
REMARK                            x       y       z     vdW  Elec       q    Type
REMARK                         _______ _______ _______ _____ _____    ______ ____
ROOT
ATOM      1  C   UNL     1       1.637   8.313  19.391  0.00  0.00    +0.000 A 
ATOM      2  N   UNL     1       1.079   8.343  20.645  0.00  0.00    +0.000 NA
ATOM      3  N   UNL     1       1.255   7.148  21.197  0.00  0.00    +0.000 NA
ATOM      4  N   UNL     1       1.909   6.380  20.312  0.00  0.00    +0.000 N 
ATOM      5  C   UNL     1       2.200   7.072  19.142  0.00  0.00    +0.000 A 
ATOM      6  N   UNL     1       2.863   6.495  18.079  0.00  0.00    +0.000 NA
ATOM      7  C   UNL     1       3.190   5.217  18.130  0.00  0.00    +0.000 A 
ATOM      8  N   UNL     1       3.789   4.629  17.037  0.00  0.00    +0.000 N 
ATOM      9  C   UNL     1       2.898   4.469  19.354  0.00  0.00    +0.000 A 
ATOM     10  S   UNL     1       3.308   2.846  19.635  0.00  0.00    +0.000 S 
ATOM     11  C   UNL     1       2.647   2.907  21.228  0.00  0.00    +0.000 A 
ATOM     12  C   UNL     1       2.114   4.145  21.533  0.00  0.00    +0.000 A 
ATOM     13  C   UNL     1       2.278   5.028  20.445  0.00  0.00    +0.000 A 
ATOM     14  H   UNL     1       4.007   3.643  17.130  0.00  0.00    +0.000 HD
ENDROOT
BRANCH   1  15
ATOM     15  S   UNL     1       1.631   9.687  18.359  0.00  0.00    +0.000 S 
ATOM     16  O   UNL     1       1.940   9.195  17.023  0.00  0.00    +0.000 OA
ATOM     17  O   UNL     1       2.466  10.663  19.027  0.00  0.00    +0.000 OA
BRANCH  15  21
ATOM     18  C   UNL     1      -2.722  11.147  18.381  0.00  0.00    +0.000 A 
ATOM     19  C   UNL     1      -1.777  11.675  19.276  0.00  0.00    +0.000 A 
ATOM     20  C   UNL     1      -0.444  11.252  19.249  0.00  0.00    +0.000 A 
ATOM     21  C   UNL     1      -0.039  10.295  18.318  0.00  0.00    +0.000 A 
ATOM     22  C   UNL     1      -0.966   9.742  17.428  0.00  0.00    +0.000 A 
ATOM     23  C   UNL     1      -2.297  10.173  17.459  0.00  0.00    +0.000 A 
BRANCH  18  25
ATOM     24  C   UNL     1      -5.164  10.480  18.313  0.00  0.00    +0.000 C 
ATOM     25  C   UNL     1      -4.162  11.632  18.437  0.00  0.00    +0.000 C 
ATOM     26  C   UNL     1      -4.441  12.454  19.698  0.00  0.00    +0.000 C 
ENDBRANCH  18  25
ENDBRANCH  15  21
ENDBRANCH   1  15
BRANCH   8  27
ATOM     27  C   UNL     1       4.671   5.394  16.167  0.00  0.00    +0.000 C 
BRANCH  27  28
ATOM     28  C   UNL     1       6.098   4.850  16.224  0.00  0.00    +0.000 C 
BRANCH  28  29
ATOM     29  C   UNL     1       6.953   5.699  17.136  0.00  0.00    +0.000 A 
ATOM     30  C   UNL     1       7.468   5.173  18.330  0.00  0.00    +0.000 A 
ATOM     31  C   UNL     1       8.166   5.992  19.217  0.00  0.00    +0.000 A 
ATOM     32  C   UNL     1       8.359   7.341  18.919  0.00  0.00    +0.000 A 
ATOM     33  C   UNL     1       7.866   7.868  17.728  0.00  0.00    +0.000 A 
ATOM     34  C   UNL     1       7.166   7.052  16.840  0.00  0.00    +0.000 A 
ENDBRANCH  28  29
ENDBRANCH  27  28
ENDBRANCH   8  27
TORSDOF 6
ENDMDL
MODEL 7
REMARK VINA RESULT:      -8.3      1.649      2.404
REMARK  Name = 
REMARK  8 active torsions:
REMARK  status: ('A' for Active; 'I' for Inactive)
REMARK    1  A    between atoms: C_1  and  C_2
REMARK    2  A    between atoms: C_2  and  C_3
REMARK    3  A    between atoms: C_2  and  C_4
REMARK    4  A    between atoms: C_7  and  S_8
REMARK    5  A    between atoms: S_8  and  C_11
REMARK    6  A    between atoms: N_18  and  C_19
REMARK    7  A    between atoms: C_19  and  C_20
REMARK    8  A    between atoms: C_20  and  C_21
REMARK                            x       y       z     vdW  Elec       q    Type
REMARK                         _______ _______ _______ _____ _____    ______ ____
ROOT
ATOM      1  C   UNL     1       1.217   9.096  19.824  0.00  0.00    +0.000 A 
ATOM      2  N   UNL     1       0.675   8.871  21.065  0.00  0.00    +0.000 NA
ATOM      3  N   UNL     1       0.978   7.628  21.423  0.00  0.00    +0.000 NA
ATOM      4  N   UNL     1       1.696   7.079  20.430  0.00  0.00    +0.000 N 
ATOM      5  C   UNL     1       1.900   7.973  19.385  0.00  0.00    +0.000 A 
ATOM      6  N   UNL     1       2.604   7.640  18.246  0.00  0.00    +0.000 NA
ATOM      7  C   UNL     1       3.059   6.411  18.097  0.00  0.00    +0.000 A 
ATOM      8  N   UNL     1       3.701   6.066  16.926  0.00  0.00    +0.000 N 
ATOM      9  C   UNL     1       2.861   5.454  19.187  0.00  0.00    +0.000 A 
ATOM     10  S   UNL     1       3.438   3.858  19.210  0.00  0.00    +0.000 S 
ATOM     11  C   UNL     1       2.794   3.600  20.790  0.00  0.00    +0.000 A 
ATOM     12  C   UNL     1       2.142   4.714  21.285  0.00  0.00    +0.000 A 
ATOM     13  C   UNL     1       2.201   5.769  20.350  0.00  0.00    +0.000 A 
ATOM     14  H   UNL     1       4.019   5.105  16.864  0.00  0.00    +0.000 HD
ENDROOT
BRANCH   1  15
ATOM     15  S   UNL     1       1.058  10.606  19.021  0.00  0.00    +0.000 S 
ATOM     16  O   UNL     1       1.862  10.511  17.810  0.00  0.00    +0.000 OA
ATOM     17  O   UNL     1       1.321  11.602  20.039  0.00  0.00    +0.000 OA
BRANCH  15  21
ATOM     18  C   UNL     1      -3.371  10.867  17.840  0.00  0.00    +0.000 A 
ATOM     19  C   UNL     1      -2.816  11.764  18.768  0.00  0.00    +0.000 A 
ATOM     20  C   UNL     1      -1.459  11.703  19.105  0.00  0.00    +0.000 A 
ATOM     21  C   UNL     1      -0.639  10.744  18.510  0.00  0.00    +0.000 A 
ATOM     22  C   UNL     1      -1.174   9.829  17.596  0.00  0.00    +0.000 A 
ATOM     23  C   UNL     1      -2.530   9.898  17.262  0.00  0.00    +0.000 A 
BRANCH  18  25
ATOM     24  C   UNL     1      -5.736  10.344  18.580  0.00  0.00    +0.000 C 
ATOM     25  C   UNL     1      -4.849  10.963  17.496  0.00  0.00    +0.000 C 
ATOM     26  C   UNL     1      -5.278  12.405  17.210  0.00  0.00    +0.000 C 
ENDBRANCH  18  25
ENDBRANCH  15  21
ENDBRANCH   1  15
BRANCH   8  27
ATOM     27  C   UNL     1       4.489   7.044  16.190  0.00  0.00    +0.000 C 
BRANCH  27  28
ATOM     28  C   UNL     1       5.803   6.431  15.707  0.00  0.00    +0.000 C 
BRANCH  28  29
ATOM     29  C   UNL     1       6.731   6.174  16.871  0.00  0.00    +0.000 A 
ATOM     30  C   UNL     1       6.971   4.869  17.322  0.00  0.00    +0.000 A 
ATOM     31  C   UNL     1       7.742   4.648  18.463  0.00  0.00    +0.000 A 
ATOM     32  C   UNL     1       8.283   5.727  19.161  0.00  0.00    +0.000 A 
ATOM     33  C   UNL     1       8.064   7.027  18.711  0.00  0.00    +0.000 A 
ATOM     34  C   UNL     1       7.291   7.251  17.572  0.00  0.00    +0.000 A 
ENDBRANCH  28  29
ENDBRANCH  27  28
ENDBRANCH   8  27
TORSDOF 6
ENDMDL
MODEL 8
REMARK VINA RESULT:      -8.3      6.322     10.790
REMARK  Name = 
REMARK  8 active torsions:
REMARK  status: ('A' for Active; 'I' for Inactive)
REMARK    1  A    between atoms: C_1  and  C_2
REMARK    2  A    between atoms: C_2  and  C_3
REMARK    3  A    between atoms: C_2  and  C_4
REMARK    4  A    between atoms: C_7  and  S_8
REMARK    5  A    between atoms: S_8  and  C_11
REMARK    6  A    between atoms: N_18  and  C_19
REMARK    7  A    between atoms: C_19  and  C_20
REMARK    8  A    between atoms: C_20  and  C_21
REMARK                            x       y       z     vdW  Elec       q    Type
REMARK                         _______ _______ _______ _____ _____    ______ ____
ROOT
ATOM      1  C   UNL     1       0.181  10.816  19.714  0.00  0.00    +0.000 A 
ATOM      2  N   UNL     1       0.856  10.051  18.796  0.00  0.00    +0.000 NA
ATOM      3  N   UNL     1       0.065   9.889  17.741  0.00  0.00    +0.000 NA
ATOM      4  N   UNL     1      -1.084  10.537  17.986  0.00  0.00    +0.000 N 
ATOM      5  C   UNL     1      -1.067  11.167  19.225  0.00  0.00    +0.000 A 
ATOM      6  N   UNL     1      -2.136  11.893  19.708  0.00  0.00    +0.000 NA
ATOM      7  C   UNL     1      -3.252  11.954  19.006  0.00  0.00    +0.000 A 
ATOM      8  N   UNL     1      -4.341  12.622  19.525  0.00  0.00    +0.000 N 
ATOM      9  C   UNL     1      -3.292  11.302  17.696  0.00  0.00    +0.000 A 
ATOM     10  S   UNL     1      -4.605  11.335  16.621  0.00  0.00    +0.000 S 
ATOM     11  C   UNL     1      -3.731  10.414  15.453  0.00  0.00    +0.000 A 
ATOM     12  C   UNL     1      -2.461  10.080  15.884  0.00  0.00    +0.000 A 
ATOM     13  C   UNL     1      -2.228  10.609  17.171  0.00  0.00    +0.000 A 
ATOM     14  H   UNL     1      -5.174  12.626  18.946  0.00  0.00    +0.000 HD
ENDROOT
BRANCH   1  15
ATOM     15  S   UNL     1       0.882  11.265  21.217  0.00  0.00    +0.000 S 
ATOM     16  O   UNL     1       1.838  12.323  20.922  0.00  0.00    +0.000 OA
ATOM     17  O   UNL     1       1.286  10.017  21.830  0.00  0.00    +0.000 OA
BRANCH  15  21
ATOM     18  C   UNL     1      -2.570  13.124  23.607  0.00  0.00    +0.000 A 
ATOM     19  C   UNL     1      -2.434  11.730  23.498  0.00  0.00    +0.000 A 
ATOM     20  C   UNL     1      -1.365  11.163  22.795  0.00  0.00    +0.000 A 
ATOM     21  C   UNL     1      -0.414  11.990  22.196  0.00  0.00    +0.000 A 
ATOM     22  C   UNL     1      -0.538  13.381  22.276  0.00  0.00    +0.000 A 
ATOM     23  C   UNL     1      -1.608  13.940  22.983  0.00  0.00    +0.000 A 
BRANCH  18  25
ATOM     24  C   UNL     1      -4.503  12.634  25.168  0.00  0.00    +0.000 C 
ATOM     25  C   UNL     1      -3.743  13.705  24.380  0.00  0.00    +0.000 C 
ATOM     26  C   UNL     1      -3.311  14.846  25.305  0.00  0.00    +0.000 C 
ENDBRANCH  18  25
ENDBRANCH  15  21
ENDBRANCH   1  15
BRANCH   8  27
ATOM     27  C   UNL     1      -4.164  13.780  20.390  0.00  0.00    +0.000 C 
BRANCH  27  28
ATOM     28  C   UNL     1      -5.452  14.598  20.475  0.00  0.00    +0.000 C 
BRANCH  28  29
ATOM     29  C   UNL     1      -6.197  14.286  21.752  0.00  0.00    +0.000 A 
ATOM     30  C   UNL     1      -6.726  13.008  21.979  0.00  0.00    +0.000 A 
ATOM     31  C   UNL     1      -7.503  12.758  23.110  0.00  0.00    +0.000 A 
ATOM     32  C   UNL     1      -7.755  13.780  24.025  0.00  0.00    +0.000 A 
ATOM     33  C   UNL     1      -7.220  15.048  23.816  0.00  0.00    +0.000 A 
ATOM     34  C   UNL     1      -6.444  15.302  22.685  0.00  0.00    +0.000 A 
ENDBRANCH  28  29
ENDBRANCH  27  28
ENDBRANCH   8  27
TORSDOF 6
ENDMDL
MODEL 9
REMARK VINA RESULT:      -8.3      2.411      8.941
REMARK  Name = 
REMARK  8 active torsions:
REMARK  status: ('A' for Active; 'I' for Inactive)
REMARK    1  A    between atoms: C_1  and  C_2
REMARK    2  A    between atoms: C_2  and  C_3
REMARK    3  A    between atoms: C_2  and  C_4
REMARK    4  A    between atoms: C_7  and  S_8
REMARK    5  A    between atoms: S_8  and  C_11
REMARK    6  A    between atoms: N_18  and  C_19
REMARK    7  A    between atoms: C_19  and  C_20
REMARK    8  A    between atoms: C_20  and  C_21
REMARK                            x       y       z     vdW  Elec       q    Type
REMARK                         _______ _______ _______ _____ _____    ______ ____
ROOT
ATOM      1  C   UNL     1       5.854   4.905  17.863  0.00  0.00    +0.000 A 
ATOM      2  N   UNL     1       6.210   3.675  18.357  0.00  0.00    +0.000 NA
ATOM      3  N   UNL     1       5.268   3.291  19.212  0.00  0.00    +0.000 NA
ATOM      4  N   UNL     1       4.337   4.257  19.256  0.00  0.00    +0.000 N 
ATOM      5  C   UNL     1       4.644   5.310  18.401  0.00  0.00    +0.000 A 
ATOM      6  N   UNL     1       3.842   6.425  18.274  0.00  0.00    +0.000 NA
ATOM      7  C   UNL     1       2.767   6.545  19.030  0.00  0.00    +0.000 A 
ATOM      8  N   UNL     1       2.008   7.693  18.949  0.00  0.00    +0.000 N 
ATOM      9  C   UNL     1       2.421   5.446  19.934  0.00  0.00    +0.000 A 
ATOM     10  S   UNL     1       1.044   5.384  20.924  0.00  0.00    +0.000 S 
ATOM     11  C   UNL     1       1.475   3.818  21.505  0.00  0.00    +0.000 A 
ATOM     12  C   UNL     1       2.657   3.356  20.956  0.00  0.00    +0.000 A 
ATOM     13  C   UNL     1       3.177   4.305  20.050  0.00  0.00    +0.000 A 
ATOM     14  H   UNL     1       1.201   7.733  19.561  0.00  0.00    +0.000 HD
ENDROOT
BRANCH   1  15
ATOM     15  S   UNL     1       6.816   5.734  16.705  0.00  0.00    +0.000 S 
ATOM     16  O   UNL     1       8.200   5.403  17.012  0.00  0.00    +0.000 OA
ATOM     17  O   UNL     1       6.332   7.099  16.724  0.00  0.00    +0.000 OA
BRANCH  15  21
ATOM     18  C   UNL     1       5.912   3.732  12.673  0.00  0.00    +0.000 A 
ATOM     19  C   UNL     1       4.962   3.735  13.708  0.00  0.00    +0.000 A 
ATOM     20  C   UNL     1       5.226   4.371  14.926  0.00  0.00    +0.000 A 
ATOM     21  C   UNL     1       6.447   5.019  15.119  0.00  0.00    +0.000 A 
ATOM     22  C   UNL     1       7.415   5.013  14.109  0.00  0.00    +0.000 A 
ATOM     23  C   UNL     1       7.142   4.378  12.893  0.00  0.00    +0.000 A 
BRANCH  18  25
ATOM     24  C   UNL     1       6.113   1.593  11.332  0.00  0.00    +0.000 C 
ATOM     25  C   UNL     1       5.590   3.032  11.362  0.00  0.00    +0.000 C 
ATOM     26  C   UNL     1       4.093   3.066  11.046  0.00  0.00    +0.000 C 
ENDBRANCH  18  25
ENDBRANCH  15  21
ENDBRANCH   1  15
BRANCH   8  27
ATOM     27  C   UNL     1       1.890   8.423  17.695  0.00  0.00    +0.000 C 
BRANCH  27  28
ATOM     28  C   UNL     1       1.970   9.931  17.932  0.00  0.00    +0.000 C 
BRANCH  28  29
ATOM     29  C   UNL     1       0.743  10.419  18.666  0.00  0.00    +0.000 A 
ATOM     30  C   UNL     1      -0.537  10.234  18.124  0.00  0.00    +0.000 A 
ATOM     31  C   UNL     1      -1.655  10.781  18.754  0.00  0.00    +0.000 A 
ATOM     32  C   UNL     1      -1.505  11.515  19.930  0.00  0.00    +0.000 A 
ATOM     33  C   UNL     1      -0.239  11.690  20.485  0.00  0.00    +0.000 A 
ATOM     34  C   UNL     1       0.880  11.146  19.856  0.00  0.00    +0.000 A 
ENDBRANCH  28  29
ENDBRANCH  27  28
ENDBRANCH   8  27
TORSDOF 6
ENDMDL
