MODEL 1
REMARK VINA RESULT:      -7.2      0.000      0.000
REMARK  Name = 
REMARK  9 active torsions:
REMARK  status: ('A' for Active; 'I' for Inactive)
REMARK    1  A    between atoms: C_1  and  C_2
REMARK    2  A    between atoms: C_7  and  N_8
REMARK    3  A    between atoms: C_9  and  C_11
REMARK    4  A    between atoms: C_12  and  C_13
REMARK    5  A    between atoms: C_21  and  N_22
REMARK    6  A    between atoms: C_23  and  C_25
REMARK    7  A    between atoms: C_25  and  C_26
REMARK    8  A    between atoms: C_26  and  C_27
REMARK    9  A    between atoms: C_26  and  C_28
REMARK                            x       y       z     vdW  Elec       q    Type
REMARK                         _______ _______ _______ _____ _____    ______ ____
ROOT
ATOM      1  C   UNL     1      -0.069   9.925  20.614  0.00  0.00    +0.000 A 
ATOM      2  C   UNL     1       0.923   8.857  20.732  0.00  0.00    +0.000 A 
ATOM      3  C   UNL     1       1.294   8.697  22.057  0.00  0.00    +0.000 A 
ATOM      4  S   UNL     1       0.382   9.663  23.135  0.00  0.00    +0.000 S 
ATOM      5  C   UNL     1      -0.482  10.376  21.858  0.00  0.00    +0.000 A 
ENDROOT
BRANCH   2   6
ATOM      6  C   UNL     1       1.611   8.154  19.626  0.00  0.00    +0.000 A 
ATOM      7  C   UNL     1       2.166   6.881  19.820  0.00  0.00    +0.000 A 
ATOM      8  C   UNL     1       3.096   6.366  18.912  0.00  0.00    +0.000 A 
ATOM      9  C   UNL     1       3.498   7.113  17.810  0.00  0.00    +0.000 A 
ATOM     10  C   UNL     1       2.898   8.342  17.561  0.00  0.00    +0.000 A 
ATOM     11  C   UNL     1       1.912   8.824  18.427  0.00  0.00    +0.000 A 
ENDBRANCH   2   6
BRANCH   1  13
ATOM     12  N   UNL     1      -1.687   9.962  18.854  0.00  0.00    +0.000 N 
ATOM     13  C   UNL     1      -0.546  10.559  19.380  0.00  0.00    +0.000 C 
ATOM     14  O   UNL     1       0.092  11.482  18.886  0.00  0.00    +0.000 OA
ATOM     15  H   UNL     1      -2.029   9.136  19.329  0.00  0.00    +0.000 HD
BRANCH  12  22
ATOM     16  C   UNL     1      -3.925  11.922  19.103  0.00  0.00    +0.000 C 
ATOM     17  C   UNL     1      -3.509  11.247  17.838  0.00  0.00    +0.000 A 
ATOM     18  C   UNL     1      -4.280  11.513  16.678  0.00  0.00    +0.000 A 
ATOM     19  C   UNL     1      -3.955  10.950  15.439  0.00  0.00    +0.000 A 
ATOM     20  C   UNL     1      -2.840  10.147  15.325  0.00  0.00    +0.000 A 
ATOM     21  C   UNL     1      -2.065   9.868  16.444  0.00  0.00    +0.000 A 
ATOM     22  C   UNL     1      -2.413  10.359  17.712  0.00  0.00    +0.000 A 
ENDBRANCH  12  22
ENDBRANCH   1  13
BRANCH   5  23
ATOM     23  N   UNL     1      -1.469  11.302  22.196  0.00  0.00    +0.000 N 
ATOM     24  C   UNL     1      -1.080  12.631  22.356  0.00  0.00    +0.000 C 
ATOM     25  O   UNL     1       0.080  13.035  22.267  0.00  0.00    +0.000 OA
ATOM     26  H   UNL     1      -2.360  11.183  21.718  0.00  0.00    +0.000 HD
BRANCH  24  27
ATOM     27  C   UNL     1      -2.212  13.636  22.542  0.00  0.00    +0.000 C 
BRANCH  27  28
ATOM     28  C   UNL     1      -3.610  13.056  22.774  0.00  0.00    +0.000 C 
ATOM     29  C   UNL     1      -3.906  12.816  24.256  0.00  0.00    +0.000 C 
ATOM     30  C   UNL     1      -4.685  13.994  22.210  0.00  0.00    +0.000 C 
ENDBRANCH  27  28
ENDBRANCH  24  27
ENDBRANCH   5  23
TORSDOF 6
ENDMDL
MODEL 2
REMARK VINA RESULT:      -7.2      4.517      7.992
REMARK  Name = 
REMARK  9 active torsions:
REMARK  status: ('A' for Active; 'I' for Inactive)
REMARK    1  A    between atoms: C_1  and  C_2
REMARK    2  A    between atoms: C_7  and  N_8
REMARK    3  A    between atoms: C_9  and  C_11
REMARK    4  A    between atoms: C_12  and  C_13
REMARK    5  A    between atoms: C_21  and  N_22
REMARK    6  A    between atoms: C_23  and  C_25
REMARK    7  A    between atoms: C_25  and  C_26
REMARK    8  A    between atoms: C_26  and  C_27
REMARK    9  A    between atoms: C_26  and  C_28
REMARK                            x       y       z     vdW  Elec       q    Type
REMARK                         _______ _______ _______ _____ _____    ______ ____
ROOT
ATOM      1  C   UNL     1       4.404   6.281  17.879  0.00  0.00    +0.000 A 
ATOM      2  C   UNL     1       4.124   4.893  18.243  0.00  0.00    +0.000 A 
ATOM      3  C   UNL     1       5.246   4.110  18.031  0.00  0.00    +0.000 A 
ATOM      4  S   UNL     1       6.625   5.015  17.574  0.00  0.00    +0.000 S 
ATOM      5  C   UNL     1       5.744   6.467  17.575  0.00  0.00    +0.000 A 
ENDROOT
BRANCH   2   6
ATOM      6  C   UNL     1       2.810   4.314  18.600  0.00  0.00    +0.000 A 
ATOM      7  C   UNL     1       2.219   4.582  19.843  0.00  0.00    +0.000 A 
ATOM      8  C   UNL     1       1.174   3.786  20.319  0.00  0.00    +0.000 A 
ATOM      9  C   UNL     1       0.711   2.706  19.576  0.00  0.00    +0.000 A 
ATOM     10  C   UNL     1       1.231   2.475  18.308  0.00  0.00    +0.000 A 
ATOM     11  C   UNL     1       2.225   3.317  17.799  0.00  0.00    +0.000 A 
ENDBRANCH   2   6
BRANCH   1  13
ATOM     12  N   UNL     1       2.646   7.566  18.866  0.00  0.00    +0.000 N 
ATOM     13  C   UNL     1       3.435   7.373  17.737  0.00  0.00    +0.000 C 
ATOM     14  O   UNL     1       3.344   7.971  16.670  0.00  0.00    +0.000 OA
ATOM     15  H   UNL     1       2.776   6.913  19.629  0.00  0.00    +0.000 HD
BRANCH  12  22
ATOM     16  C   UNL     1       1.572   8.089  21.602  0.00  0.00    +0.000 C 
ATOM     17  C   UNL     1       1.112   8.765  20.353  0.00  0.00    +0.000 A 
ATOM     18  C   UNL     1       0.037   9.683  20.471  0.00  0.00    +0.000 A 
ATOM     19  C   UNL     1      -0.448  10.387  19.364  0.00  0.00    +0.000 A 
ATOM     20  C   UNL     1       0.150  10.221  18.133  0.00  0.00    +0.000 A 
ATOM     21  C   UNL     1       1.205   9.329  17.986  0.00  0.00    +0.000 A 
ATOM     22  C   UNL     1       1.661   8.555  19.064  0.00  0.00    +0.000 A 
ENDBRANCH  12  22
ENDBRANCH   1  13
BRANCH   5  23
ATOM     23  N   UNL     1       6.444   7.636  17.275  0.00  0.00    +0.000 N 
ATOM     24  C   UNL     1       7.641   7.865  17.952  0.00  0.00    +0.000 C 
ATOM     25  O   UNL     1       8.098   7.132  18.830  0.00  0.00    +0.000 OA
ATOM     26  H   UNL     1       6.468   7.889  16.288  0.00  0.00    +0.000 HD
BRANCH  24  27
ATOM     27  C   UNL     1       8.462   9.054  17.465  0.00  0.00    +0.000 C 
BRANCH  27  28
ATOM     28  C   UNL     1       8.497  10.282  18.380  0.00  0.00    +0.000 C 
ATOM     29  C   UNL     1       9.662  10.240  19.371  0.00  0.00    +0.000 C 
ATOM     30  C   UNL     1       8.608  11.569  17.552  0.00  0.00    +0.000 C 
ENDBRANCH  27  28
ENDBRANCH  24  27
ENDBRANCH   5  23
TORSDOF 6
ENDMDL
MODEL 3
REMARK VINA RESULT:      -7.1      5.185      8.640
REMARK  Name = 
REMARK  9 active torsions:
REMARK  status: ('A' for Active; 'I' for Inactive)
REMARK    1  A    between atoms: C_1  and  C_2
REMARK    2  A    between atoms: C_7  and  N_8
REMARK    3  A    between atoms: C_9  and  C_11
REMARK    4  A    between atoms: C_12  and  C_13
REMARK    5  A    between atoms: C_21  and  N_22
REMARK    6  A    between atoms: C_23  and  C_25
REMARK    7  A    between atoms: C_25  and  C_26
REMARK    8  A    between atoms: C_26  and  C_27
REMARK    9  A    between atoms: C_26  and  C_28
REMARK                            x       y       z     vdW  Elec       q    Type
REMARK                         _______ _______ _______ _____ _____    ______ ____
ROOT
ATOM      1  C   UNL     1       4.880   5.728  17.217  0.00  0.00    +0.000 A 
ATOM      2  C   UNL     1       4.662   4.282  17.169  0.00  0.00    +0.000 A 
ATOM      3  C   UNL     1       5.682   3.672  16.458  0.00  0.00    +0.000 A 
ATOM      4  S   UNL     1       6.931   4.751  16.006  0.00  0.00    +0.000 S 
ATOM      5  C   UNL     1       6.111   6.075  16.682  0.00  0.00    +0.000 A 
ENDROOT
BRANCH   2   6
ATOM      6  C   UNL     1       3.459   3.547  17.619  0.00  0.00    +0.000 A 
ATOM      7  C   UNL     1       2.175   4.004  17.293  0.00  0.00    +0.000 A 
ATOM      8  C   UNL     1       1.055   3.529  17.983  0.00  0.00    +0.000 A 
ATOM      9  C   UNL     1       1.198   2.607  19.014  0.00  0.00    +0.000 A 
ATOM     10  C   UNL     1       2.455   2.085  19.296  0.00  0.00    +0.000 A 
ATOM     11  C   UNL     1       3.565   2.503  18.555  0.00  0.00    +0.000 A 
ENDBRANCH   2   6
BRANCH   1  13
ATOM     12  N   UNL     1       3.278   6.423  18.850  0.00  0.00    +0.000 N 
ATOM     13  C   UNL     1       3.931   6.752  17.667  0.00  0.00    +0.000 C 
ATOM     14  O   UNL     1       3.738   7.747  16.977  0.00  0.00    +0.000 OA
ATOM     15  H   UNL     1       3.474   5.509  19.239  0.00  0.00    +0.000 HD
BRANCH  12  22
ATOM     16  C   UNL     1       1.867   5.293  21.225  0.00  0.00    +0.000 C 
ATOM     17  C   UNL     1       1.639   6.654  20.656  0.00  0.00    +0.000 A 
ATOM     18  C   UNL     1       0.628   7.447  21.256  0.00  0.00    +0.000 A 
ATOM     19  C   UNL     1       0.356   8.745  20.813  0.00  0.00    +0.000 A 
ATOM     20  C   UNL     1       1.109   9.290  19.794  0.00  0.00    +0.000 A 
ATOM     21  C   UNL     1       2.107   8.538  19.187  0.00  0.00    +0.000 A 
ATOM     22  C   UNL     1       2.348   7.208  19.563  0.00  0.00    +0.000 A 
ENDBRANCH  12  22
ENDBRANCH   1  13
BRANCH   5  23
ATOM     23  N   UNL     1       6.745   7.316  16.620  0.00  0.00    +0.000 N 
ATOM     24  C   UNL     1       7.677   7.617  17.612  0.00  0.00    +0.000 C 
ATOM     25  O   UNL     1       7.942   6.884  18.566  0.00  0.00    +0.000 OA
ATOM     26  H   UNL     1       7.018   7.619  15.686  0.00  0.00    +0.000 HD
BRANCH  24  27
ATOM     27  C   UNL     1       8.478   8.898  17.405  0.00  0.00    +0.000 C 
BRANCH  27  28
ATOM     28  C   UNL     1       8.240  10.024  18.415  0.00  0.00    +0.000 C 
ATOM     29  C   UNL     1       9.317  10.073  19.501  0.00  0.00    +0.000 C 
ATOM     30  C   UNL     1       8.200  11.385  17.708  0.00  0.00    +0.000 C 
ENDBRANCH  27  28
ENDBRANCH  24  27
ENDBRANCH   5  23
TORSDOF 6
ENDMDL
MODEL 4
REMARK VINA RESULT:      -7.0      3.743      6.873
REMARK  Name = 
REMARK  9 active torsions:
REMARK  status: ('A' for Active; 'I' for Inactive)
REMARK    1  A    between atoms: C_1  and  C_2
REMARK    2  A    between atoms: C_7  and  N_8
REMARK    3  A    between atoms: C_9  and  C_11
REMARK    4  A    between atoms: C_12  and  C_13
REMARK    5  A    between atoms: C_21  and  N_22
REMARK    6  A    between atoms: C_23  and  C_25
REMARK    7  A    between atoms: C_25  and  C_26
REMARK    8  A    between atoms: C_26  and  C_27
REMARK    9  A    between atoms: C_26  and  C_28
REMARK                            x       y       z     vdW  Elec       q    Type
REMARK                         _______ _______ _______ _____ _____    ______ ____
ROOT
ATOM      1  C   UNL     1       1.981   7.561  19.521  0.00  0.00    +0.000 A 
ATOM      2  C   UNL     1       1.477   6.559  20.460  0.00  0.00    +0.000 A 
ATOM      3  C   UNL     1       0.903   7.182  21.556  0.00  0.00    +0.000 A 
ATOM      4  S   UNL     1       0.818   8.884  21.398  0.00  0.00    +0.000 S 
ATOM      5  C   UNL     1       1.613   8.843  19.898  0.00  0.00    +0.000 A 
ENDROOT
BRANCH   2   6
ATOM      6  C   UNL     1       1.693   5.096  20.404  0.00  0.00    +0.000 A 
ATOM      7  C   UNL     1       0.936   4.291  19.541  0.00  0.00    +0.000 A 
ATOM      8  C   UNL     1       0.887   2.906  19.722  0.00  0.00    +0.000 A 
ATOM      9  C   UNL     1       1.575   2.304  20.770  0.00  0.00    +0.000 A 
ATOM     10  C   UNL     1       2.392   3.078  21.585  0.00  0.00    +0.000 A 
ATOM     11  C   UNL     1       2.502   4.453  21.357  0.00  0.00    +0.000 A 
ENDBRANCH   2   6
BRANCH   1  13
ATOM     12  N   UNL     1       3.825   6.362  18.581  0.00  0.00    +0.000 N 
ATOM     13  C   UNL     1       2.850   7.330  18.362  0.00  0.00    +0.000 C 
ATOM     14  O   UNL     1       2.711   8.012  17.353  0.00  0.00    +0.000 OA
ATOM     15  H   UNL     1       3.872   5.967  19.513  0.00  0.00    +0.000 HD
BRANCH  12  22
ATOM     16  C   UNL     1       3.346   3.801  17.124  0.00  0.00    +0.000 C 
ATOM     17  C   UNL     1       4.575   4.639  17.010  0.00  0.00    +0.000 A 
ATOM     18  C   UNL     1       5.623   4.145  16.191  0.00  0.00    +0.000 A 
ATOM     19  C   UNL     1       6.804   4.868  15.998  0.00  0.00    +0.000 A 
ATOM     20  C   UNL     1       6.948   6.108  16.583  0.00  0.00    +0.000 A 
ATOM     21  C   UNL     1       5.940   6.619  17.391  0.00  0.00    +0.000 A 
ATOM     22  C   UNL     1       4.777   5.880  17.660  0.00  0.00    +0.000 A 
ENDBRANCH  12  22
ENDBRANCH   1  13
BRANCH   5  23
ATOM     23  N   UNL     1       1.800  10.060  19.243  0.00  0.00    +0.000 N 
ATOM     24  C   UNL     1       0.679  10.679  18.694  0.00  0.00    +0.000 C 
ATOM     25  O   UNL     1      -0.457  10.201  18.703  0.00  0.00    +0.000 OA
ATOM     26  H   UNL     1       2.451  10.701  19.695  0.00  0.00    +0.000 HD
BRANCH  24  27
ATOM     27  C   UNL     1       0.896  12.088  18.152  0.00  0.00    +0.000 C 
BRANCH  27  28
ATOM     28  C   UNL     1       1.735  13.031  19.019  0.00  0.00    +0.000 C 
ATOM     29  C   UNL     1       2.972  13.554  18.286  0.00  0.00    +0.000 C 
ATOM     30  C   UNL     1       0.897  14.233  19.476  0.00  0.00    +0.000 C 
ENDBRANCH  27  28
ENDBRANCH  24  27
ENDBRANCH   5  23
TORSDOF 6
ENDMDL
MODEL 5
REMARK VINA RESULT:      -7.0      0.456      1.016
REMARK  Name = 
REMARK  9 active torsions:
REMARK  status: ('A' for Active; 'I' for Inactive)
REMARK    1  A    between atoms: C_1  and  C_2
REMARK    2  A    between atoms: C_7  and  N_8
REMARK    3  A    between atoms: C_9  and  C_11
REMARK    4  A    between atoms: C_12  and  C_13
REMARK    5  A    between atoms: C_21  and  N_22
REMARK    6  A    between atoms: C_23  and  C_25
REMARK    7  A    between atoms: C_25  and  C_26
REMARK    8  A    between atoms: C_26  and  C_27
REMARK    9  A    between atoms: C_26  and  C_28
REMARK                            x       y       z     vdW  Elec       q    Type
REMARK                         _______ _______ _______ _____ _____    ______ ____
ROOT
ATOM      1  C   UNL     1      -0.169  10.043  20.922  0.00  0.00    +0.000 A 
ATOM      2  C   UNL     1       0.895   9.047  21.037  0.00  0.00    +0.000 A 
ATOM      3  C   UNL     1       1.220   8.851  22.369  0.00  0.00    +0.000 A 
ATOM      4  S   UNL     1       0.193   9.694  23.447  0.00  0.00    +0.000 S 
ATOM      5  C   UNL     1      -0.668  10.401  22.165  0.00  0.00    +0.000 A 
ENDROOT
BRANCH   2   6
ATOM      6  C   UNL     1       1.681   8.450  19.934  0.00  0.00    +0.000 A 
ATOM      7  C   UNL     1       1.789   9.100  18.697  0.00  0.00    +0.000 A 
ATOM      8  C   UNL     1       2.225   8.405  17.565  0.00  0.00    +0.000 A 
ATOM      9  C   UNL     1       2.544   7.054  17.643  0.00  0.00    +0.000 A 
ATOM     10  C   UNL     1       2.518   6.416  18.878  0.00  0.00    +0.000 A 
ATOM     11  C   UNL     1       2.155   7.130  20.024  0.00  0.00    +0.000 A 
ENDBRANCH   2   6
BRANCH   1  13
ATOM     12  N   UNL     1      -1.670  10.013  19.061  0.00  0.00    +0.000 N 
ATOM     13  C   UNL     1      -0.640  10.699  19.698  0.00  0.00    +0.000 C 
ATOM     14  O   UNL     1      -0.085  11.718  19.302  0.00  0.00    +0.000 OA
ATOM     15  H   UNL     1      -1.942   9.125  19.463  0.00  0.00    +0.000 HD
BRANCH  12  22
ATOM     16  C   UNL     1      -3.887  12.004  19.229  0.00  0.00    +0.000 C 
ATOM     17  C   UNL     1      -3.453  11.303  17.985  0.00  0.00    +0.000 A 
ATOM     18  C   UNL     1      -4.195  11.559  16.803  0.00  0.00    +0.000 A 
ATOM     19  C   UNL     1      -3.851  10.972  15.582  0.00  0.00    +0.000 A 
ATOM     20  C   UNL     1      -2.744  10.153  15.505  0.00  0.00    +0.000 A 
ATOM     21  C   UNL     1      -1.997   9.884  16.646  0.00  0.00    +0.000 A 
ATOM     22  C   UNL     1      -2.366  10.400  17.897  0.00  0.00    +0.000 A 
ENDBRANCH  12  22
ENDBRANCH   1  13
BRANCH   5  23
ATOM     23  N   UNL     1      -1.736  11.235  22.499  0.00  0.00    +0.000 N 
ATOM     24  C   UNL     1      -1.461  12.585  22.708  0.00  0.00    +0.000 C 
ATOM     25  O   UNL     1      -0.335  13.083  22.667  0.00  0.00    +0.000 OA
ATOM     26  H   UNL     1      -2.601  11.059  21.990  0.00  0.00    +0.000 HD
BRANCH  24  27
ATOM     27  C   UNL     1      -2.676  13.490  22.888  0.00  0.00    +0.000 C 
BRANCH  27  28
ATOM     28  C   UNL     1      -4.018  12.793  23.124  0.00  0.00    +0.000 C 
ATOM     29  C   UNL     1      -4.302  12.558  24.609  0.00  0.00    +0.000 C 
ATOM     30  C   UNL     1      -5.168  13.620  22.534  0.00  0.00    +0.000 C 
ENDBRANCH  27  28
ENDBRANCH  24  27
ENDBRANCH   5  23
TORSDOF 6
ENDMDL
MODEL 6
REMARK VINA RESULT:      -6.9      3.578      7.285
REMARK  Name = 
REMARK  9 active torsions:
REMARK  status: ('A' for Active; 'I' for Inactive)
REMARK    1  A    between atoms: C_1  and  C_2
REMARK    2  A    between atoms: C_7  and  N_8
REMARK    3  A    between atoms: C_9  and  C_11
REMARK    4  A    between atoms: C_12  and  C_13
REMARK    5  A    between atoms: C_21  and  N_22
REMARK    6  A    between atoms: C_23  and  C_25
REMARK    7  A    between atoms: C_25  and  C_26
REMARK    8  A    between atoms: C_26  and  C_27
REMARK    9  A    between atoms: C_26  and  C_28
REMARK                            x       y       z     vdW  Elec       q    Type
REMARK                         _______ _______ _______ _____ _____    ______ ____
ROOT
ATOM      1  C   UNL     1       2.617   6.708  18.880  0.00  0.00    +0.000 A 
ATOM      2  C   UNL     1       2.099   5.565  19.632  0.00  0.00    +0.000 A 
ATOM      3  C   UNL     1       1.478   6.002  20.790  0.00  0.00    +0.000 A 
ATOM      4  S   UNL     1       1.370   7.706  20.898  0.00  0.00    +0.000 S 
ATOM      5  C   UNL     1       2.214   7.911  19.439  0.00  0.00    +0.000 A 
ENDROOT
BRANCH   2   6
ATOM      6  C   UNL     1       2.342   4.132  19.355  0.00  0.00    +0.000 A 
ATOM      7  C   UNL     1       3.327   3.422  20.055  0.00  0.00    +0.000 A 
ATOM      8  C   UNL     1       3.793   2.194  19.577  0.00  0.00    +0.000 A 
ATOM      9  C   UNL     1       3.299   1.663  18.390  0.00  0.00    +0.000 A 
ATOM     10  C   UNL     1       2.267   2.316  17.726  0.00  0.00    +0.000 A 
ATOM     11  C   UNL     1       1.748   3.506  18.245  0.00  0.00    +0.000 A 
ENDBRANCH   2   6
BRANCH   1  13
ATOM     12  N   UNL     1       4.354   5.553  17.710  0.00  0.00    +0.000 N 
ATOM     13  C   UNL     1       3.528   6.672  17.731  0.00  0.00    +0.000 C 
ATOM     14  O   UNL     1       3.546   7.610  16.941  0.00  0.00    +0.000 OA
ATOM     15  H   UNL     1       4.286   4.923  18.500  0.00  0.00    +0.000 HD
BRANCH  12  22
ATOM     16  C   UNL     1       7.151   6.580  17.881  0.00  0.00    +0.000 C 
ATOM     17  C   UNL     1       6.611   5.734  16.776  0.00  0.00    +0.000 A 
ATOM     18  C   UNL     1       7.481   5.450  15.693  0.00  0.00    +0.000 A 
ATOM     19  C   UNL     1       7.078   4.645  14.623  0.00  0.00    +0.000 A 
ATOM     20  C   UNL     1       5.821   4.079  14.629  0.00  0.00    +0.000 A 
ATOM     21  C   UNL     1       4.946   4.339  15.677  0.00  0.00    +0.000 A 
ATOM     22  C   UNL     1       5.299   5.204  16.724  0.00  0.00    +0.000 A 
ENDBRANCH  12  22
ENDBRANCH   1  13
BRANCH   5  23
ATOM     23  N   UNL     1       2.402   9.218  18.991  0.00  0.00    +0.000 N 
ATOM     24  C   UNL     1       1.323   9.854  18.381  0.00  0.00    +0.000 C 
ATOM     25  O   UNL     1       0.231   9.326  18.167  0.00  0.00    +0.000 OA
ATOM     26  H   UNL     1       2.943   9.817  19.612  0.00  0.00    +0.000 HD
BRANCH  24  27
ATOM     27  C   UNL     1       1.512  11.336  18.073  0.00  0.00    +0.000 C 
BRANCH  27  28
ATOM     28  C   UNL     1       0.773  12.322  18.981  0.00  0.00    +0.000 C 
ATOM     29  C   UNL     1      -0.646  12.620  18.490  0.00  0.00    +0.000 C 
ATOM     30  C   UNL     1       0.687  11.778  20.413  0.00  0.00    +0.000 C 
ENDBRANCH  27  28
ENDBRANCH  24  27
ENDBRANCH   5  23
TORSDOF 6
ENDMDL
MODEL 7
REMARK VINA RESULT:      -6.8      4.685      8.195
REMARK  Name = 
REMARK  9 active torsions:
REMARK  status: ('A' for Active; 'I' for Inactive)
REMARK    1  A    between atoms: C_1  and  C_2
REMARK    2  A    between atoms: C_7  and  N_8
REMARK    3  A    between atoms: C_9  and  C_11
REMARK    4  A    between atoms: C_12  and  C_13
REMARK    5  A    between atoms: C_21  and  N_22
REMARK    6  A    between atoms: C_23  and  C_25
REMARK    7  A    between atoms: C_25  and  C_26
REMARK    8  A    between atoms: C_26  and  C_27
REMARK    9  A    between atoms: C_26  and  C_28
REMARK                            x       y       z     vdW  Elec       q    Type
REMARK                         _______ _______ _______ _____ _____    ______ ____
ROOT
ATOM      1  C   UNL     1       4.914   6.199  17.718  0.00  0.00    +0.000 A 
ATOM      2  C   UNL     1       4.763   4.786  18.064  0.00  0.00    +0.000 A 
ATOM      3  C   UNL     1       5.943   4.106  17.812  0.00  0.00    +0.000 A 
ATOM      4  S   UNL     1       7.227   5.133  17.339  0.00  0.00    +0.000 S 
ATOM      5  C   UNL     1       6.225   6.504  17.386  0.00  0.00    +0.000 A 
ENDROOT
BRANCH   2   6
ATOM      6  C   UNL     1       3.512   4.090  18.441  0.00  0.00    +0.000 A 
ATOM      7  C   UNL     1       2.432   4.021  17.550  0.00  0.00    +0.000 A 
ATOM      8  C   UNL     1       1.156   3.680  18.006  0.00  0.00    +0.000 A 
ATOM      9  C   UNL     1       0.932   3.417  19.352  0.00  0.00    +0.000 A 
ATOM     10  C   UNL     1       2.006   3.403  20.235  0.00  0.00    +0.000 A 
ATOM     11  C   UNL     1       3.296   3.670  19.765  0.00  0.00    +0.000 A 
ENDBRANCH   2   6
BRANCH   1  13
ATOM     12  N   UNL     1       3.148   7.390  18.803  0.00  0.00    +0.000 N 
ATOM     13  C   UNL     1       3.852   7.205  17.618  0.00  0.00    +0.000 C 
ATOM     14  O   UNL     1       3.624   7.742  16.540  0.00  0.00    +0.000 OA
ATOM     15  H   UNL     1       3.394   6.785  19.577  0.00  0.00    +0.000 HD
BRANCH  12  22
ATOM     16  C   UNL     1       1.477   7.147  21.265  0.00  0.00    +0.000 C 
ATOM     17  C   UNL     1       1.279   8.161  20.187  0.00  0.00    +0.000 A 
ATOM     18  C   UNL     1       0.171   9.036  20.316  0.00  0.00    +0.000 A 
ATOM     19  C   UNL     1      -0.084  10.037  19.374  0.00  0.00    +0.000 A 
ATOM     20  C   UNL     1       0.777  10.209  18.310  0.00  0.00    +0.000 A 
ATOM     21  C   UNL     1       1.871   9.367  18.157  0.00  0.00    +0.000 A 
ATOM     22  C   UNL     1       2.106   8.308  19.047  0.00  0.00    +0.000 A 
ENDBRANCH  12  22
ENDBRANCH   1  13
BRANCH   5  23
ATOM     23  N   UNL     1       6.814   7.733  17.091  0.00  0.00    +0.000 N 
ATOM     24  C   UNL     1       7.879   8.148  17.889  0.00  0.00    +0.000 C 
ATOM     25  O   UNL     1       8.303   7.528  18.865  0.00  0.00    +0.000 OA
ATOM     26  H   UNL     1       6.935   7.931  16.099  0.00  0.00    +0.000 HD
BRANCH  24  27
ATOM     27  C   UNL     1       8.610   9.403  17.422  0.00  0.00    +0.000 C 
BRANCH  27  28
ATOM     28  C   UNL     1       8.609  10.593  18.385  0.00  0.00    +0.000 C 
ATOM     29  C   UNL     1       9.782  10.554  19.366  0.00  0.00    +0.000 C 
ATOM     30  C   UNL     1       8.669  11.916  17.609  0.00  0.00    +0.000 C 
ENDBRANCH  27  28
ENDBRANCH  24  27
ENDBRANCH   5  23
TORSDOF 6
ENDMDL
MODEL 8
REMARK VINA RESULT:      -6.8      3.530      5.525
REMARK  Name = 
REMARK  9 active torsions:
REMARK  status: ('A' for Active; 'I' for Inactive)
REMARK    1  A    between atoms: C_1  and  C_2
REMARK    2  A    between atoms: C_7  and  N_8
REMARK    3  A    between atoms: C_9  and  C_11
REMARK    4  A    between atoms: C_12  and  C_13
REMARK    5  A    between atoms: C_21  and  N_22
REMARK    6  A    between atoms: C_23  and  C_25
REMARK    7  A    between atoms: C_25  and  C_26
REMARK    8  A    between atoms: C_26  and  C_27
REMARK    9  A    between atoms: C_26  and  C_28
REMARK                            x       y       z     vdW  Elec       q    Type
REMARK                         _______ _______ _______ _____ _____    ______ ____
ROOT
ATOM      1  C   UNL     1      -3.782  12.568  19.928  0.00  0.00    +0.000 A 
ATOM      2  C   UNL     1      -4.540  11.838  18.913  0.00  0.00    +0.000 A 
ATOM      3  C   UNL     1      -5.889  11.845  19.231  0.00  0.00    +0.000 A 
ATOM      4  S   UNL     1      -6.257  12.817  20.590  0.00  0.00    +0.000 S 
ATOM      5  C   UNL     1      -4.620  13.196  20.837  0.00  0.00    +0.000 A 
ENDROOT
BRANCH   2   6
ATOM      6  C   UNL     1      -3.993  11.027  17.803  0.00  0.00    +0.000 A 
ATOM      7  C   UNL     1      -2.935  10.133  18.021  0.00  0.00    +0.000 A 
ATOM      8  C   UNL     1      -2.197   9.631  16.945  0.00  0.00    +0.000 A 
ATOM      9  C   UNL     1      -2.488  10.020  15.643  0.00  0.00    +0.000 A 
ATOM     10  C   UNL     1      -3.583  10.843  15.404  0.00  0.00    +0.000 A 
ATOM     11  C   UNL     1      -4.369  11.285  16.473  0.00  0.00    +0.000 A 
ENDBRANCH   2   6
BRANCH   1  13
ATOM     12  N   UNL     1      -1.661  13.213  19.031  0.00  0.00    +0.000 N 
ATOM     13  C   UNL     1      -2.325  12.602  20.091  0.00  0.00    +0.000 C 
ATOM     14  O   UNL     1      -1.809  12.065  21.065  0.00  0.00    +0.000 OA
ATOM     15  H   UNL     1      -2.232  13.510  18.248  0.00  0.00    +0.000 HD
BRANCH  12  22
ATOM     16  C   UNL     1      -0.539  15.930  19.547  0.00  0.00    +0.000 C 
ATOM     17  C   UNL     1       0.249  14.745  19.097  0.00  0.00    +0.000 A 
ATOM     18  C   UNL     1       1.628  14.944  18.836  0.00  0.00    +0.000 A 
ATOM     19  C   UNL     1       2.457  13.891  18.436  0.00  0.00    +0.000 A 
ATOM     20  C   UNL     1       1.939  12.618  18.326  0.00  0.00    +0.000 A 
ATOM     21  C   UNL     1       0.592  12.391  18.576  0.00  0.00    +0.000 A 
ATOM     22  C   UNL     1      -0.276  13.443  18.905  0.00  0.00    +0.000 A 
ENDBRANCH  12  22
ENDBRANCH   1  13
BRANCH   5  23
ATOM     23  N   UNL     1      -4.318  14.060  21.889  0.00  0.00    +0.000 N 
ATOM     24  C   UNL     1      -4.093  13.496  23.144  0.00  0.00    +0.000 C 
ATOM     25  O   UNL     1      -4.191  12.295  23.397  0.00  0.00    +0.000 OA
ATOM     26  H   UNL     1      -3.688  14.826  21.657  0.00  0.00    +0.000 HD
BRANCH  24  27
ATOM     27  C   UNL     1      -3.587  14.452  24.220  0.00  0.00    +0.000 C 
BRANCH  27  28
ATOM     28  C   UNL     1      -2.071  14.507  24.427  0.00  0.00    +0.000 C 
ATOM     29  C   UNL     1      -1.343  15.153  23.247  0.00  0.00    +0.000 C 
ATOM     30  C   UNL     1      -1.728  15.293  25.700  0.00  0.00    +0.000 C 
ENDBRANCH  27  28
ENDBRANCH  24  27
ENDBRANCH   5  23
TORSDOF 6
ENDMDL
MODEL 9
REMARK VINA RESULT:      -6.8      0.803      1.189
REMARK  Name = 
REMARK  9 active torsions:
REMARK  status: ('A' for Active; 'I' for Inactive)
REMARK    1  A    between atoms: C_1  and  C_2
REMARK    2  A    between atoms: C_7  and  N_8
REMARK    3  A    between atoms: C_9  and  C_11
REMARK    4  A    between atoms: C_12  and  C_13
REMARK    5  A    between atoms: C_21  and  N_22
REMARK    6  A    between atoms: C_23  and  C_25
REMARK    7  A    between atoms: C_25  and  C_26
REMARK    8  A    between atoms: C_26  and  C_27
REMARK    9  A    between atoms: C_26  and  C_28
REMARK                            x       y       z     vdW  Elec       q    Type
REMARK                         _______ _______ _______ _____ _____    ______ ____
ROOT
ATOM      1  C   UNL     1       0.012   9.906  20.601  0.00  0.00    +0.000 A 
ATOM      2  C   UNL     1       0.980   8.817  20.729  0.00  0.00    +0.000 A 
ATOM      3  C   UNL     1       1.361   8.673  22.053  0.00  0.00    +0.000 A 
ATOM      4  S   UNL     1       0.482   9.680  23.122  0.00  0.00    +0.000 S 
ATOM      5  C   UNL     1      -0.378  10.388  21.841  0.00  0.00    +0.000 A 
ENDROOT
BRANCH   2   6
ATOM      6  C   UNL     1       1.641   8.078  19.631  0.00  0.00    +0.000 A 
ATOM      7  C   UNL     1       2.157   6.791  19.839  0.00  0.00    +0.000 A 
ATOM      8  C   UNL     1       3.067   6.235  18.934  0.00  0.00    +0.000 A 
ATOM      9  C   UNL     1       3.487   6.954  17.821  0.00  0.00    +0.000 A 
ATOM     10  C   UNL     1       2.926   8.198  17.558  0.00  0.00    +0.000 A 
ATOM     11  C   UNL     1       1.959   8.723  18.422  0.00  0.00    +0.000 A 
ENDBRANCH   2   6
BRANCH   1  13
ATOM     12  N   UNL     1      -1.629   9.957  18.863  0.00  0.00    +0.000 N 
ATOM     13  C   UNL     1      -0.462  10.528  19.360  0.00  0.00    +0.000 C 
ATOM     14  O   UNL     1       0.197  11.419  18.836  0.00  0.00    +0.000 OA
ATOM     15  H   UNL     1      -1.990   9.153  19.362  0.00  0.00    +0.000 HD
BRANCH  12  22
ATOM     16  C   UNL     1      -3.819  11.971  19.105  0.00  0.00    +0.000 C 
ATOM     17  C   UNL     1      -3.433  11.266  17.847  0.00  0.00    +0.000 A 
ATOM     18  C   UNL     1      -4.210  11.531  16.691  0.00  0.00    +0.000 A 
ATOM     19  C   UNL     1      -3.912  10.941  15.458  0.00  0.00    +0.000 A 
ATOM     20  C   UNL     1      -2.818  10.111  15.345  0.00  0.00    +0.000 A 
ATOM     21  C   UNL     1      -2.037   9.833  16.460  0.00  0.00    +0.000 A 
ATOM     22  C   UNL     1      -2.358  10.352  17.723  0.00  0.00    +0.000 A 
ENDBRANCH  12  22
ENDBRANCH   1  13
BRANCH   5  23
ATOM     23  N   UNL     1      -1.340  11.343  22.171  0.00  0.00    +0.000 N 
ATOM     24  C   UNL     1      -0.937  12.676  22.221  0.00  0.00    +0.000 C 
ATOM     25  O   UNL     1       0.219  13.063  22.043  0.00  0.00    +0.000 OA
ATOM     26  H   UNL     1      -2.257  11.201  21.751  0.00  0.00    +0.000 HD
BRANCH  24  27
ATOM     27  C   UNL     1      -2.052  13.701  22.403  0.00  0.00    +0.000 C 
BRANCH  27  28
ATOM     28  C   UNL     1      -1.653  15.042  23.025  0.00  0.00    +0.000 C 
ATOM     29  C   UNL     1      -2.673  16.146  22.741  0.00  0.00    +0.000 C 
ATOM     30  C   UNL     1      -1.496  14.906  24.546  0.00  0.00    +0.000 C 
ENDBRANCH  27  28
ENDBRANCH  24  27
ENDBRANCH   5  23
TORSDOF 6
ENDMDL
