MODEL 1
REMARK VINA RESULT:      -7.9      0.000      0.000
REMARK  Name = 
REMARK  15 active torsions:
REMARK  status: ('A' for Active; 'I' for Inactive)
REMARK    1  A    between atoms: C_1  and  C_2
REMARK    2  A    between atoms: C_2  and  O_3
REMARK    3  A    between atoms: O_3  and  C_4
REMARK    4  A    between atoms: C_4  and  C_6
REMARK    5  A    between atoms: C_10  and  C_11
REMARK    6  A    between atoms: C_12  and  C_13
REMARK    7  A    between atoms: C_13  and  C_15
REMARK    8  A    between atoms: C_18  and  O_19
REMARK    9  A    between atoms: O_19  and  C_20
REMARK   10  A    between atoms: C_20  and  C_21
REMARK   11  A    between atoms: C_20  and  C_22
REMARK   12  A    between atoms: C_22  and  O_24
REMARK   13  A    between atoms: O_24  and  C_25
REMARK   14  A    between atoms: C_25  and  C_26
REMARK   15  A    between atoms: C_30  and  C_31
REMARK                            x       y       z     vdW  Elec       q    Type
REMARK                         _______ _______ _______ _____ _____    ______ ____
ROOT
ATOM      1  C   UNL     1       0.703   7.561  21.615  0.00  0.00    +0.000 C 
ATOM      2  C   UNL     1       0.805   8.898  21.555  0.00  0.00    +0.000 C 
ENDROOT
BRANCH   1   7
ATOM      3  C   UNL     1       4.522   5.929  16.982  0.00  0.00    +0.000 A 
ATOM      4  C   UNL     1       3.954   6.776  17.861  0.00  0.00    +0.000 A 
ATOM      5  C   UNL     1       2.994   6.300  18.854  0.00  0.00    +0.000 A 
ATOM      6  C   UNL     1       2.346   7.152  19.767  0.00  0.00    +0.000 A 
ATOM      7  C   UNL     1       1.390   6.648  20.674  0.00  0.00    +0.000 A 
ATOM      8  C   UNL     1       1.124   5.267  20.662  0.00  0.00    +0.000 A 
ATOM      9  C   UNL     1       1.763   4.404  19.767  0.00  0.00    +0.000 A 
ATOM     10  C   UNL     1       1.451   2.936  19.773  0.00  0.00    +0.000 C 
ATOM     11  C   UNL     1       2.688   4.944  18.872  0.00  0.00    +0.000 A 
ATOM     12  O   UNL     1       3.304   4.056  17.972  0.00  0.00    +0.000 OA
ATOM     13  C   UNL     1       4.241   4.468  17.022  0.00  0.00    +0.000 A 
ATOM     14  O   UNL     1       4.787   3.638  16.315  0.00  0.00    +0.000 OA
BRANCH   3  15
ATOM     15  C   UNL     1       5.432   6.530  15.979  0.00  0.00    +0.000 C 
ATOM     16  O   UNL     1       5.310   6.377  14.761  0.00  0.00    +0.000 OA
BRANCH  15  17
ATOM     17  O   UNL     1       6.441   7.190  16.588  0.00  0.00    +0.000 OA
BRANCH  17  19
ATOM     18  C   UNL     1       8.015   7.111  18.401  0.00  0.00    +0.000 C 
ATOM     19  C   UNL     1       7.438   6.370  17.211  0.00  0.00    +0.000 C 
ENDBRANCH  17  19
ENDBRANCH  15  17
ENDBRANCH   3  15
ENDBRANCH   1   7
BRANCH   2  20
ATOM     20  C   UNL     1       0.181   9.814  22.552  0.00  0.00    +0.000 C 
ATOM     21  O   UNL     1       0.448   9.788  23.745  0.00  0.00    +0.000 OA
BRANCH  20  22
ATOM     22  C   UNL     1      -0.782  10.802  21.989  0.00  0.00    +0.000 A 
ATOM     23  C   UNL     1      -1.578  11.568  22.842  0.00  0.00    +0.000 A 
ATOM     24  C   UNL     1      -2.412  12.560  22.306  0.00  0.00    +0.000 A 
ATOM     25  C   UNL     1      -2.455  12.802  20.926  0.00  0.00    +0.000 A 
ATOM     26  C   UNL     1      -1.649  12.040  20.083  0.00  0.00    +0.000 A 
ATOM     27  C   UNL     1      -0.834  11.031  20.608  0.00  0.00    +0.000 A 
BRANCH  25  28
ATOM     28  O   UNL     1      -3.365  13.739  20.525  0.00  0.00    +0.000 OA
BRANCH  28  29
ATOM     29  C   UNL     1      -4.638  13.809  21.180  0.00  0.00    +0.000 C 
ATOM     30  C   UNL     1      -5.334  15.145  20.899  0.00  0.00    +0.000 C 
BRANCH  29  31
ATOM     31  C   UNL     1      -5.533  12.685  20.624  0.00  0.00    +0.000 C 
ATOM     32  O   UNL     1      -6.103  11.831  21.289  0.00  0.00    +0.000 OA
BRANCH  31  33
ATOM     33  O   UNL     1      -5.541  12.726  19.252  0.00  0.00    +0.000 OA
BRANCH  33  34
ATOM     34  C   UNL     1      -5.428  11.441  18.620  0.00  0.00    +0.000 C 
ATOM     35  C   UNL     1      -4.313  11.509  17.590  0.00  0.00    +0.000 C 
ENDBRANCH  33  34
ENDBRANCH  31  33
ENDBRANCH  29  31
ENDBRANCH  28  29
ENDBRANCH  25  28
ENDBRANCH  20  22
ENDBRANCH   2  20
TORSDOF 11
ENDMDL
MODEL 2
REMARK VINA RESULT:      -7.6      1.110      1.876
REMARK  Name = 
REMARK  15 active torsions:
REMARK  status: ('A' for Active; 'I' for Inactive)
REMARK    1  A    between atoms: C_1  and  C_2
REMARK    2  A    between atoms: C_2  and  O_3
REMARK    3  A    between atoms: O_3  and  C_4
REMARK    4  A    between atoms: C_4  and  C_6
REMARK    5  A    between atoms: C_10  and  C_11
REMARK    6  A    between atoms: C_12  and  C_13
REMARK    7  A    between atoms: C_13  and  C_15
REMARK    8  A    between atoms: C_18  and  O_19
REMARK    9  A    between atoms: O_19  and  C_20
REMARK   10  A    between atoms: C_20  and  C_21
REMARK   11  A    between atoms: C_20  and  C_22
REMARK   12  A    between atoms: C_22  and  O_24
REMARK   13  A    between atoms: O_24  and  C_25
REMARK   14  A    between atoms: C_25  and  C_26
REMARK   15  A    between atoms: C_30  and  C_31
REMARK                            x       y       z     vdW  Elec       q    Type
REMARK                         _______ _______ _______ _____ _____    ______ ____
ROOT
ATOM      1  C   UNL     1       0.577   7.610  21.494  0.00  0.00    +0.000 C 
ATOM      2  C   UNL     1       1.125   8.729  21.997  0.00  0.00    +0.000 C 
ENDROOT
BRANCH   1   7
ATOM      3  C   UNL     1       4.554   5.870  17.037  0.00  0.00    +0.000 A 
ATOM      4  C   UNL     1       3.949   6.740  17.868  0.00  0.00    +0.000 A 
ATOM      5  C   UNL     1       2.966   6.286  18.849  0.00  0.00    +0.000 A 
ATOM      6  C   UNL     1       2.279   7.160  19.711  0.00  0.00    +0.000 A 
ATOM      7  C   UNL     1       1.303   6.675  20.607  0.00  0.00    +0.000 A 
ATOM      8  C   UNL     1       1.055   5.291  20.636  0.00  0.00    +0.000 A 
ATOM      9  C   UNL     1       1.732   4.406  19.791  0.00  0.00    +0.000 A 
ATOM     10  C   UNL     1       1.439   2.935  19.840  0.00  0.00    +0.000 C 
ATOM     11  C   UNL     1       2.676   4.927  18.906  0.00  0.00    +0.000 A 
ATOM     12  O   UNL     1       3.330   4.017  18.056  0.00  0.00    +0.000 OA
ATOM     13  C   UNL     1       4.291   4.408  17.120  0.00  0.00    +0.000 A 
ATOM     14  O   UNL     1       4.868   3.561  16.460  0.00  0.00    +0.000 OA
BRANCH   3  15
ATOM     15  C   UNL     1       5.486   6.449  16.040  0.00  0.00    +0.000 C 
ATOM     16  O   UNL     1       5.123   7.002  15.000  0.00  0.00    +0.000 OA
BRANCH  15  17
ATOM     17  O   UNL     1       6.767   6.213  16.396  0.00  0.00    +0.000 OA
BRANCH  17  19
ATOM     18  C   UNL     1       7.719   6.377  18.596  0.00  0.00    +0.000 C 
ATOM     19  C   UNL     1       7.333   7.132  17.340  0.00  0.00    +0.000 C 
ENDBRANCH  17  19
ENDBRANCH  15  17
ENDBRANCH   3  15
ENDBRANCH   1   7
BRANCH   2  20
ATOM     20  C   UNL     1       0.421   9.628  22.956  0.00  0.00    +0.000 C 
ATOM     21  O   UNL     1       0.567   9.559  24.168  0.00  0.00    +0.000 OA
BRANCH  20  22
ATOM     22  C   UNL     1      -0.462  10.653  22.332  0.00  0.00    +0.000 A 
ATOM     23  C   UNL     1      -0.422  10.865  20.953  0.00  0.00    +0.000 A 
ATOM     24  C   UNL     1      -1.322  11.765  20.365  0.00  0.00    +0.000 A 
ATOM     25  C   UNL     1      -2.269  12.452  21.138  0.00  0.00    +0.000 A 
ATOM     26  C   UNL     1      -2.308  12.226  22.511  0.00  0.00    +0.000 A 
ATOM     27  C   UNL     1      -1.397  11.350  23.110  0.00  0.00    +0.000 A 
BRANCH  25  28
ATOM     28  O   UNL     1      -3.033  13.357  20.457  0.00  0.00    +0.000 OA
BRANCH  28  29
ATOM     29  C   UNL     1      -3.881  14.253  21.188  0.00  0.00    +0.000 C 
ATOM     30  C   UNL     1      -3.655  15.706  20.756  0.00  0.00    +0.000 C 
BRANCH  29  31
ATOM     31  C   UNL     1      -5.347  13.893  20.881  0.00  0.00    +0.000 C 
ATOM     32  O   UNL     1      -5.777  13.507  19.802  0.00  0.00    +0.000 OA
BRANCH  31  33
ATOM     33  O   UNL     1      -6.133  14.143  21.978  0.00  0.00    +0.000 OA
BRANCH  33  34
ATOM     34  C   UNL     1      -5.646  13.567  23.200  0.00  0.00    +0.000 C 
ATOM     35  C   UNL     1      -6.820  12.950  23.942  0.00  0.00    +0.000 C 
ENDBRANCH  33  34
ENDBRANCH  31  33
ENDBRANCH  29  31
ENDBRANCH  28  29
ENDBRANCH  25  28
ENDBRANCH  20  22
ENDBRANCH   2  20
TORSDOF 11
ENDMDL
MODEL 3
REMARK VINA RESULT:      -7.6      2.224      3.314
REMARK  Name = 
REMARK  15 active torsions:
REMARK  status: ('A' for Active; 'I' for Inactive)
REMARK    1  A    between atoms: C_1  and  C_2
REMARK    2  A    between atoms: C_2  and  O_3
REMARK    3  A    between atoms: O_3  and  C_4
REMARK    4  A    between atoms: C_4  and  C_6
REMARK    5  A    between atoms: C_10  and  C_11
REMARK    6  A    between atoms: C_12  and  C_13
REMARK    7  A    between atoms: C_13  and  C_15
REMARK    8  A    between atoms: C_18  and  O_19
REMARK    9  A    between atoms: O_19  and  C_20
REMARK   10  A    between atoms: C_20  and  C_21
REMARK   11  A    between atoms: C_20  and  C_22
REMARK   12  A    between atoms: C_22  and  O_24
REMARK   13  A    between atoms: O_24  and  C_25
REMARK   14  A    between atoms: C_25  and  C_26
REMARK   15  A    between atoms: C_30  and  C_31
REMARK                            x       y       z     vdW  Elec       q    Type
REMARK                         _______ _______ _______ _____ _____    ______ ____
ROOT
ATOM      1  C   UNL     1       1.608   9.535  18.503  0.00  0.00    +0.000 C 
ATOM      2  C   UNL     1       0.821   9.920  19.521  0.00  0.00    +0.000 C 
ENDROOT
BRANCH   1   7
ATOM      3  C   UNL     1       5.407   5.126  16.304  0.00  0.00    +0.000 A 
ATOM      4  C   UNL     1       4.880   6.363  16.381  0.00  0.00    +0.000 A 
ATOM      5  C   UNL     1       3.867   6.689  17.382  0.00  0.00    +0.000 A 
ATOM      6  C   UNL     1       3.260   7.955  17.476  0.00  0.00    +0.000 A 
ATOM      7  C   UNL     1       2.249   8.204  18.429  0.00  0.00    +0.000 A 
ATOM      8  C   UNL     1       1.887   7.162  19.302  0.00  0.00    +0.000 A 
ATOM      9  C   UNL     1       2.484   5.900  19.228  0.00  0.00    +0.000 A 
ATOM     10  C   UNL     1       2.069   4.807  20.168  0.00  0.00    +0.000 C 
ATOM     11  C   UNL     1       3.465   5.688  18.258  0.00  0.00    +0.000 A 
ATOM     12  O   UNL     1       4.037   4.404  18.195  0.00  0.00    +0.000 OA
ATOM     13  C   UNL     1       5.023   4.058  17.267  0.00  0.00    +0.000 A 
ATOM     14  O   UNL     1       5.525   2.948  17.309  0.00  0.00    +0.000 OA
BRANCH   3  15
ATOM     15  C   UNL     1       6.380   4.889  15.212  0.00  0.00    +0.000 C 
ATOM     16  O   UNL     1       7.276   5.679  14.906  0.00  0.00    +0.000 OA
BRANCH  15  17
ATOM     17  O   UNL     1       6.096   3.739  14.563  0.00  0.00    +0.000 OA
BRANCH  17  19
ATOM     18  C   UNL     1       6.599   3.528  12.223  0.00  0.00    +0.000 C 
ATOM     19  C   UNL     1       5.541   3.883  13.249  0.00  0.00    +0.000 C 
ENDBRANCH  17  19
ENDBRANCH  15  17
ENDBRANCH   3  15
ENDBRANCH   1   7
BRANCH   2  20
ATOM     20  C   UNL     1       0.108  11.230  19.557  0.00  0.00    +0.000 C 
ATOM     21  O   UNL     1       0.643  12.274  19.901  0.00  0.00    +0.000 OA
BRANCH  20  22
ATOM     22  C   UNL     1      -1.312  11.190  19.107  0.00  0.00    +0.000 A 
ATOM     23  C   UNL     1      -2.211  12.165  19.543  0.00  0.00    +0.000 A 
ATOM     24  C   UNL     1      -3.520  12.173  19.040  0.00  0.00    +0.000 A 
ATOM     25  C   UNL     1      -3.941  11.223  18.100  0.00  0.00    +0.000 A 
ATOM     26  C   UNL     1      -3.034  10.260  17.664  0.00  0.00    +0.000 A 
ATOM     27  C   UNL     1      -1.734  10.229  18.180  0.00  0.00    +0.000 A 
BRANCH  25  28
ATOM     28  O   UNL     1      -5.260  11.291  17.751  0.00  0.00    +0.000 OA
BRANCH  28  29
ATOM     29  C   UNL     1      -6.212  11.798  18.695  0.00  0.00    +0.000 C 
ATOM     30  C   UNL     1      -7.418  12.424  17.984  0.00  0.00    +0.000 C 
BRANCH  29  31
ATOM     31  C   UNL     1      -6.727  10.622  19.547  0.00  0.00    +0.000 C 
ATOM     32  O   UNL     1      -7.195   9.578  19.113  0.00  0.00    +0.000 OA
BRANCH  31  33
ATOM     33  O   UNL     1      -6.660  10.941  20.880  0.00  0.00    +0.000 OA
BRANCH  33  34
ATOM     34  C   UNL     1      -7.906  11.372  21.449  0.00  0.00    +0.000 C 
ATOM     35  C   UNL     1      -7.617  12.451  22.479  0.00  0.00    +0.000 C 
ENDBRANCH  33  34
ENDBRANCH  31  33
ENDBRANCH  29  31
ENDBRANCH  28  29
ENDBRANCH  25  28
ENDBRANCH  20  22
ENDBRANCH   2  20
TORSDOF 11
ENDMDL
MODEL 4
REMARK VINA RESULT:      -7.6      6.617     10.825
REMARK  Name = 
REMARK  15 active torsions:
REMARK  status: ('A' for Active; 'I' for Inactive)
REMARK    1  A    between atoms: C_1  and  C_2
REMARK    2  A    between atoms: C_2  and  O_3
REMARK    3  A    between atoms: O_3  and  C_4
REMARK    4  A    between atoms: C_4  and  C_6
REMARK    5  A    between atoms: C_10  and  C_11
REMARK    6  A    between atoms: C_12  and  C_13
REMARK    7  A    between atoms: C_13  and  C_15
REMARK    8  A    between atoms: C_18  and  O_19
REMARK    9  A    between atoms: O_19  and  C_20
REMARK   10  A    between atoms: C_20  and  C_21
REMARK   11  A    between atoms: C_20  and  C_22
REMARK   12  A    between atoms: C_22  and  O_24
REMARK   13  A    between atoms: O_24  and  C_25
REMARK   14  A    between atoms: C_25  and  C_26
REMARK   15  A    between atoms: C_30  and  C_31
REMARK                            x       y       z     vdW  Elec       q    Type
REMARK                         _______ _______ _______ _____ _____    ______ ____
ROOT
ATOM      1  C   UNL     1       8.770   8.791  18.260  0.00  0.00    +0.000 C 
ATOM      2  C   UNL     1       7.582   8.605  17.661  0.00  0.00    +0.000 C 
ENDROOT
BRANCH   1   7
ATOM      3  C   UNL     1       9.120  13.442  22.378  0.00  0.00    +0.000 A 
ATOM      4  C   UNL     1       8.746  12.230  21.928  0.00  0.00    +0.000 A 
ATOM      5  C   UNL     1       9.189  11.739  20.625  0.00  0.00    +0.000 A 
ATOM      6  C   UNL     1       8.793  10.497  20.096  0.00  0.00    +0.000 A 
ATOM      7  C   UNL     1       9.210  10.092  18.810  0.00  0.00    +0.000 A 
ATOM      8  C   UNL     1      10.056  10.950  18.084  0.00  0.00    +0.000 A 
ATOM      9  C   UNL     1      10.465  12.185  18.596  0.00  0.00    +0.000 A 
ATOM     10  C   UNL     1      11.362  13.081  17.792  0.00  0.00    +0.000 C 
ATOM     11  C   UNL     1      10.015  12.558  19.863  0.00  0.00    +0.000 A 
ATOM     12  O   UNL     1      10.429  13.812  20.347  0.00  0.00    +0.000 OA
ATOM     13  C   UNL     1      10.044  14.308  21.595  0.00  0.00    +0.000 A 
ATOM     14  O   UNL     1      10.491  15.373  21.984  0.00  0.00    +0.000 OA
BRANCH   3  15
ATOM     15  C   UNL     1       8.561  13.864  23.684  0.00  0.00    +0.000 C 
ATOM     16  O   UNL     1       8.087  14.981  23.900  0.00  0.00    +0.000 OA
BRANCH  15  17
ATOM     17  O   UNL     1       8.718  12.889  24.605  0.00  0.00    +0.000 OA
BRANCH  17  19
ATOM     18  C   UNL     1       7.690  13.019  26.773  0.00  0.00    +0.000 C 
ATOM     19  C   UNL     1       7.542  12.533  25.345  0.00  0.00    +0.000 C 
ENDBRANCH  17  19
ENDBRANCH  15  17
ENDBRANCH   3  15
ENDBRANCH   1   7
BRANCH   2  20
ATOM     20  C   UNL     1       7.104   7.277  17.181  0.00  0.00    +0.000 C 
ATOM     21  O   UNL     1       7.679   6.632  16.315  0.00  0.00    +0.000 OA
BRANCH  20  22
ATOM     22  C   UNL     1       5.881   6.761  17.857  0.00  0.00    +0.000 A 
ATOM     23  C   UNL     1       4.617   7.143  17.404  0.00  0.00    +0.000 A 
ATOM     24  C   UNL     1       3.473   6.580  17.986  0.00  0.00    +0.000 A 
ATOM     25  C   UNL     1       3.575   5.631  19.012  0.00  0.00    +0.000 A 
ATOM     26  C   UNL     1       4.841   5.247  19.451  0.00  0.00    +0.000 A 
ATOM     27  C   UNL     1       5.986   5.824  18.893  0.00  0.00    +0.000 A 
BRANCH  25  28
ATOM     28  O   UNL     1       2.388   5.219  19.548  0.00  0.00    +0.000 OA
BRANCH  28  29
ATOM     29  C   UNL     1       2.070   3.821  19.562  0.00  0.00    +0.000 C 
ATOM     30  C   UNL     1       0.867   3.535  20.468  0.00  0.00    +0.000 C 
BRANCH  29  31
ATOM     31  C   UNL     1       1.694   3.394  18.131  0.00  0.00    +0.000 C 
ATOM     32  O   UNL     1       1.040   4.056  17.337  0.00  0.00    +0.000 OA
BRANCH  31  33
ATOM     33  O   UNL     1       2.132   2.116  17.890  0.00  0.00    +0.000 OA
BRANCH  33  34
ATOM     34  C   UNL     1       3.544   1.929  18.068  0.00  0.00    +0.000 C 
ATOM     35  C   UNL     1       4.273   2.730  17.002  0.00  0.00    +0.000 C 
ENDBRANCH  33  34
ENDBRANCH  31  33
ENDBRANCH  29  31
ENDBRANCH  28  29
ENDBRANCH  25  28
ENDBRANCH  20  22
ENDBRANCH   2  20
TORSDOF 11
ENDMDL
MODEL 5
REMARK VINA RESULT:      -7.5      2.544     10.804
REMARK  Name = 
REMARK  15 active torsions:
REMARK  status: ('A' for Active; 'I' for Inactive)
REMARK    1  A    between atoms: C_1  and  C_2
REMARK    2  A    between atoms: C_2  and  O_3
REMARK    3  A    between atoms: O_3  and  C_4
REMARK    4  A    between atoms: C_4  and  C_6
REMARK    5  A    between atoms: C_10  and  C_11
REMARK    6  A    between atoms: C_12  and  C_13
REMARK    7  A    between atoms: C_13  and  C_15
REMARK    8  A    between atoms: C_18  and  O_19
REMARK    9  A    between atoms: O_19  and  C_20
REMARK   10  A    between atoms: C_20  and  C_21
REMARK   11  A    between atoms: C_20  and  C_22
REMARK   12  A    between atoms: C_22  and  O_24
REMARK   13  A    between atoms: O_24  and  C_25
REMARK   14  A    between atoms: C_25  and  C_26
REMARK   15  A    between atoms: C_30  and  C_31
REMARK                            x       y       z     vdW  Elec       q    Type
REMARK                         _______ _______ _______ _____ _____    ______ ____
ROOT
ATOM      1  C   UNL     1       2.082   6.974  20.027  0.00  0.00    +0.000 C 
ATOM      2  C   UNL     1       1.423   5.936  20.570  0.00  0.00    +0.000 C 
ENDROOT
BRANCH   1   7
ATOM      3  C   UNL     1      -1.075  11.884  22.181  0.00  0.00    +0.000 A 
ATOM      4  C   UNL     1      -0.580  10.632  22.220  0.00  0.00    +0.000 A 
ATOM      5  C   UNL     1       0.278  10.127  21.150  0.00  0.00    +0.000 A 
ATOM      6  C   UNL     1       0.786   8.816  21.127  0.00  0.00    +0.000 A 
ATOM      7  C   UNL     1       1.570   8.362  20.046  0.00  0.00    +0.000 A 
ATOM      8  C   UNL     1       1.855   9.265  19.005  0.00  0.00    +0.000 A 
ATOM      9  C   UNL     1       1.364  10.574  19.014  0.00  0.00    +0.000 A 
ATOM     10  C   UNL     1       1.679  11.511  17.885  0.00  0.00    +0.000 C 
ATOM     11  C   UNL     1       0.576  10.978  20.093  0.00  0.00    +0.000 A 
ATOM     12  O   UNL     1       0.082  12.295  20.068  0.00  0.00    +0.000 OA
ATOM     13  C   UNL     1      -0.724  12.822  21.080  0.00  0.00    +0.000 A 
ATOM     14  O   UNL     1      -1.064  13.992  21.031  0.00  0.00    +0.000 OA
BRANCH   3  15
ATOM     15  C   UNL     1      -1.984  12.269  23.285  0.00  0.00    +0.000 C 
ATOM     16  O   UNL     1      -3.094  11.765  23.470  0.00  0.00    +0.000 OA
BRANCH  15  17
ATOM     17  O   UNL     1      -1.461  13.291  23.998  0.00  0.00    +0.000 OA
BRANCH  17  19
ATOM     18  C   UNL     1      -1.638  15.379  25.173  0.00  0.00    +0.000 C 
ATOM     19  C   UNL     1      -2.379  14.325  24.375  0.00  0.00    +0.000 C 
ENDBRANCH  17  19
ENDBRANCH  15  17
ENDBRANCH   3  15
ENDBRANCH   1   7
BRANCH   2  20
ATOM     20  C   UNL     1       1.976   4.552  20.624  0.00  0.00    +0.000 C 
ATOM     21  O   UNL     1       1.679   3.746  21.494  0.00  0.00    +0.000 OA
BRANCH  20  22
ATOM     22  C   UNL     1       2.905   4.197  19.515  0.00  0.00    +0.000 A 
ATOM     23  C   UNL     1       2.398   3.867  18.257  0.00  0.00    +0.000 A 
ATOM     24  C   UNL     1       3.283   3.626  17.196  0.00  0.00    +0.000 A 
ATOM     25  C   UNL     1       4.670   3.719  17.373  0.00  0.00    +0.000 A 
ATOM     26  C   UNL     1       5.166   4.060  18.629  0.00  0.00    +0.000 A 
ATOM     27  C   UNL     1       4.292   4.276  19.699  0.00  0.00    +0.000 A 
BRANCH  25  28
ATOM     28  O   UNL     1       5.423   3.384  16.283  0.00  0.00    +0.000 OA
BRANCH  28  29
ATOM     29  C   UNL     1       6.127   4.410  15.572  0.00  0.00    +0.000 C 
ATOM     30  C   UNL     1       5.204   5.589  15.243  0.00  0.00    +0.000 C 
BRANCH  29  31
ATOM     31  C   UNL     1       7.259   4.937  16.475  0.00  0.00    +0.000 C 
ATOM     32  O   UNL     1       8.102   4.251  17.037  0.00  0.00    +0.000 OA
BRANCH  31  33
ATOM     33  O   UNL     1       7.146   6.296  16.628  0.00  0.00    +0.000 OA
BRANCH  33  34
ATOM     34  C   UNL     1       7.656   6.798  17.873  0.00  0.00    +0.000 C 
ATOM     35  C   UNL     1       7.923   8.285  17.719  0.00  0.00    +0.000 C 
ENDBRANCH  33  34
ENDBRANCH  31  33
ENDBRANCH  29  31
ENDBRANCH  28  29
ENDBRANCH  25  28
ENDBRANCH  20  22
ENDBRANCH   2  20
TORSDOF 11
ENDMDL
MODEL 6
REMARK VINA RESULT:      -7.4      2.274     11.527
REMARK  Name = 
REMARK  15 active torsions:
REMARK  status: ('A' for Active; 'I' for Inactive)
REMARK    1  A    between atoms: C_1  and  C_2
REMARK    2  A    between atoms: C_2  and  O_3
REMARK    3  A    between atoms: O_3  and  C_4
REMARK    4  A    between atoms: C_4  and  C_6
REMARK    5  A    between atoms: C_10  and  C_11
REMARK    6  A    between atoms: C_12  and  C_13
REMARK    7  A    between atoms: C_13  and  C_15
REMARK    8  A    between atoms: C_18  and  O_19
REMARK    9  A    between atoms: O_19  and  C_20
REMARK   10  A    between atoms: C_20  and  C_21
REMARK   11  A    between atoms: C_20  and  C_22
REMARK   12  A    between atoms: C_22  and  O_24
REMARK   13  A    between atoms: O_24  and  C_25
REMARK   14  A    between atoms: C_25  and  C_26
REMARK   15  A    between atoms: C_30  and  C_31
REMARK                            x       y       z     vdW  Elec       q    Type
REMARK                         _______ _______ _______ _____ _____    ______ ____
ROOT
ATOM      1  C   UNL     1       1.498   8.310  21.186  0.00  0.00    +0.000 C 
ATOM      2  C   UNL     1       1.191   7.225  20.455  0.00  0.00    +0.000 C 
ENDROOT
BRANCH   1   7
ATOM      3  C   UNL     1      -2.767  12.498  22.912  0.00  0.00    +0.000 A 
ATOM      4  C   UNL     1      -2.048  11.365  23.021  0.00  0.00    +0.000 A 
ATOM      5  C   UNL     1      -0.994  11.045  22.061  0.00  0.00    +0.000 A 
ATOM      6  C   UNL     1      -0.244   9.856  22.111  0.00  0.00    +0.000 A 
ATOM      7  C   UNL     1       0.730   9.573  21.130  0.00  0.00    +0.000 A 
ATOM      8  C   UNL     1       0.951  10.525  20.117  0.00  0.00    +0.000 A 
ATOM      9  C   UNL     1       0.219  11.715  20.056  0.00  0.00    +0.000 A 
ATOM     10  C   UNL     1       0.473  12.706  18.958  0.00  0.00    +0.000 C 
ATOM     11  C   UNL     1      -0.748  11.948  21.034  0.00  0.00    +0.000 A 
ATOM     12  O   UNL     1      -1.481  13.145  20.938  0.00  0.00    +0.000 OA
ATOM     13  C   UNL     1      -2.482  13.497  21.847  0.00  0.00    +0.000 A 
ATOM     14  O   UNL     1      -3.033  14.579  21.746  0.00  0.00    +0.000 OA
BRANCH   3  15
ATOM     15  C   UNL     1      -3.852  12.690  23.903  0.00  0.00    +0.000 C 
ATOM     16  O   UNL     1      -3.660  12.966  25.089  0.00  0.00    +0.000 OA
BRANCH  15  17
ATOM     17  O   UNL     1      -5.057  12.444  23.342  0.00  0.00    +0.000 OA
BRANCH  17  19
ATOM     18  C   UNL     1      -7.451  12.269  23.449  0.00  0.00    +0.000 C 
ATOM     19  C   UNL     1      -6.198  12.751  24.154  0.00  0.00    +0.000 C 
ENDBRANCH  17  19
ENDBRANCH  15  17
ENDBRANCH   3  15
ENDBRANCH   1   7
BRANCH   2  20
ATOM     20  C   UNL     1       1.915   5.926  20.572  0.00  0.00    +0.000 C 
ATOM     21  O   UNL     1       1.782   5.169  21.523  0.00  0.00    +0.000 OA
BRANCH  20  22
ATOM     22  C   UNL     1       2.800   5.589  19.422  0.00  0.00    +0.000 A 
ATOM     23  C   UNL     1       3.114   4.256  19.148  0.00  0.00    +0.000 A 
ATOM     24  C   UNL     1       3.869   3.944  18.009  0.00  0.00    +0.000 A 
ATOM     25  C   UNL     1       4.310   4.946  17.134  0.00  0.00    +0.000 A 
ATOM     26  C   UNL     1       3.983   6.271  17.410  0.00  0.00    +0.000 A 
ATOM     27  C   UNL     1       3.252   6.595  18.558  0.00  0.00    +0.000 A 
BRANCH  25  28
ATOM     28  O   UNL     1       5.104   4.518  16.107  0.00  0.00    +0.000 OA
BRANCH  28  29
ATOM     29  C   UNL     1       6.363   5.162  15.877  0.00  0.00    +0.000 C 
ATOM     30  C   UNL     1       7.453   4.593  16.793  0.00  0.00    +0.000 C 
BRANCH  29  31
ATOM     31  C   UNL     1       6.786   4.894  14.420  0.00  0.00    +0.000 C 
ATOM     32  O   UNL     1       7.841   5.244  13.907  0.00  0.00    +0.000 OA
BRANCH  31  33
ATOM     33  O   UNL     1       5.771   4.266  13.742  0.00  0.00    +0.000 OA
BRANCH  33  34
ATOM     34  C   UNL     1       6.204   3.471  12.628  0.00  0.00    +0.000 C 
ATOM     35  C   UNL     1       5.008   3.213  11.727  0.00  0.00    +0.000 C 
ENDBRANCH  33  34
ENDBRANCH  31  33
ENDBRANCH  29  31
ENDBRANCH  28  29
ENDBRANCH  25  28
ENDBRANCH  20  22
ENDBRANCH   2  20
TORSDOF 11
ENDMDL
MODEL 7
REMARK VINA RESULT:      -7.4      3.069     10.001
REMARK  Name = 
REMARK  15 active torsions:
REMARK  status: ('A' for Active; 'I' for Inactive)
REMARK    1  A    between atoms: C_1  and  C_2
REMARK    2  A    between atoms: C_2  and  O_3
REMARK    3  A    between atoms: O_3  and  C_4
REMARK    4  A    between atoms: C_4  and  C_6
REMARK    5  A    between atoms: C_10  and  C_11
REMARK    6  A    between atoms: C_12  and  C_13
REMARK    7  A    between atoms: C_13  and  C_15
REMARK    8  A    between atoms: C_18  and  O_19
REMARK    9  A    between atoms: O_19  and  C_20
REMARK   10  A    between atoms: C_20  and  C_21
REMARK   11  A    between atoms: C_20  and  C_22
REMARK   12  A    between atoms: C_22  and  O_24
REMARK   13  A    between atoms: O_24  and  C_25
REMARK   14  A    between atoms: C_25  and  C_26
REMARK   15  A    between atoms: C_30  and  C_31
REMARK                            x       y       z     vdW  Elec       q    Type
REMARK                         _______ _______ _______ _____ _____    ______ ____
ROOT
ATOM      1  C   UNL     1       1.801   6.678  20.226  0.00  0.00    +0.000 C 
ATOM      2  C   UNL     1       1.227   5.538  20.646  0.00  0.00    +0.000 C 
ENDROOT
BRANCH   1   7
ATOM      3  C   UNL     1       0.977  12.830  19.787  0.00  0.00    +0.000 A 
ATOM      4  C   UNL     1       1.364  11.612  19.363  0.00  0.00    +0.000 A 
ATOM      5  C   UNL     1       1.126  10.420  20.174  0.00  0.00    +0.000 A 
ATOM      6  C   UNL     1       1.547   9.133  19.791  0.00  0.00    +0.000 A 
ATOM      7  C   UNL     1       1.336   8.022  20.634  0.00  0.00    +0.000 A 
ATOM      8  C   UNL     1       0.667   8.230  21.854  0.00  0.00    +0.000 A 
ATOM      9  C   UNL     1       0.235   9.500  22.248  0.00  0.00    +0.000 A 
ATOM     10  C   UNL     1      -0.468   9.690  23.560  0.00  0.00    +0.000 C 
ATOM     11  C   UNL     1       0.481  10.577  21.395  0.00  0.00    +0.000 A 
ATOM     12  O   UNL     1       0.051  11.846  21.824  0.00  0.00    +0.000 OA
ATOM     13  C   UNL     1       0.241  13.006  21.069  0.00  0.00    +0.000 A 
ATOM     14  O   UNL     1      -0.214  14.064  21.467  0.00  0.00    +0.000 OA
BRANCH   3  15
ATOM     15  C   UNL     1       1.325  13.975  18.914  0.00  0.00    +0.000 C 
ATOM     16  O   UNL     1       0.529  14.522  18.148  0.00  0.00    +0.000 OA
BRANCH  15  17
ATOM     17  O   UNL     1       2.638  14.273  19.023  0.00  0.00    +0.000 OA
BRANCH  17  19
ATOM     18  C   UNL     1       3.712  15.989  17.728  0.00  0.00    +0.000 C 
ATOM     19  C   UNL     1       3.326  14.525  17.790  0.00  0.00    +0.000 C 
ENDBRANCH  17  19
ENDBRANCH  15  17
ENDBRANCH   3  15
ENDBRANCH   1   7
BRANCH   2  20
ATOM     20  C   UNL     1       1.746   4.183  20.300  0.00  0.00    +0.000 C 
ATOM     21  O   UNL     1       1.405   3.166  20.886  0.00  0.00    +0.000 OA
BRANCH  20  22
ATOM     22  C   UNL     1       2.698   4.143  19.155  0.00  0.00    +0.000 A 
ATOM     23  C   UNL     1       4.074   4.115  19.389  0.00  0.00    +0.000 A 
ATOM     24  C   UNL     1       4.957   3.982  18.308  0.00  0.00    +0.000 A 
ATOM     25  C   UNL     1       4.483   3.869  16.994  0.00  0.00    +0.000 A 
ATOM     26  C   UNL     1       3.108   3.887  16.771  0.00  0.00    +0.000 A 
ATOM     27  C   UNL     1       2.221   4.046  17.841  0.00  0.00    +0.000 A 
BRANCH  25  28
ATOM     28  O   UNL     1       5.447   3.825  16.026  0.00  0.00    +0.000 OA
BRANCH  28  29
ATOM     29  C   UNL     1       6.031   5.049  15.560  0.00  0.00    +0.000 C 
ATOM     30  C   UNL     1       5.089   6.236  15.790  0.00  0.00    +0.000 C 
BRANCH  29  31
ATOM     31  C   UNL     1       7.320   5.308  16.363  0.00  0.00    +0.000 C 
ATOM     32  O   UNL     1       8.030   4.451  16.871  0.00  0.00    +0.000 OA
BRANCH  31  33
ATOM     33  O   UNL     1       7.525   6.658  16.500  0.00  0.00    +0.000 OA
BRANCH  33  34
ATOM     34  C   UNL     1       7.651   7.104  17.859  0.00  0.00    +0.000 C 
ATOM     35  C   UNL     1       7.998   8.584  17.850  0.00  0.00    +0.000 C 
ENDBRANCH  33  34
ENDBRANCH  31  33
ENDBRANCH  29  31
ENDBRANCH  28  29
ENDBRANCH  25  28
ENDBRANCH  20  22
ENDBRANCH   2  20
TORSDOF 11
ENDMDL
MODEL 8
REMARK VINA RESULT:      -7.3      3.212     10.637
REMARK  Name = 
REMARK  15 active torsions:
REMARK  status: ('A' for Active; 'I' for Inactive)
REMARK    1  A    between atoms: C_1  and  C_2
REMARK    2  A    between atoms: C_2  and  O_3
REMARK    3  A    between atoms: O_3  and  C_4
REMARK    4  A    between atoms: C_4  and  C_6
REMARK    5  A    between atoms: C_10  and  C_11
REMARK    6  A    between atoms: C_12  and  C_13
REMARK    7  A    between atoms: C_13  and  C_15
REMARK    8  A    between atoms: C_18  and  O_19
REMARK    9  A    between atoms: O_19  and  C_20
REMARK   10  A    between atoms: C_20  and  C_21
REMARK   11  A    between atoms: C_20  and  C_22
REMARK   12  A    between atoms: C_22  and  O_24
REMARK   13  A    between atoms: O_24  and  C_25
REMARK   14  A    between atoms: C_25  and  C_26
REMARK   15  A    between atoms: C_30  and  C_31
REMARK                            x       y       z     vdW  Elec       q    Type
REMARK                         _______ _______ _______ _____ _____    ______ ____
ROOT
ATOM      1  C   UNL     1       1.022   8.240  21.557  0.00  0.00    +0.000 C 
ATOM      2  C   UNL     1       1.571   7.710  20.451  0.00  0.00    +0.000 C 
ENDROOT
BRANCH   1   7
ATOM      3  C   UNL     1       1.085  14.372  20.506  0.00  0.00    +0.000 A 
ATOM      4  C   UNL     1       1.504  13.100  20.365  0.00  0.00    +0.000 A 
ATOM      5  C   UNL     1       0.809  11.999  21.028  0.00  0.00    +0.000 A 
ATOM      6  C   UNL     1       1.232  10.660  20.942  0.00  0.00    +0.000 A 
ATOM      7  C   UNL     1       0.554   9.640  21.642  0.00  0.00    +0.000 A 
ATOM      8  C   UNL     1      -0.575   9.994  22.404  0.00  0.00    +0.000 A 
ATOM      9  C   UNL     1      -1.015  11.318  22.495  0.00  0.00    +0.000 A 
ATOM     10  C   UNL     1      -2.217  11.664  23.324  0.00  0.00    +0.000 C 
ATOM     11  C   UNL     1      -0.304  12.300  21.804  0.00  0.00    +0.000 A 
ATOM     12  O   UNL     1      -0.758  13.626  21.927  0.00  0.00    +0.000 OA
ATOM     13  C   UNL     1      -0.134  14.703  21.293  0.00  0.00    +0.000 A 
ATOM     14  O   UNL     1      -0.616  15.819  21.386  0.00  0.00    +0.000 OA
BRANCH   3  15
ATOM     15  C   UNL     1       1.902  15.414  19.841  0.00  0.00    +0.000 C 
ATOM     16  O   UNL     1       2.480  16.322  20.442  0.00  0.00    +0.000 OA
BRANCH  15  17
ATOM     17  O   UNL     1       1.855  15.270  18.499  0.00  0.00    +0.000 OA
BRANCH  17  19
ATOM     18  C   UNL     1       3.328  16.507  17.058  0.00  0.00    +0.000 C 
ATOM     19  C   UNL     1       3.123  15.219  17.831  0.00  0.00    +0.000 C 
ENDBRANCH  17  19
ENDBRANCH  15  17
ENDBRANCH   3  15
ENDBRANCH   1   7
BRANCH   2  20
ATOM     20  C   UNL     1       1.967   6.277  20.338  0.00  0.00    +0.000 C 
ATOM     21  O   UNL     1       1.672   5.433  21.172  0.00  0.00    +0.000 OA
BRANCH  20  22
ATOM     22  C   UNL     1       2.731   5.926  19.108  0.00  0.00    +0.000 A 
ATOM     23  C   UNL     1       3.366   6.926  18.370  0.00  0.00    +0.000 A 
ATOM     24  C   UNL     1       4.159   6.575  17.268  0.00  0.00    +0.000 A 
ATOM     25  C   UNL     1       4.334   5.234  16.899  0.00  0.00    +0.000 A 
ATOM     26  C   UNL     1       3.706   4.242  17.649  0.00  0.00    +0.000 A 
ATOM     27  C   UNL     1       2.891   4.585  18.733  0.00  0.00    +0.000 A 
BRANCH  25  28
ATOM     28  O   UNL     1       5.065   5.031  15.762  0.00  0.00    +0.000 OA
BRANCH  28  29
ATOM     29  C   UNL     1       6.458   5.366  15.753  0.00  0.00    +0.000 C 
ATOM     30  C   UNL     1       7.228   4.562  16.807  0.00  0.00    +0.000 C 
BRANCH  29  31
ATOM     31  C   UNL     1       7.036   5.004  14.371  0.00  0.00    +0.000 C 
ATOM     32  O   UNL     1       8.003   5.533  13.841  0.00  0.00    +0.000 OA
BRANCH  31  33
ATOM     33  O   UNL     1       6.258   4.045  13.772  0.00  0.00    +0.000 OA
BRANCH  33  34
ATOM     34  C   UNL     1       6.645   3.722  12.428  0.00  0.00    +0.000 C 
ATOM     35  C   UNL     1       5.599   2.792  11.836  0.00  0.00    +0.000 C 
ENDBRANCH  33  34
ENDBRANCH  31  33
ENDBRANCH  29  31
ENDBRANCH  28  29
ENDBRANCH  25  28
ENDBRANCH  20  22
ENDBRANCH   2  20
TORSDOF 11
ENDMDL
MODEL 9
REMARK VINA RESULT:      -7.3      2.802      4.922
REMARK  Name = 
REMARK  15 active torsions:
REMARK  status: ('A' for Active; 'I' for Inactive)
REMARK    1  A    between atoms: C_1  and  C_2
REMARK    2  A    between atoms: C_2  and  O_3
REMARK    3  A    between atoms: O_3  and  C_4
REMARK    4  A    between atoms: C_4  and  C_6
REMARK    5  A    between atoms: C_10  and  C_11
REMARK    6  A    between atoms: C_12  and  C_13
REMARK    7  A    between atoms: C_13  and  C_15
REMARK    8  A    between atoms: C_18  and  O_19
REMARK    9  A    between atoms: O_19  and  C_20
REMARK   10  A    between atoms: C_20  and  C_21
REMARK   11  A    between atoms: C_20  and  C_22
REMARK   12  A    between atoms: C_22  and  O_24
REMARK   13  A    between atoms: O_24  and  C_25
REMARK   14  A    between atoms: C_25  and  C_26
REMARK   15  A    between atoms: C_30  and  C_31
REMARK                            x       y       z     vdW  Elec       q    Type
REMARK                         _______ _______ _______ _____ _____    ______ ____
ROOT
ATOM      1  C   UNL     1       3.219   5.952  19.087  0.00  0.00    +0.000 C 
ATOM      2  C   UNL     1       2.609   7.072  19.507  0.00  0.00    +0.000 C 
ENDROOT
BRANCH   1   7
ATOM      3  C   UNL     1       6.209   4.393  13.858  0.00  0.00    +0.000 A 
ATOM      4  C   UNL     1       5.169   4.422  14.713  0.00  0.00    +0.000 A 
ATOM      5  C   UNL     1       5.232   5.194  15.951  0.00  0.00    +0.000 A 
ATOM      6  C   UNL     1       4.188   5.223  16.893  0.00  0.00    +0.000 A 
ATOM      7  C   UNL     1       4.319   5.946  18.098  0.00  0.00    +0.000 A 
ATOM      8  C   UNL     1       5.511   6.662  18.318  0.00  0.00    +0.000 A 
ATOM      9  C   UNL     1       6.556   6.651  17.390  0.00  0.00    +0.000 A 
ATOM     10  C   UNL     1       7.818   7.418  17.658  0.00  0.00    +0.000 C 
ATOM     11  C   UNL     1       6.395   5.907  16.220  0.00  0.00    +0.000 A 
ATOM     12  O   UNL     1       7.470   5.899  15.312  0.00  0.00    +0.000 OA
ATOM     13  C   UNL     1       7.440   5.191  14.108  0.00  0.00    +0.000 A 
ATOM     14  O   UNL     1       8.378   5.279  13.334  0.00  0.00    +0.000 OA
BRANCH   3  15
ATOM     15  C   UNL     1       6.060   3.527  12.665  0.00  0.00    +0.000 C 
ATOM     16  O   UNL     1       6.996   3.193  11.936  0.00  0.00    +0.000 OA
BRANCH  15  17
ATOM     17  O   UNL     1       4.759   3.229  12.454  0.00  0.00    +0.000 OA
BRANCH  17  19
ATOM     18  C   UNL     1       3.485   3.756  10.486  0.00  0.00    +0.000 C 
ATOM     19  C   UNL     1       4.430   2.766  11.137  0.00  0.00    +0.000 C 
ENDBRANCH  17  19
ENDBRANCH  15  17
ENDBRANCH   3  15
ENDBRANCH   1   7
BRANCH   2  20
ATOM     20  C   UNL     1       1.557   7.085  20.564  0.00  0.00    +0.000 C 
ATOM     21  O   UNL     1       1.292   6.114  21.258  0.00  0.00    +0.000 OA
BRANCH  20  22
ATOM     22  C   UNL     1       0.859   8.389  20.747  0.00  0.00    +0.000 A 
ATOM     23  C   UNL     1       0.256   8.695  21.968  0.00  0.00    +0.000 A 
ATOM     24  C   UNL     1      -0.316   9.961  22.159  0.00  0.00    +0.000 A 
ATOM     25  C   UNL     1      -0.285  10.931  21.148  0.00  0.00    +0.000 A 
ATOM     26  C   UNL     1       0.329  10.620  19.936  0.00  0.00    +0.000 A 
ATOM     27  C   UNL     1       0.878   9.351  19.728  0.00  0.00    +0.000 A 
BRANCH  25  28
ATOM     28  O   UNL     1      -0.945  12.093  21.431  0.00  0.00    +0.000 OA
BRANCH  28  29
ATOM     29  C   UNL     1      -0.259  13.138  22.132  0.00  0.00    +0.000 C 
ATOM     30  C   UNL     1       0.022  14.331  21.211  0.00  0.00    +0.000 C 
BRANCH  29  31
ATOM     31  C   UNL     1      -1.165  13.631  23.277  0.00  0.00    +0.000 C 
ATOM     32  O   UNL     1      -0.866  14.476  24.110  0.00  0.00    +0.000 OA
BRANCH  31  33
ATOM     33  O   UNL     1      -2.342  12.927  23.283  0.00  0.00    +0.000 OA
BRANCH  33  34
ATOM     34  C   UNL     1      -3.508  13.718  23.007  0.00  0.00    +0.000 C 
ATOM     35  C   UNL     1      -4.514  12.850  22.269  0.00  0.00    +0.000 C 
ENDBRANCH  33  34
ENDBRANCH  31  33
ENDBRANCH  29  31
ENDBRANCH  28  29
ENDBRANCH  25  28
ENDBRANCH  20  22
ENDBRANCH   2  20
TORSDOF 11
ENDMDL
