MODEL 1
REMARK VINA RESULT:      -7.8      0.000      0.000
REMARK  Name = 
REMARK  1 active torsions:
REMARK  status: ('A' for Active; 'I' for Inactive)
REMARK    1  A    between atoms: C_7  and  C_8
REMARK                            x       y       z     vdW  Elec       q    Type
REMARK                         _______ _______ _______ _____ _____    ______ ____
ROOT
ATOM      1  N   UNL     1       7.841   5.447  14.269  0.00  0.00    +0.000 NA
ATOM      2  C   UNL     1       7.008   5.065  15.160  0.00  0.00    +0.000 C 
ATOM      3  N   UNL     1       7.311   5.029  16.476  0.00  0.00    +0.000 N 
ATOM      4  C   UNL     1       6.279   4.473  17.196  0.00  0.00    +0.000 C 
ATOM      5  O   UNL     1       6.297   4.214  18.383  0.00  0.00    +0.000 OA
ATOM      6  C   UNL     1       5.192   4.213  16.173  0.00  0.00    +0.000 C 
ATOM      7  C   UNL     1       3.989   3.673  16.413  0.00  0.00    +0.000 C 
ATOM      8  N   UNL     1       5.740   4.625  14.988  0.00  0.00    +0.000 N 
ATOM      9  H   UNL     1       8.728   5.707  14.709  0.00  0.00    +0.000 HD
ATOM     10  H   UNL     1       8.186   5.273  16.906  0.00  0.00    +0.000 HD
ATOM     11  H   UNL     1       5.312   4.497  14.085  0.00  0.00    +0.000 HD
ENDROOT
BRANCH   7  12
ATOM     12  C   UNL     1       3.506   3.261  17.685  0.00  0.00    +0.000 A 
ATOM     13  C   UNL     1       3.525   1.959  18.129  0.00  0.00    +0.000 A 
ATOM     14  N   UNL     1       3.049   1.957  19.414  0.00  0.00    +0.000 N 
ATOM     15  C   UNL     1       2.688   3.232  19.793  0.00  0.00    +0.000 A 
ATOM     16  C   UNL     1       2.167   3.695  21.008  0.00  0.00    +0.000 A 
ATOM     17  C   UNL     1       1.896   5.062  21.116  0.00  0.00    +0.000 A 
ATOM     18  C   UNL     1       2.141   5.922  20.047  0.00  0.00    +0.000 A 
ATOM     19 BR   UNL     1       1.754   7.766  20.229  0.00  0.00    +0.000 Br
ATOM     20  C   UNL     1       2.670   5.451  18.842  0.00  0.00    +0.000 A 
ATOM     21  C   UNL     1       2.953   4.076  18.713  0.00  0.00    +0.000 A 
ATOM     22  H   UNL     1       2.984   1.143  20.007  0.00  0.00    +0.000 HD
ENDBRANCH   7  12
TORSDOF 1
ENDMDL
MODEL 2
REMARK VINA RESULT:      -7.5      2.534      3.470
REMARK  Name = 
REMARK  1 active torsions:
REMARK  status: ('A' for Active; 'I' for Inactive)
REMARK    1  A    between atoms: C_7  and  C_8
REMARK                            x       y       z     vdW  Elec       q    Type
REMARK                         _______ _______ _______ _____ _____    ______ ____
ROOT
ATOM      1  N   UNL     1       8.962   9.586  18.409  0.00  0.00    +0.000 NA
ATOM      2  C   UNL     1       8.248   8.544  18.213  0.00  0.00    +0.000 C 
ATOM      3  N   UNL     1       8.442   7.388  18.883  0.00  0.00    +0.000 N 
ATOM      4  C   UNL     1       7.615   6.401  18.397  0.00  0.00    +0.000 C 
ATOM      5  O   UNL     1       7.630   5.232  18.727  0.00  0.00    +0.000 OA
ATOM      6  C   UNL     1       6.767   7.092  17.347  0.00  0.00    +0.000 C 
ATOM      7  C   UNL     1       5.812   6.522  16.600  0.00  0.00    +0.000 C 
ATOM      8  N   UNL     1       7.227   8.381  17.338  0.00  0.00    +0.000 N 
ATOM      9  H   UNL     1       9.666   9.395  19.126  0.00  0.00    +0.000 HD
ATOM     10  H   UNL     1       9.142   7.198  19.578  0.00  0.00    +0.000 HD
ATOM     11  H   UNL     1       6.942   9.084  16.677  0.00  0.00    +0.000 HD
ENDROOT
BRANCH   7  12
ATOM     12  C   UNL     1       5.405   5.162  16.670  0.00  0.00    +0.000 A 
ATOM     13  C   UNL     1       5.943   4.159  15.899  0.00  0.00    +0.000 A 
ATOM     14  N   UNL     1       5.359   2.982  16.291  0.00  0.00    +0.000 N 
ATOM     15  C   UNL     1       4.427   3.216  17.278  0.00  0.00    +0.000 A 
ATOM     16  C   UNL     1       3.606   2.317  17.971  0.00  0.00    +0.000 A 
ATOM     17  C   UNL     1       2.746   2.842  18.941  0.00  0.00    +0.000 A 
ATOM     18  C   UNL     1       2.718   4.211  19.199  0.00  0.00    +0.000 A 
ATOM     19 BR   UNL     1       1.534   4.884  20.515  0.00  0.00    +0.000 Br
ATOM     20  C   UNL     1       3.547   5.098  18.509  0.00  0.00    +0.000 A 
ATOM     21  C   UNL     1       4.424   4.589  17.528  0.00  0.00    +0.000 A 
ATOM     22  H   UNL     1       5.588   2.070  15.923  0.00  0.00    +0.000 HD
ENDBRANCH   7  12
TORSDOF 1
ENDMDL
MODEL 3
REMARK VINA RESULT:      -7.5      2.879      4.008
REMARK  Name = 
REMARK  1 active torsions:
REMARK  status: ('A' for Active; 'I' for Inactive)
REMARK    1  A    between atoms: C_7  and  C_8
REMARK                            x       y       z     vdW  Elec       q    Type
REMARK                         _______ _______ _______ _____ _____    ______ ____
ROOT
ATOM      1  N   UNL     1       9.217   9.893  18.962  0.00  0.00    +0.000 NA
ATOM      2  C   UNL     1       8.581   8.872  18.532  0.00  0.00    +0.000 C 
ATOM      3  N   UNL     1       7.715   8.933  17.497  0.00  0.00    +0.000 N 
ATOM      4  C   UNL     1       7.088   7.721  17.317  0.00  0.00    +0.000 C 
ATOM      5  O   UNL     1       6.186   7.495  16.535  0.00  0.00    +0.000 OA
ATOM      6  C   UNL     1       7.726   6.802  18.339  0.00  0.00    +0.000 C 
ATOM      7  C   UNL     1       7.430   5.511  18.538  0.00  0.00    +0.000 C 
ATOM      8  N   UNL     1       8.621   7.602  18.999  0.00  0.00    +0.000 N 
ATOM      9  H   UNL     1       8.966  10.718  18.412  0.00  0.00    +0.000 HD
ATOM     10  H   UNL     1       7.460   9.746  16.965  0.00  0.00    +0.000 HD
ATOM     11  H   UNL     1       9.144   7.323  19.812  0.00  0.00    +0.000 HD
ENDROOT
BRANCH   7  12
ATOM     12  C   UNL     1       6.470   4.758  17.807  0.00  0.00    +0.000 A 
ATOM     13  C   UNL     1       6.738   4.120  16.619  0.00  0.00    +0.000 A 
ATOM     14  N   UNL     1       5.602   3.446  16.251  0.00  0.00    +0.000 N 
ATOM     15  C   UNL     1       4.595   3.669  17.165  0.00  0.00    +0.000 A 
ATOM     16  C   UNL     1       3.283   3.181  17.195  0.00  0.00    +0.000 A 
ATOM     17  C   UNL     1       2.471   3.573  18.263  0.00  0.00    +0.000 A 
ATOM     18  C   UNL     1       2.961   4.421  19.255  0.00  0.00    +0.000 A 
ATOM     19 BR   UNL     1       1.828   4.937  20.681  0.00  0.00    +0.000 Br
ATOM     20  C   UNL     1       4.275   4.896  19.221  0.00  0.00    +0.000 A 
ATOM     21  C   UNL     1       5.112   4.509  18.153  0.00  0.00    +0.000 A 
ATOM     22  H   UNL     1       5.516   2.856  15.437  0.00  0.00    +0.000 HD
ENDBRANCH   7  12
TORSDOF 1
ENDMDL
MODEL 4
REMARK VINA RESULT:      -7.4      1.293      1.483
REMARK  Name = 
REMARK  1 active torsions:
REMARK  status: ('A' for Active; 'I' for Inactive)
REMARK    1  A    between atoms: C_7  and  C_8
REMARK                            x       y       z     vdW  Elec       q    Type
REMARK                         _______ _______ _______ _____ _____    ______ ____
ROOT
ATOM      1  N   UNL     1       8.012   5.271  13.559  0.00  0.00    +0.000 NA
ATOM      2  C   UNL     1       7.207   5.189  14.548  0.00  0.00    +0.000 C 
ATOM      3  N   UNL     1       7.443   5.789  15.734  0.00  0.00    +0.000 N 
ATOM      4  C   UNL     1       6.478   5.445  16.653  0.00  0.00    +0.000 C 
ATOM      5  O   UNL     1       6.476   5.744  17.831  0.00  0.00    +0.000 OA
ATOM      6  C   UNL     1       5.502   4.581  15.880  0.00  0.00    +0.000 C 
ATOM      7  C   UNL     1       4.391   4.011  16.366  0.00  0.00    +0.000 C 
ATOM      8  N   UNL     1       6.036   4.513  14.621  0.00  0.00    +0.000 N 
ATOM      9  H   UNL     1       8.821   5.843  13.815  0.00  0.00    +0.000 HD
ATOM     10  H   UNL     1       8.244   6.341  15.988  0.00  0.00    +0.000 HD
ATOM     11  H   UNL     1       5.682   3.929  13.881  0.00  0.00    +0.000 HD
ENDROOT
BRANCH   7  12
ATOM     12  C   UNL     1       3.915   4.128  17.701  0.00  0.00    +0.000 A 
ATOM     13  C   UNL     1       4.039   3.141  18.649  0.00  0.00    +0.000 A 
ATOM     14  N   UNL     1       3.533   3.635  19.823  0.00  0.00    +0.000 N 
ATOM     15  C   UNL     1       3.053   4.913  19.638  0.00  0.00    +0.000 A 
ATOM     16  C   UNL     1       2.464   5.795  20.553  0.00  0.00    +0.000 A 
ATOM     17  C   UNL     1       2.072   7.051  20.081  0.00  0.00    +0.000 A 
ATOM     18  C   UNL     1       2.265   7.401  18.746  0.00  0.00    +0.000 A 
ATOM     19 BR   UNL     1       1.714   9.108  18.143  0.00  0.00    +0.000 Br
ATOM     20  C   UNL     1       2.863   6.517  17.843  0.00  0.00    +0.000 A 
ATOM     21  C   UNL     1       3.268   5.246  18.299  0.00  0.00    +0.000 A 
ATOM     22  H   UNL     1       3.526   3.144  20.705  0.00  0.00    +0.000 HD
ENDBRANCH   7  12
TORSDOF 1
ENDMDL
MODEL 5
REMARK VINA RESULT:      -7.3      1.268      1.690
REMARK  Name = 
REMARK  1 active torsions:
REMARK  status: ('A' for Active; 'I' for Inactive)
REMARK    1  A    between atoms: C_7  and  C_8
REMARK                            x       y       z     vdW  Elec       q    Type
REMARK                         _______ _______ _______ _____ _____    ______ ____
ROOT
ATOM      1  N   UNL     1       7.724   5.366  14.184  0.00  0.00    +0.000 NA
ATOM      2  C   UNL     1       6.984   4.974  15.149  0.00  0.00    +0.000 C 
ATOM      3  N   UNL     1       5.749   4.459  14.960  0.00  0.00    +0.000 N 
ATOM      4  C   UNL     1       5.131   4.226  16.167  0.00  0.00    +0.000 C 
ATOM      5  O   UNL     1       3.981   3.863  16.320  0.00  0.00    +0.000 OA
ATOM      6  C   UNL     1       6.172   4.585  17.208  0.00  0.00    +0.000 C 
ATOM      7  C   UNL     1       6.019   4.518  18.537  0.00  0.00    +0.000 C 
ATOM      8  N   UNL     1       7.249   5.005  16.476  0.00  0.00    +0.000 N 
ATOM      9  H   UNL     1       7.239   5.227  13.294  0.00  0.00    +0.000 HD
ATOM     10  H   UNL     1       5.270   4.333  14.085  0.00  0.00    +0.000 HD
ATOM     11  H   UNL     1       8.083   5.412  16.868  0.00  0.00    +0.000 HD
ENDROOT
BRANCH   7  12
ATOM     12  C   UNL     1       4.850   4.077  19.216  0.00  0.00    +0.000 A 
ATOM     13  C   UNL     1       4.653   2.786  19.647  0.00  0.00    +0.000 A 
ATOM     14  N   UNL     1       3.457   2.755  20.314  0.00  0.00    +0.000 N 
ATOM     15  C   UNL     1       2.862   3.997  20.290  0.00  0.00    +0.000 A 
ATOM     16  C   UNL     1       1.649   4.425  20.846  0.00  0.00    +0.000 A 
ATOM     17  C   UNL     1       1.294   5.765  20.668  0.00  0.00    +0.000 A 
ATOM     18  C   UNL     1       2.123   6.633  19.961  0.00  0.00    +0.000 A 
ATOM     19 BR   UNL     1       1.603   8.439  19.735  0.00  0.00    +0.000 Br
ATOM     20  C   UNL     1       3.335   6.198  19.418  0.00  0.00    +0.000 A 
ATOM     21  C   UNL     1       3.715   4.851  19.589  0.00  0.00    +0.000 A 
ATOM     22  H   UNL     1       3.070   1.943  20.774  0.00  0.00    +0.000 HD
ENDBRANCH   7  12
TORSDOF 1
ENDMDL
MODEL 6
REMARK VINA RESULT:      -6.9      1.557      2.030
REMARK  Name = 
REMARK  1 active torsions:
REMARK  status: ('A' for Active; 'I' for Inactive)
REMARK    1  A    between atoms: C_7  and  C_8
REMARK                            x       y       z     vdW  Elec       q    Type
REMARK                         _______ _______ _______ _____ _____    ______ ____
ROOT
ATOM      1  N   UNL     1       7.837   5.002  14.580  0.00  0.00    +0.000 NA
ATOM      2  C   UNL     1       6.937   5.112  15.480  0.00  0.00    +0.000 C 
ATOM      3  N   UNL     1       7.164   5.707  16.671  0.00  0.00    +0.000 N 
ATOM      4  C   UNL     1       6.065   5.587  17.490  0.00  0.00    +0.000 C 
ATOM      5  O   UNL     1       6.003   5.930  18.655  0.00  0.00    +0.000 OA
ATOM      6  C   UNL     1       5.023   4.890  16.638  0.00  0.00    +0.000 C 
ATOM      7  C   UNL     1       3.782   4.558  17.016  0.00  0.00    +0.000 C 
ATOM      8  N   UNL     1       5.657   4.671  15.444  0.00  0.00    +0.000 N 
ATOM      9  H   UNL     1       8.710   5.423  14.907  0.00  0.00    +0.000 HD
ATOM     10  H   UNL     1       8.026   6.109  16.996  0.00  0.00    +0.000 HD
ATOM     11  H   UNL     1       5.274   4.134  14.684  0.00  0.00    +0.000 HD
ENDROOT
BRANCH   7  12
ATOM     12  C   UNL     1       3.207   4.817  18.291  0.00  0.00    +0.000 A 
ATOM     13  C   UNL     1       3.132   3.889  19.303  0.00  0.00    +0.000 A 
ATOM     14  N   UNL     1       2.585   4.515  20.393  0.00  0.00    +0.000 N 
ATOM     15  C   UNL     1       2.274   5.822  20.089  0.00  0.00    +0.000 A 
ATOM     16  C   UNL     1       1.711   6.823  20.891  0.00  0.00    +0.000 A 
ATOM     17  C   UNL     1       1.509   8.079  20.312  0.00  0.00    +0.000 A 
ATOM     18  C   UNL     1       1.859   8.314  18.984  0.00  0.00    +0.000 A 
ATOM     19 BR   UNL     1       1.563  10.026  18.233  0.00  0.00    +0.000 Br
ATOM     20  C   UNL     1       2.428   7.311  18.194  0.00  0.00    +0.000 A 
ATOM     21  C   UNL     1       2.643   6.037  18.760  0.00  0.00    +0.000 A 
ATOM     22  H   UNL     1       2.444   4.088  21.297  0.00  0.00    +0.000 HD
ENDBRANCH   7  12
TORSDOF 1
ENDMDL
MODEL 7
REMARK VINA RESULT:      -6.8      2.178      2.697
REMARK  Name = 
REMARK  1 active torsions:
REMARK  status: ('A' for Active; 'I' for Inactive)
REMARK    1  A    between atoms: C_7  and  C_8
REMARK                            x       y       z     vdW  Elec       q    Type
REMARK                         _______ _______ _______ _____ _____    ______ ____
ROOT
ATOM      1  N   UNL     1       7.703   4.729  12.157  0.00  0.00    +0.000 NA
ATOM      2  C   UNL     1       7.246   4.676  13.349  0.00  0.00    +0.000 C 
ATOM      3  N   UNL     1       6.308   3.783  13.733  0.00  0.00    +0.000 N 
ATOM      4  C   UNL     1       5.916   4.020  15.031  0.00  0.00    +0.000 C 
ATOM      5  O   UNL     1       5.018   3.450  15.619  0.00  0.00    +0.000 OA
ATOM      6  C   UNL     1       6.797   5.161  15.497  0.00  0.00    +0.000 C 
ATOM      7  C   UNL     1       6.774   5.737  16.707  0.00  0.00    +0.000 C 
ATOM      8  N   UNL     1       7.567   5.460  14.406  0.00  0.00    +0.000 N 
ATOM      9  H   UNL     1       7.254   4.013  11.580  0.00  0.00    +0.000 HD
ATOM     10  H   UNL     1       5.860   3.088  13.162  0.00  0.00    +0.000 HD
ATOM     11  H   UNL     1       8.196   6.244  14.347  0.00  0.00    +0.000 HD
ENDROOT
BRANCH   7  12
ATOM     12  C   UNL     1       5.924   5.366  17.785  0.00  0.00    +0.000 A 
ATOM     13  C   UNL     1       6.186   4.326  18.645  0.00  0.00    +0.000 A 
ATOM     14  N   UNL     1       5.192   4.316  19.589  0.00  0.00    +0.000 N 
ATOM     15  C   UNL     1       4.275   5.311  19.330  0.00  0.00    +0.000 A 
ATOM     16  C   UNL     1       3.116   5.670  20.030  0.00  0.00    +0.000 A 
ATOM     17  C   UNL     1       2.368   6.742  19.535  0.00  0.00    +0.000 A 
ATOM     18  C   UNL     1       2.771   7.420  18.387  0.00  0.00    +0.000 A 
ATOM     19 BR   UNL     1       1.727   8.862  17.743  0.00  0.00    +0.000 Br
ATOM     20  C   UNL     1       3.934   7.060  17.701  0.00  0.00    +0.000 A 
ATOM     21  C   UNL     1       4.706   5.983  18.185  0.00  0.00    +0.000 A 
ATOM     22  H   UNL     1       5.143   3.682  20.374  0.00  0.00    +0.000 HD
ENDBRANCH   7  12
TORSDOF 1
ENDMDL
MODEL 8
REMARK VINA RESULT:      -6.8      2.855      6.169
REMARK  Name = 
REMARK  1 active torsions:
REMARK  status: ('A' for Active; 'I' for Inactive)
REMARK    1  A    between atoms: C_7  and  C_8
REMARK                            x       y       z     vdW  Elec       q    Type
REMARK                         _______ _______ _______ _____ _____    ______ ____
ROOT
ATOM      1  N   UNL     1       0.815   2.886  20.783  0.00  0.00    +0.000 NA
ATOM      2  C   UNL     1       1.786   3.294  20.060  0.00  0.00    +0.000 C 
ATOM      3  N   UNL     1       3.043   2.815  20.189  0.00  0.00    +0.000 N 
ATOM      4  C   UNL     1       3.910   3.505  19.372  0.00  0.00    +0.000 C 
ATOM      5  O   UNL     1       5.118   3.373  19.343  0.00  0.00    +0.000 OA
ATOM      6  C   UNL     1       3.031   4.472  18.606  0.00  0.00    +0.000 C 
ATOM      7  C   UNL     1       3.439   5.358  17.687  0.00  0.00    +0.000 C 
ATOM      8  N   UNL     1       1.772   4.241  19.093  0.00  0.00    +0.000 N 
ATOM      9  H   UNL     1       1.143   2.171  21.437  0.00  0.00    +0.000 HD
ATOM     10  H   UNL     1       3.366   2.122  20.840  0.00  0.00    +0.000 HD
ATOM     11  H   UNL     1       0.961   4.790  18.863  0.00  0.00    +0.000 HD
ENDROOT
BRANCH   7  12
ATOM     12  C   UNL     1       4.780   5.538  17.249  0.00  0.00    +0.000 A 
ATOM     13  C   UNL     1       5.753   6.163  17.992  0.00  0.00    +0.000 A 
ATOM     14  N   UNL     1       6.923   6.086  17.282  0.00  0.00    +0.000 N 
ATOM     15  C   UNL     1       6.711   5.453  16.077  0.00  0.00    +0.000 A 
ATOM     16  C   UNL     1       7.613   5.151  15.048  0.00  0.00    +0.000 A 
ATOM     17  C   UNL     1       7.114   4.486  13.925  0.00  0.00    +0.000 A 
ATOM     18  C   UNL     1       5.766   4.142  13.842  0.00  0.00    +0.000 A 
ATOM     19 BR   UNL     1       5.127   3.250  12.300  0.00  0.00    +0.000 Br
ATOM     20  C   UNL     1       4.876   4.440  14.878  0.00  0.00    +0.000 A 
ATOM     21  C   UNL     1       5.360   5.108  16.022  0.00  0.00    +0.000 A 
ATOM     22  H   UNL     1       7.818   6.428  17.600  0.00  0.00    +0.000 HD
ENDBRANCH   7  12
TORSDOF 1
ENDMDL
MODEL 9
REMARK VINA RESULT:      -6.7      3.998      5.984
REMARK  Name = 
REMARK  1 active torsions:
REMARK  status: ('A' for Active; 'I' for Inactive)
REMARK    1  A    between atoms: C_7  and  C_8
REMARK                            x       y       z     vdW  Elec       q    Type
REMARK                         _______ _______ _______ _____ _____    ______ ____
ROOT
ATOM      1  N   UNL     1       0.633  10.019  21.932  0.00  0.00    +0.000 NA
ATOM      2  C   UNL     1       1.100   9.068  21.218  0.00  0.00    +0.000 C 
ATOM      3  N   UNL     1       1.468   9.236  19.929  0.00  0.00    +0.000 N 
ATOM      4  C   UNL     1       1.826   8.032  19.366  0.00  0.00    +0.000 C 
ATOM      5  O   UNL     1       2.104   7.846  18.198  0.00  0.00    +0.000 OA
ATOM      6  C   UNL     1       1.723   7.032  20.500  0.00  0.00    +0.000 C 
ATOM      7  C   UNL     1       1.977   5.719  20.424  0.00  0.00    +0.000 C 
ATOM      8  N   UNL     1       1.294   7.775  21.567  0.00  0.00    +0.000 N 
ATOM      9  H   UNL     1       0.592  10.881  21.383  0.00  0.00    +0.000 HD
ATOM     10  H   UNL     1       1.416  10.081  19.387  0.00  0.00    +0.000 HD
ATOM     11  H   UNL     1       1.028   7.393  22.459  0.00  0.00    +0.000 HD
ENDROOT
BRANCH   7  12
ATOM     12  C   UNL     1       2.411   5.025  19.261  0.00  0.00    +0.000 A 
ATOM     13  C   UNL     1       1.571   4.327  18.425  0.00  0.00    +0.000 A 
ATOM     14  N   UNL     1       2.327   3.856  17.384  0.00  0.00    +0.000 N 
ATOM     15  C   UNL     1       3.648   4.210  17.553  0.00  0.00    +0.000 A 
ATOM     16  C   UNL     1       4.759   3.952  16.740  0.00  0.00    +0.000 A 
ATOM     17  C   UNL     1       5.997   4.445  17.162  0.00  0.00    +0.000 A 
ATOM     18  C   UNL     1       6.109   5.164  18.350  0.00  0.00    +0.000 A 
ATOM     19 BR   UNL     1       7.805   5.808  18.892  0.00  0.00    +0.000 Br
ATOM     20  C   UNL     1       4.992   5.423  19.150  0.00  0.00    +0.000 A 
ATOM     21  C   UNL     1       3.733   4.938  18.741  0.00  0.00    +0.000 A 
ATOM     22  H   UNL     1       1.969   3.339  16.594  0.00  0.00    +0.000 HD
ENDBRANCH   7  12
TORSDOF 1
ENDMDL
