MODEL 1
REMARK VINA RESULT:      -7.7      0.000      0.000
REMARK  Name = 
REMARK  5 active torsions:
REMARK  status: ('A' for Active; 'I' for Inactive)
REMARK    1  A    between atoms: O_1  and  C_2
REMARK    2  A    between atoms: C_3  and  O_4
REMARK    3  A    between atoms: C_7  and  C_8
REMARK    4  A    between atoms: C_10  and  C_11
REMARK    5  A    between atoms: C_19  and  O_20
REMARK                            x       y       z     vdW  Elec       q    Type
REMARK                         _______ _______ _______ _____ _____    ______ ____
ROOT
ATOM      1  C   UNL     1       2.775   2.556  20.503  0.00  0.00    +0.000 C 
ATOM      2  C   UNL     1       1.574   3.411  20.094  0.00  0.00    +0.000 C 
ATOM      3  C   UNL     1       1.339   3.270  18.595  0.00  0.00    +0.000 C 
ATOM      4  O   UNL     1       2.490   3.684  17.870  0.00  0.00    +0.000 OA
ATOM      5  C   UNL     1       3.657   2.889  18.154  0.00  0.00    +0.000 C 
ATOM      6  C   UNL     1       4.015   2.900  19.661  0.00  0.00    +0.000 C 
ENDROOT
BRANCH   5   7
ATOM      7  C   UNL     1       4.758   3.487  17.333  0.00  0.00    +0.000 A 
ATOM      8  N   UNL     1       4.853   3.521  16.018  0.00  0.00    +0.000 NA
ATOM      9  C   UNL     1       6.050   4.141  15.742  0.00  0.00    +0.000 A 
ATOM     10  C   UNL     1       6.684   4.505  16.909  0.00  0.00    +0.000 A 
ATOM     11  N   UNL     1       5.848   4.097  17.908  0.00  0.00    +0.000 N 
ATOM     12  H   UNL     1       5.976   4.217  18.903  0.00  0.00    +0.000 HD
BRANCH   9  13
ATOM     13  C   UNL     1       6.552   4.341  14.396  0.00  0.00    +0.000 A 
ATOM     14  C   UNL     1       7.557   5.277  14.119  0.00  0.00    +0.000 A 
ATOM     15  C   UNL     1       8.013   5.459  12.811  0.00  0.00    +0.000 A 
ATOM     16  C   UNL     1       7.473   4.703  11.772  0.00  0.00    +0.000 A 
ATOM     17  C   UNL     1       6.476   3.767  12.037  0.00  0.00    +0.000 A 
ATOM     18  C   UNL     1       6.014   3.590  13.343  0.00  0.00    +0.000 A 
ENDBRANCH   9  13
ENDBRANCH   5   7
BRANCH   1  19
ATOM     19  O   UNL     1       3.044   2.751  21.897  0.00  0.00    +0.000 OA
ATOM     20  H   UNL     1       2.208   2.579  22.373  0.00  0.00    +0.000 HD
ENDBRANCH   1  19
BRANCH   2  21
ATOM     21  O   UNL     1       0.426   3.027  20.857  0.00  0.00    +0.000 OA
ATOM     22  H   UNL     1       0.334   3.635  21.611  0.00  0.00    +0.000 HD
ENDBRANCH   2  21
BRANCH   6  23
ATOM     23  O   UNL     1       5.081   1.989  19.967  0.00  0.00    +0.000 OA
ATOM     24  H   UNL     1       5.211   1.379  19.223  0.00  0.00    +0.000 HD
ENDBRANCH   6  23
TORSDOF 5
ENDMDL
MODEL 2
REMARK VINA RESULT:      -7.7      1.272      1.773
REMARK  Name = 
REMARK  5 active torsions:
REMARK  status: ('A' for Active; 'I' for Inactive)
REMARK    1  A    between atoms: O_1  and  C_2
REMARK    2  A    between atoms: C_3  and  O_4
REMARK    3  A    between atoms: C_7  and  C_8
REMARK    4  A    between atoms: C_10  and  C_11
REMARK    5  A    between atoms: C_19  and  O_20
REMARK                            x       y       z     vdW  Elec       q    Type
REMARK                         _______ _______ _______ _____ _____    ______ ____
ROOT
ATOM      1  C   UNL     1       2.258   4.327  20.191  0.00  0.00    +0.000 C 
ATOM      2  C   UNL     1       1.357   3.358  19.424  0.00  0.00    +0.000 C 
ATOM      3  C   UNL     1       2.180   2.167  18.951  0.00  0.00    +0.000 C 
ATOM      4  O   UNL     1       3.243   2.599  18.109  0.00  0.00    +0.000 OA
ATOM      5  C   UNL     1       4.174   3.473  18.775  0.00  0.00    +0.000 C 
ATOM      6  C   UNL     1       3.481   4.733  19.350  0.00  0.00    +0.000 C 
ENDROOT
BRANCH   5   7
ATOM      7  C   UNL     1       5.188   3.842  17.735  0.00  0.00    +0.000 A 
ATOM      8  N   UNL     1       5.047   3.803  16.425  0.00  0.00    +0.000 NA
ATOM      9  C   UNL     1       6.258   4.201  15.903  0.00  0.00    +0.000 A 
ATOM     10  C   UNL     1       7.142   4.503  16.915  0.00  0.00    +0.000 A 
ATOM     11  N   UNL     1       6.447   4.284  18.069  0.00  0.00    +0.000 N 
ATOM     12  H   UNL     1       6.770   4.422  19.017  0.00  0.00    +0.000 HD
BRANCH   9  13
ATOM     13  C   UNL     1       6.532   4.256  14.480  0.00  0.00    +0.000 A 
ATOM     14  C   UNL     1       5.845   3.441  13.570  0.00  0.00    +0.000 A 
ATOM     15  C   UNL     1       6.137   3.504  12.205  0.00  0.00    +0.000 A 
ATOM     16  C   UNL     1       7.113   4.384  11.739  0.00  0.00    +0.000 A 
ATOM     17  C   UNL     1       7.800   5.200  12.636  0.00  0.00    +0.000 A 
ATOM     18  C   UNL     1       7.514   5.132  14.001  0.00  0.00    +0.000 A 
ENDBRANCH   9  13
ENDBRANCH   5   7
BRANCH   1  19
ATOM     19  O   UNL     1       1.500   5.484  20.566  0.00  0.00    +0.000 OA
ATOM     20  H   UNL     1       1.619   5.599  21.530  0.00  0.00    +0.000 HD
ENDBRANCH   1  19
BRANCH   2  21
ATOM     21  O   UNL     1       0.262   2.959  20.254  0.00  0.00    +0.000 OA
ATOM     22  H   UNL     1       0.590   2.821  21.160  0.00  0.00    +0.000 HD
ENDBRANCH   2  21
BRANCH   6  23
ATOM     23  O   UNL     1       4.377   5.526  20.143  0.00  0.00    +0.000 OA
ATOM     24  H   UNL     1       5.124   5.816  19.595  0.00  0.00    +0.000 HD
ENDBRANCH   6  23
TORSDOF 5
ENDMDL
MODEL 3
REMARK VINA RESULT:      -7.7      0.032      1.080
REMARK  Name = 
REMARK  5 active torsions:
REMARK  status: ('A' for Active; 'I' for Inactive)
REMARK    1  A    between atoms: O_1  and  C_2
REMARK    2  A    between atoms: C_3  and  O_4
REMARK    3  A    between atoms: C_7  and  C_8
REMARK    4  A    between atoms: C_10  and  C_11
REMARK    5  A    between atoms: C_19  and  O_20
REMARK                            x       y       z     vdW  Elec       q    Type
REMARK                         _______ _______ _______ _____ _____    ______ ____
ROOT
ATOM      1  C   UNL     1       2.781   2.564  20.508  0.00  0.00    +0.000 C 
ATOM      2  C   UNL     1       1.574   3.408  20.095  0.00  0.00    +0.000 C 
ATOM      3  C   UNL     1       1.333   3.250  18.599  0.00  0.00    +0.000 C 
ATOM      4  O   UNL     1       2.480   3.665  17.865  0.00  0.00    +0.000 OA
ATOM      5  C   UNL     1       3.652   2.880  18.153  0.00  0.00    +0.000 C 
ATOM      6  C   UNL     1       4.016   2.907  19.658  0.00  0.00    +0.000 C 
ENDROOT
BRANCH   5   7
ATOM      7  C   UNL     1       4.746   3.477  17.321  0.00  0.00    +0.000 A 
ATOM      8  N   UNL     1       4.831   3.508  16.006  0.00  0.00    +0.000 NA
ATOM      9  C   UNL     1       6.026   4.129  15.720  0.00  0.00    +0.000 A 
ATOM     10  C   UNL     1       6.668   4.495  16.881  0.00  0.00    +0.000 A 
ATOM     11  N   UNL     1       5.841   4.088  17.887  0.00  0.00    +0.000 N 
ATOM     12  H   UNL     1       5.976   4.210  18.881  0.00  0.00    +0.000 HD
BRANCH   9  13
ATOM     13  C   UNL     1       6.516   4.326  14.369  0.00  0.00    +0.000 A 
ATOM     14  C   UNL     1       6.021   3.577  13.293  0.00  0.00    +0.000 A 
ATOM     15  C   UNL     1       6.520   3.777  12.003  0.00  0.00    +0.000 A 
ATOM     16  C   UNL     1       7.513   4.730  11.778  0.00  0.00    +0.000 A 
ATOM     17  C   UNL     1       8.009   5.482  12.841  0.00  0.00    +0.000 A 
ATOM     18  C   UNL     1       7.517   5.277  14.131  0.00  0.00    +0.000 A 
ENDBRANCH   9  13
ENDBRANCH   5   7
BRANCH   1  19
ATOM     19  O   UNL     1       3.054   2.774  21.899  0.00  0.00    +0.000 OA
ATOM     20  H   UNL     1       2.546   2.100  22.392  0.00  0.00    +0.000 HD
ENDBRANCH   1  19
BRANCH   2  21
ATOM     21  O   UNL     1       0.431   3.023  20.866  0.00  0.00    +0.000 OA
ATOM     22  H   UNL     1      -0.301   2.814  20.258  0.00  0.00    +0.000 HD
ENDBRANCH   2  21
BRANCH   6  23
ATOM     23  O   UNL     1       5.089   2.006  19.969  0.00  0.00    +0.000 OA
ATOM     24  H   UNL     1       5.938   2.432  19.770  0.00  0.00    +0.000 HD
ENDBRANCH   6  23
TORSDOF 5
ENDMDL
MODEL 4
REMARK VINA RESULT:      -7.7      1.311      1.454
REMARK  Name = 
REMARK  5 active torsions:
REMARK  status: ('A' for Active; 'I' for Inactive)
REMARK    1  A    between atoms: O_1  and  C_2
REMARK    2  A    between atoms: C_3  and  O_4
REMARK    3  A    between atoms: C_7  and  C_8
REMARK    4  A    between atoms: C_10  and  C_11
REMARK    5  A    between atoms: C_19  and  O_20
REMARK                            x       y       z     vdW  Elec       q    Type
REMARK                         _______ _______ _______ _____ _____    ______ ____
ROOT
ATOM      1  C   UNL     1       2.273   4.420  20.186  0.00  0.00    +0.000 C 
ATOM      2  C   UNL     1       1.386   3.437  19.421  0.00  0.00    +0.000 C 
ATOM      3  C   UNL     1       2.220   2.241  18.978  0.00  0.00    +0.000 C 
ATOM      4  O   UNL     1       3.293   2.664  18.145  0.00  0.00    +0.000 OA
ATOM      5  C   UNL     1       4.212   3.550  18.810  0.00  0.00    +0.000 C 
ATOM      6  C   UNL     1       3.507   4.816  19.357  0.00  0.00    +0.000 C 
ENDROOT
BRANCH   5   7
ATOM      7  C   UNL     1       5.240   3.906  17.780  0.00  0.00    +0.000 A 
ATOM      8  N   UNL     1       5.109   3.875  16.469  0.00  0.00    +0.000 NA
ATOM      9  C   UNL     1       6.330   4.255  15.959  0.00  0.00    +0.000 A 
ATOM     10  C   UNL     1       7.211   4.538  16.979  0.00  0.00    +0.000 A 
ATOM     11  N   UNL     1       6.504   4.325  18.126  0.00  0.00    +0.000 N 
ATOM     12  H   UNL     1       6.822   4.454  19.076  0.00  0.00    +0.000 HD
BRANCH   9  13
ATOM     13  C   UNL     1       6.616   4.311  14.538  0.00  0.00    +0.000 A 
ATOM     14  C   UNL     1       7.583   5.182  14.019  0.00  0.00    +0.000 A 
ATOM     15  C   UNL     1       7.831   5.226  12.645  0.00  0.00    +0.000 A 
ATOM     16  C   UNL     1       7.118   4.397  11.779  0.00  0.00    +0.000 A 
ATOM     17  C   UNL     1       6.156   3.525  12.286  0.00  0.00    +0.000 A 
ATOM     18  C   UNL     1       5.903   3.487  13.659  0.00  0.00    +0.000 A 
ENDBRANCH   9  13
ENDBRANCH   5   7
BRANCH   1  19
ATOM     19  O   UNL     1       1.508   5.580  20.533  0.00  0.00    +0.000 OA
ATOM     20  H   UNL     1       0.568   5.350  20.395  0.00  0.00    +0.000 HD
ENDBRANCH   1  19
BRANCH   2  21
ATOM     21  O   UNL     1       0.281   3.047  20.241  0.00  0.00    +0.000 OA
ATOM     22  H   UNL     1      -0.330   2.507  19.707  0.00  0.00    +0.000 HD
ENDBRANCH   2  21
BRANCH   6  23
ATOM     23  O   UNL     1       4.390   5.623  20.151  0.00  0.00    +0.000 OA
ATOM     24  H   UNL     1       4.083   5.630  21.072  0.00  0.00    +0.000 HD
ENDBRANCH   6  23
TORSDOF 5
ENDMDL
MODEL 5
REMARK VINA RESULT:      -7.5      1.099      2.205
REMARK  Name = 
REMARK  5 active torsions:
REMARK  status: ('A' for Active; 'I' for Inactive)
REMARK    1  A    between atoms: O_1  and  C_2
REMARK    2  A    between atoms: C_3  and  O_4
REMARK    3  A    between atoms: C_7  and  C_8
REMARK    4  A    between atoms: C_10  and  C_11
REMARK    5  A    between atoms: C_19  and  O_20
REMARK                            x       y       z     vdW  Elec       q    Type
REMARK                         _______ _______ _______ _____ _____    ______ ____
ROOT
ATOM      1  C   UNL     1       1.183   3.148  19.159  0.00  0.00    +0.000 C 
ATOM      2  C   UNL     1       1.833   2.792  20.497  0.00  0.00    +0.000 C 
ATOM      3  C   UNL     1       2.864   3.854  20.859  0.00  0.00    +0.000 C 
ATOM      4  O   UNL     1       3.863   3.939  19.850  0.00  0.00    +0.000 OA
ATOM      5  C   UNL     1       3.341   4.329  18.566  0.00  0.00    +0.000 C 
ATOM      6  C   UNL     1       2.243   3.359  18.065  0.00  0.00    +0.000 C 
ENDROOT
BRANCH   5   7
ATOM      7  C   UNL     1       4.520   4.335  17.641  0.00  0.00    +0.000 A 
ATOM      8  N   UNL     1       4.508   4.359  16.322  0.00  0.00    +0.000 NA
ATOM      9  C   UNL     1       5.827   4.321  15.932  0.00  0.00    +0.000 A 
ATOM     10  C   UNL     1       6.654   4.291  17.033  0.00  0.00    +0.000 A 
ATOM     11  N   UNL     1       5.813   4.314  18.108  0.00  0.00    +0.000 N 
ATOM     12  H   UNL     1       6.067   4.324  19.086  0.00  0.00    +0.000 HD
BRANCH   9  13
ATOM     13  C   UNL     1       6.246   4.290  14.544  0.00  0.00    +0.000 A 
ATOM     14  C   UNL     1       5.596   3.484  13.600  0.00  0.00    +0.000 A 
ATOM     15  C   UNL     1       6.027   3.463  12.271  0.00  0.00    +0.000 A 
ATOM     16  C   UNL     1       7.106   4.251  11.874  0.00  0.00    +0.000 A 
ATOM     17  C   UNL     1       7.757   5.060  12.805  0.00  0.00    +0.000 A 
ATOM     18  C   UNL     1       7.331   5.075  14.134  0.00  0.00    +0.000 A 
ENDBRANCH   9  13
ENDBRANCH   5   7
BRANCH   1  19
ATOM     19  O   UNL     1       0.271   2.109  18.782  0.00  0.00    +0.000 OA
ATOM     20  H   UNL     1      -0.457   2.121  19.435  0.00  0.00    +0.000 HD
ENDBRANCH   1  19
BRANCH   2  21
ATOM     21  O   UNL     1       0.823   2.659  21.503  0.00  0.00    +0.000 OA
ATOM     22  H   UNL     1       0.001   2.351  21.082  0.00  0.00    +0.000 HD
ENDBRANCH   2  21
BRANCH   6  23
ATOM     23  O   UNL     1       1.617   3.829  16.862  0.00  0.00    +0.000 OA
ATOM     24  H   UNL     1       0.669   3.618  16.886  0.00  0.00    +0.000 HD
ENDBRANCH   6  23
TORSDOF 5
ENDMDL
MODEL 6
REMARK VINA RESULT:      -7.3      1.082      2.233
REMARK  Name = 
REMARK  5 active torsions:
REMARK  status: ('A' for Active; 'I' for Inactive)
REMARK    1  A    between atoms: O_1  and  C_2
REMARK    2  A    between atoms: C_3  and  O_4
REMARK    3  A    between atoms: C_7  and  C_8
REMARK    4  A    between atoms: C_10  and  C_11
REMARK    5  A    between atoms: C_19  and  O_20
REMARK                            x       y       z     vdW  Elec       q    Type
REMARK                         _______ _______ _______ _____ _____    ______ ____
ROOT
ATOM      1  C   UNL     1       2.113   3.842  19.639  0.00  0.00    +0.000 C 
ATOM      2  C   UNL     1       2.528   2.515  20.275  0.00  0.00    +0.000 C 
ATOM      3  C   UNL     1       3.973   2.608  20.746  0.00  0.00    +0.000 C 
ATOM      4  O   UNL     1       4.834   2.904  19.653  0.00  0.00    +0.000 OA
ATOM      5  C   UNL     1       4.548   4.171  19.032  0.00  0.00    +0.000 C 
ATOM      6  C   UNL     1       3.088   4.253  18.522  0.00  0.00    +0.000 C 
ENDROOT
BRANCH   5   7
ATOM      7  C   UNL     1       5.523   4.291  17.901  0.00  0.00    +0.000 A 
ATOM      8  N   UNL     1       5.264   4.255  16.608  0.00  0.00    +0.000 NA
ATOM      9  C   UNL     1       6.482   4.372  15.976  0.00  0.00    +0.000 A 
ATOM     10  C   UNL     1       7.494   4.499  16.901  0.00  0.00    +0.000 A 
ATOM     11  N   UNL     1       6.871   4.459  18.115  0.00  0.00    +0.000 N 
ATOM     12  H   UNL     1       7.298   4.545  19.027  0.00  0.00    +0.000 HD
BRANCH   9  13
ATOM     13  C   UNL     1       6.636   4.336  14.535  0.00  0.00    +0.000 A 
ATOM     14  C   UNL     1       5.852   3.495  13.734  0.00  0.00    +0.000 A 
ATOM     15  C   UNL     1       6.030   3.470  12.349  0.00  0.00    +0.000 A 
ATOM     16  C   UNL     1       6.988   4.288  11.752  0.00  0.00    +0.000 A 
ATOM     17  C   UNL     1       7.770   5.131  12.539  0.00  0.00    +0.000 A 
ATOM     18  C   UNL     1       7.599   5.151  13.925  0.00  0.00    +0.000 A 
ENDBRANCH   9  13
ENDBRANCH   5   7
BRANCH   1  19
ATOM     19  O   UNL     1       0.781   3.728  19.126  0.00  0.00    +0.000 OA
ATOM     20  H   UNL     1       0.825   3.128  18.355  0.00  0.00    +0.000 HD
ENDBRANCH   1  19
BRANCH   2  21
ATOM     21  O   UNL     1       1.633   2.193  21.344  0.00  0.00    +0.000 OA
ATOM     22  H   UNL     1       0.724   2.175  20.997  0.00  0.00    +0.000 HD
ENDBRANCH   2  21
BRANCH   6  23
ATOM     23  O   UNL     1       2.758   5.564  18.043  0.00  0.00    +0.000 OA
ATOM     24  H   UNL     1       2.429   6.106  18.779  0.00  0.00    +0.000 HD
ENDBRANCH   6  23
TORSDOF 5
ENDMDL
MODEL 7
REMARK VINA RESULT:      -7.3      1.092      1.970
REMARK  Name = 
REMARK  5 active torsions:
REMARK  status: ('A' for Active; 'I' for Inactive)
REMARK    1  A    between atoms: O_1  and  C_2
REMARK    2  A    between atoms: C_3  and  O_4
REMARK    3  A    between atoms: C_7  and  C_8
REMARK    4  A    between atoms: C_10  and  C_11
REMARK    5  A    between atoms: C_19  and  O_20
REMARK                            x       y       z     vdW  Elec       q    Type
REMARK                         _______ _______ _______ _____ _____    ______ ____
ROOT
ATOM      1  C   UNL     1       2.072   3.850  19.632  0.00  0.00    +0.000 C 
ATOM      2  C   UNL     1       2.472   2.521  20.274  0.00  0.00    +0.000 C 
ATOM      3  C   UNL     1       3.907   2.613  20.778  0.00  0.00    +0.000 C 
ATOM      4  O   UNL     1       4.793   2.911  19.705  0.00  0.00    +0.000 OA
ATOM      5  C   UNL     1       4.520   4.179  19.080  0.00  0.00    +0.000 C 
ATOM      6  C   UNL     1       3.072   4.262  18.538  0.00  0.00    +0.000 C 
ENDROOT
BRANCH   5   7
ATOM      7  C   UNL     1       5.521   4.301  17.970  0.00  0.00    +0.000 A 
ATOM      8  N   UNL     1       5.288   4.291  16.673  0.00  0.00    +0.000 NA
ATOM      9  C   UNL     1       6.520   4.398  16.068  0.00  0.00    +0.000 A 
ATOM     10  C   UNL     1       7.515   4.491  17.015  0.00  0.00    +0.000 A 
ATOM     11  N   UNL     1       6.867   4.441  18.215  0.00  0.00    +0.000 N 
ATOM     12  H   UNL     1       7.276   4.505  19.137  0.00  0.00    +0.000 HD
BRANCH   9  13
ATOM     13  C   UNL     1       6.703   4.383  14.629  0.00  0.00    +0.000 A 
ATOM     14  C   UNL     1       7.639   5.216  14.001  0.00  0.00    +0.000 A 
ATOM     15  C   UNL     1       7.788   5.192  12.612  0.00  0.00    +0.000 A 
ATOM     16  C   UNL     1       7.006   4.333  11.841  0.00  0.00    +0.000 A 
ATOM     17  C   UNL     1       6.075   3.498  12.456  0.00  0.00    +0.000 A 
ATOM     18  C   UNL     1       5.921   3.527  13.844  0.00  0.00    +0.000 A 
ENDBRANCH   9  13
ENDBRANCH   5   7
BRANCH   1  19
ATOM     19  O   UNL     1       0.752   3.737  19.088  0.00  0.00    +0.000 OA
ATOM     20  H   UNL     1       0.257   4.529  19.378  0.00  0.00    +0.000 HD
ENDBRANCH   1  19
BRANCH   2  21
ATOM     21  O   UNL     1       1.555   2.198  21.323  0.00  0.00    +0.000 OA
ATOM     22  H   UNL     1       1.826   1.354  21.728  0.00  0.00    +0.000 HD
ENDBRANCH   2  21
BRANCH   6  23
ATOM     23  O   UNL     1       2.753   5.575  18.053  0.00  0.00    +0.000 OA
ATOM     24  H   UNL     1       3.489   5.910  17.516  0.00  0.00    +0.000 HD
ENDBRANCH   6  23
TORSDOF 5
ENDMDL
MODEL 8
REMARK VINA RESULT:      -7.3      4.652      7.842
REMARK  Name = 
REMARK  5 active torsions:
REMARK  status: ('A' for Active; 'I' for Inactive)
REMARK    1  A    between atoms: O_1  and  C_2
REMARK    2  A    between atoms: C_3  and  O_4
REMARK    3  A    between atoms: C_7  and  C_8
REMARK    4  A    between atoms: C_10  and  C_11
REMARK    5  A    between atoms: C_19  and  O_20
REMARK                            x       y       z     vdW  Elec       q    Type
REMARK                         _______ _______ _______ _____ _____    ______ ____
ROOT
ATOM      1  C   UNL     1       2.248   2.257  19.313  0.00  0.00    +0.000 C 
ATOM      2  C   UNL     1       3.576   2.286  18.554  0.00  0.00    +0.000 C 
ATOM      3  C   UNL     1       4.542   3.229  19.260  0.00  0.00    +0.000 C 
ATOM      4  O   UNL     1       3.998   4.542  19.322  0.00  0.00    +0.000 OA
ATOM      5  C   UNL     1       2.772   4.613  20.073  0.00  0.00    +0.000 C 
ATOM      6  C   UNL     1       1.682   3.675  19.498  0.00  0.00    +0.000 C 
ENDROOT
BRANCH   5   7
ATOM      7  C   UNL     1       2.342   6.048  20.002  0.00  0.00    +0.000 A 
ATOM      8  N   UNL     1       1.635   6.720  20.888  0.00  0.00    +0.000 NA
ATOM      9  C   UNL     1       1.473   7.982  20.362  0.00  0.00    +0.000 A 
ATOM     10  C   UNL     1       2.107   8.081  19.144  0.00  0.00    +0.000 A 
ATOM     11  N   UNL     1       2.664   6.853  18.935  0.00  0.00    +0.000 N 
ATOM     12  H   UNL     1       3.228   6.560  18.149  0.00  0.00    +0.000 HD
BRANCH   9  13
ATOM     13  C   UNL     1       0.709   9.026  21.019  0.00  0.00    +0.000 A 
ATOM     14  C   UNL     1       0.386   8.950  22.380  0.00  0.00    +0.000 A 
ATOM     15  C   UNL     1      -0.362   9.963  22.987  0.00  0.00    +0.000 A 
ATOM     16  C   UNL     1      -0.787  11.060  22.239  0.00  0.00    +0.000 A 
ATOM     17  C   UNL     1      -0.468  11.146  20.885  0.00  0.00    +0.000 A 
ATOM     18  C   UNL     1       0.273  10.130  20.277  0.00  0.00    +0.000 A 
ENDBRANCH   9  13
ENDBRANCH   5   7
BRANCH   1  19
ATOM     19  O   UNL     1       1.315   1.432  18.605  0.00  0.00    +0.000 OA
ATOM     20  H   UNL     1       0.723   1.035  19.275  0.00  0.00    +0.000 HD
ENDBRANCH   1  19
BRANCH   2  21
ATOM     21  O   UNL     1       4.100   0.959  18.450  0.00  0.00    +0.000 OA
ATOM     22  H   UNL     1       3.384   0.360  18.173  0.00  0.00    +0.000 HD
ENDBRANCH   2  21
BRANCH   6  23
ATOM     23  O   UNL     1       0.515   3.630  20.332  0.00  0.00    +0.000 OA
ATOM     24  H   UNL     1       0.528   4.380  20.949  0.00  0.00    +0.000 HD
ENDBRANCH   6  23
TORSDOF 5
ENDMDL
MODEL 9
REMARK VINA RESULT:      -7.3      4.754      7.953
REMARK  Name = 
REMARK  5 active torsions:
REMARK  status: ('A' for Active; 'I' for Inactive)
REMARK    1  A    between atoms: O_1  and  C_2
REMARK    2  A    between atoms: C_3  and  O_4
REMARK    3  A    between atoms: C_7  and  C_8
REMARK    4  A    between atoms: C_10  and  C_11
REMARK    5  A    between atoms: C_19  and  O_20
REMARK                            x       y       z     vdW  Elec       q    Type
REMARK                         _______ _______ _______ _____ _____    ______ ____
ROOT
ATOM      1  C   UNL     1       2.237   2.470  19.212  0.00  0.00    +0.000 C 
ATOM      2  C   UNL     1       3.508   2.536  18.364  0.00  0.00    +0.000 C 
ATOM      3  C   UNL     1       4.500   3.494  19.012  0.00  0.00    +0.000 C 
ATOM      4  O   UNL     1       3.933   4.794  19.126  0.00  0.00    +0.000 OA
ATOM      5  C   UNL     1       2.760   4.830  19.960  0.00  0.00    +0.000 C 
ATOM      6  C   UNL     1       1.654   3.873  19.451  0.00  0.00    +0.000 C 
ENDROOT
BRANCH   5   7
ATOM      7  C   UNL     1       2.296   6.255  19.934  0.00  0.00    +0.000 A 
ATOM      8  N   UNL     1       1.585   6.885  20.848  0.00  0.00    +0.000 NA
ATOM      9  C   UNL     1       1.385   8.157  20.359  0.00  0.00    +0.000 A 
ATOM     10  C   UNL     1       2.000   8.305  19.136  0.00  0.00    +0.000 A 
ATOM     11  N   UNL     1       2.584   7.097  18.886  0.00  0.00    +0.000 N 
ATOM     12  H   UNL     1       3.144   6.840  18.085  0.00  0.00    +0.000 HD
BRANCH   9  13
ATOM     13  C   UNL     1       0.606   9.163  21.055  0.00  0.00    +0.000 A 
ATOM     14  C   UNL     1       0.145  10.314  20.401  0.00  0.00    +0.000 A 
ATOM     15  C   UNL     1      -0.593  11.274  21.097  0.00  0.00    +0.000 A 
ATOM     16  C   UNL     1      -0.880  11.090  22.449  0.00  0.00    +0.000 A 
ATOM     17  C   UNL     1      -0.430   9.948  23.107  0.00  0.00    +0.000 A 
ATOM     18  C   UNL     1       0.315   8.991  22.414  0.00  0.00    +0.000 A 
ENDBRANCH   9  13
ENDBRANCH   5   7
BRANCH   1  19
ATOM     19  O   UNL     1       1.275   1.631  18.561  0.00  0.00    +0.000 OA
ATOM     20  H   UNL     1       0.801   1.145  19.265  0.00  0.00    +0.000 HD
ENDBRANCH   1  19
BRANCH   2  21
ATOM     21  O   UNL     1       4.053   1.222  18.210  0.00  0.00    +0.000 OA
ATOM     22  H   UNL     1       3.476   0.712  17.614  0.00  0.00    +0.000 HD
ENDBRANCH   2  21
BRANCH   6  23
ATOM     23  O   UNL     1       0.549   3.794  20.363  0.00  0.00    +0.000 OA
ATOM     24  H   UNL     1       0.427   4.652  20.801  0.00  0.00    +0.000 HD
ENDBRANCH   6  23
TORSDOF 5
ENDMDL
