MODEL 1
REMARK VINA RESULT:      -7.5      0.000      0.000
REMARK  Name = 
REMARK  4 active torsions:
REMARK  status: ('A' for Active; 'I' for Inactive)
REMARK    1  A    between atoms: C_1  and  N_2
REMARK    2  A    between atoms: N_2  and  C_3
REMARK    3  A    between atoms: C_6  and  C_7
REMARK    4  A    between atoms: C_18  and  C_19
REMARK                            x       y       z     vdW  Elec       q    Type
REMARK                         _______ _______ _______ _____ _____    ______ ____
ROOT
ATOM      1  C   UNL     1       4.960   4.581  16.736  0.00  0.00    +0.000 A 
ATOM      2  C   UNL     1       5.166   5.958  16.569  0.00  0.00    +0.000 A 
ATOM      3  C   UNL     1       4.351   6.905  17.196  0.00  0.00    +0.000 A 
ATOM      4  C   UNL     1       3.269   6.509  17.990  0.00  0.00    +0.000 A 
ATOM      5  C   UNL     1       3.015   5.133  18.105  0.00  0.00    +0.000 A 
ATOM      6  C   UNL     1       3.834   4.168  17.481  0.00  0.00    +0.000 A 
ATOM      7  C   UNL     1       3.473   2.714  17.640  0.00  0.00    +0.000 C 
ENDROOT
BRANCH   4   8
ATOM      8  C   UNL     1       2.438   7.471  18.731  0.00  0.00    +0.000 A 
ATOM      9  N   UNL     1       2.107   7.336  20.002  0.00  0.00    +0.000 NA
ATOM     10  C   UNL     1       1.409   8.449  20.442  0.00  0.00    +0.000 A 
ATOM     11  C   UNL     1       0.954   8.671  21.756  0.00  0.00    +0.000 A 
ATOM     12  C   UNL     1       0.280   9.854  22.046  0.00  0.00    +0.000 A 
ATOM     13  F   UNL     1      -0.147  10.075  23.296  0.00  0.00    +0.000 F 
ATOM     14  C   UNL     1       0.041  10.815  21.071  0.00  0.00    +0.000 A 
ATOM     15  C   UNL     1       0.478  10.611  19.760  0.00  0.00    +0.000 A 
ATOM     16  C   UNL     1       1.163   9.420  19.470  0.00  0.00    +0.000 A 
ATOM     17  S   UNL     1       1.825   8.893  17.976  0.00  0.00    +0.000 S 
ENDBRANCH   4   8
BRANCH   1  19
ATOM     18  C   UNL     1       6.150   3.921  14.710  0.00  0.00    +0.000 C 
ATOM     19  N   UNL     1       5.787   3.641  16.093  0.00  0.00    +0.000 N 
ATOM     20  H   UNL     1       6.605   3.414  16.651  0.00  0.00    +0.000 HD
ENDBRANCH   1  19
TORSDOF 2
ENDMDL
MODEL 2
REMARK VINA RESULT:      -7.1      0.555      1.587
REMARK  Name = 
REMARK  4 active torsions:
REMARK  status: ('A' for Active; 'I' for Inactive)
REMARK    1  A    between atoms: C_1  and  N_2
REMARK    2  A    between atoms: N_2  and  C_3
REMARK    3  A    between atoms: C_6  and  C_7
REMARK    4  A    between atoms: C_18  and  C_19
REMARK                            x       y       z     vdW  Elec       q    Type
REMARK                         _______ _______ _______ _____ _____    ______ ____
ROOT
ATOM      1  C   UNL     1       5.111   4.512  16.763  0.00  0.00    +0.000 A 
ATOM      2  C   UNL     1       3.796   4.167  17.109  0.00  0.00    +0.000 A 
ATOM      3  C   UNL     1       2.955   5.057  17.783  0.00  0.00    +0.000 A 
ATOM      4  C   UNL     1       3.410   6.321  18.172  0.00  0.00    +0.000 A 
ATOM      5  C   UNL     1       4.746   6.647  17.891  0.00  0.00    +0.000 A 
ATOM      6  C   UNL     1       5.603   5.759  17.206  0.00  0.00    +0.000 A 
ATOM      7  C   UNL     1       7.028   6.184  16.967  0.00  0.00    +0.000 C 
ENDROOT
BRANCH   4   8
ATOM      8  C   UNL     1       2.533   7.316  18.810  0.00  0.00    +0.000 A 
ATOM      9  N   UNL     1       2.151   7.262  20.073  0.00  0.00    +0.000 NA
ATOM     10  C   UNL     1       1.417   8.387  20.406  0.00  0.00    +0.000 A 
ATOM     11  C   UNL     1       0.904   8.691  21.682  0.00  0.00    +0.000 A 
ATOM     12  C   UNL     1       0.199   9.877  21.862  0.00  0.00    +0.000 A 
ATOM     13  F   UNL     1      -0.282  10.175  23.076  0.00  0.00    +0.000 F 
ATOM     14  C   UNL     1      -0.015  10.764  20.815  0.00  0.00    +0.000 A 
ATOM     15  C   UNL     1       0.480  10.480  19.540  0.00  0.00    +0.000 A 
ATOM     16  C   UNL     1       1.196   9.285  19.361  0.00  0.00    +0.000 A 
ATOM     17  S   UNL     1       1.929   8.670  17.935  0.00  0.00    +0.000 S 
ENDBRANCH   4   8
BRANCH   1  19
ATOM     18  C   UNL     1       6.136   3.818  14.660  0.00  0.00    +0.000 C 
ATOM     19  N   UNL     1       5.946   3.602  16.088  0.00  0.00    +0.000 N 
ATOM     20  H   UNL     1       6.835   3.479  16.565  0.00  0.00    +0.000 HD
ENDBRANCH   1  19
TORSDOF 2
ENDMDL
MODEL 3
REMARK VINA RESULT:      -7.0      3.358      7.629
REMARK  Name = 
REMARK  4 active torsions:
REMARK  status: ('A' for Active; 'I' for Inactive)
REMARK    1  A    between atoms: C_1  and  N_2
REMARK    2  A    between atoms: N_2  and  C_3
REMARK    3  A    between atoms: C_6  and  C_7
REMARK    4  A    between atoms: C_18  and  C_19
REMARK                            x       y       z     vdW  Elec       q    Type
REMARK                         _______ _______ _______ _____ _____    ______ ____
ROOT
ATOM      1  C   UNL     1       0.721   9.463  20.765  0.00  0.00    +0.000 A 
ATOM      2  C   UNL     1       1.153   8.218  21.242  0.00  0.00    +0.000 A 
ATOM      3  C   UNL     1       1.876   7.332  20.437  0.00  0.00    +0.000 A 
ATOM      4  C   UNL     1       2.166   7.645  19.105  0.00  0.00    +0.000 A 
ATOM      5  C   UNL     1       1.677   8.860  18.601  0.00  0.00    +0.000 A 
ATOM      6  C   UNL     1       0.950   9.764  19.405  0.00  0.00    +0.000 A 
ATOM      7  C   UNL     1       0.445  11.035  18.773  0.00  0.00    +0.000 C 
ENDROOT
BRANCH   4   8
ATOM      8  C   UNL     1       2.993   6.777  18.251  0.00  0.00    +0.000 A 
ATOM      9  N   UNL     1       3.935   7.221  17.439  0.00  0.00    +0.000 NA
ATOM     10  C   UNL     1       4.604   6.162  16.849  0.00  0.00    +0.000 A 
ATOM     11  C   UNL     1       5.705   6.265  15.976  0.00  0.00    +0.000 A 
ATOM     12  C   UNL     1       6.283   5.100  15.478  0.00  0.00    +0.000 A 
ATOM     13  F   UNL     1       7.336   5.192  14.656  0.00  0.00    +0.000 F 
ATOM     14  C   UNL     1       5.797   3.843  15.816  0.00  0.00    +0.000 A 
ATOM     15  C   UNL     1       4.703   3.719  16.675  0.00  0.00    +0.000 A 
ATOM     16  C   UNL     1       4.124   4.895  17.181  0.00  0.00    +0.000 A 
ATOM     17  S   UNL     1       2.794   5.067  18.253  0.00  0.00    +0.000 S 
ENDBRANCH   4   8
BRANCH   1  19
ATOM     18  C   UNL     1      -0.367   9.855  22.914  0.00  0.00    +0.000 C 
ATOM     19  N   UNL     1      -0.010  10.341  21.587  0.00  0.00    +0.000 N 
ATOM     20  H   UNL     1       0.418  11.261  21.633  0.00  0.00    +0.000 HD
ENDBRANCH   1  19
TORSDOF 2
ENDMDL
MODEL 4
REMARK VINA RESULT:      -6.9      1.492      1.893
REMARK  Name = 
REMARK  4 active torsions:
REMARK  status: ('A' for Active; 'I' for Inactive)
REMARK    1  A    between atoms: C_1  and  N_2
REMARK    2  A    between atoms: N_2  and  C_3
REMARK    3  A    between atoms: C_6  and  C_7
REMARK    4  A    between atoms: C_18  and  C_19
REMARK                            x       y       z     vdW  Elec       q    Type
REMARK                         _______ _______ _______ _____ _____    ______ ____
ROOT
ATOM      1  C   UNL     1       4.646   4.598  16.888  0.00  0.00    +0.000 A 
ATOM      2  C   UNL     1       5.038   5.941  16.793  0.00  0.00    +0.000 A 
ATOM      3  C   UNL     1       4.282   6.971  17.359  0.00  0.00    +0.000 A 
ATOM      4  C   UNL     1       3.078   6.700  18.017  0.00  0.00    +0.000 A 
ATOM      5  C   UNL     1       2.643   5.366  18.056  0.00  0.00    +0.000 A 
ATOM      6  C   UNL     1       3.402   4.317  17.492  0.00  0.00    +0.000 A 
ATOM      7  C   UNL     1       2.848   2.918  17.562  0.00  0.00    +0.000 C 
ENDROOT
BRANCH   4   8
ATOM      8  C   UNL     1       2.294   7.745  18.695  0.00  0.00    +0.000 A 
ATOM      9  N   UNL     1       1.876   8.852  18.110  0.00  0.00    +0.000 NA
ATOM     10  C   UNL     1       1.080   9.586  18.973  0.00  0.00    +0.000 A 
ATOM     11  C   UNL     1       0.417  10.789  18.663  0.00  0.00    +0.000 A 
ATOM     12  C   UNL     1      -0.365  11.400  19.639  0.00  0.00    +0.000 A 
ATOM     13  F   UNL     1      -1.006  12.539  19.346  0.00  0.00    +0.000 F 
ATOM     14  C   UNL     1      -0.503  10.856  20.909  0.00  0.00    +0.000 A 
ATOM     15  C   UNL     1       0.151   9.666  21.240  0.00  0.00    +0.000 A 
ATOM     16  C   UNL     1       0.936   9.048  20.252  0.00  0.00    +0.000 A 
ATOM     17  S   UNL     1       1.840   7.592  20.350  0.00  0.00    +0.000 S 
ENDBRANCH   4   8
BRANCH   1  19
ATOM     18  C   UNL     1       6.143   3.908  15.089  0.00  0.00    +0.000 C 
ATOM     19  N   UNL     1       5.418   3.575  16.308  0.00  0.00    +0.000 N 
ATOM     20  H   UNL     1       6.025   3.127  16.989  0.00  0.00    +0.000 HD
ENDBRANCH   1  19
TORSDOF 2
ENDMDL
MODEL 5
REMARK VINA RESULT:      -6.9      3.368      7.508
REMARK  Name = 
REMARK  4 active torsions:
REMARK  status: ('A' for Active; 'I' for Inactive)
REMARK    1  A    between atoms: C_1  and  N_2
REMARK    2  A    between atoms: N_2  and  C_3
REMARK    3  A    between atoms: C_6  and  C_7
REMARK    4  A    between atoms: C_18  and  C_19
REMARK                            x       y       z     vdW  Elec       q    Type
REMARK                         _______ _______ _______ _____ _____    ______ ____
ROOT
ATOM      1  C   UNL     1       0.489  10.129  19.856  0.00  0.00    +0.000 A 
ATOM      2  C   UNL     1       0.942  10.280  18.538  0.00  0.00    +0.000 A 
ATOM      3  C   UNL     1       1.756   9.323  17.925  0.00  0.00    +0.000 A 
ATOM      4  C   UNL     1       2.182   8.189  18.623  0.00  0.00    +0.000 A 
ATOM      5  C   UNL     1       1.790   8.065  19.965  0.00  0.00    +0.000 A 
ATOM      6  C   UNL     1       0.964   9.022  20.593  0.00  0.00    +0.000 A 
ATOM      7  C   UNL     1       0.612   8.819  22.043  0.00  0.00    +0.000 C 
ENDROOT
BRANCH   4   8
ATOM      8  C   UNL     1       2.972   7.120  17.989  0.00  0.00    +0.000 A 
ATOM      9  N   UNL     1       4.044   7.334  17.249  0.00  0.00    +0.000 NA
ATOM     10  C   UNL     1       4.626   6.133  16.880  0.00  0.00    +0.000 A 
ATOM     11  C   UNL     1       5.815   5.984  16.142  0.00  0.00    +0.000 A 
ATOM     12  C   UNL     1       6.283   4.703  15.866  0.00  0.00    +0.000 A 
ATOM     13  F   UNL     1       7.420   4.556  15.172  0.00  0.00    +0.000 F 
ATOM     14  C   UNL     1       5.604   3.570  16.296  0.00  0.00    +0.000 A 
ATOM     15  C   UNL     1       4.419   3.694  17.025  0.00  0.00    +0.000 A 
ATOM     16  C   UNL     1       3.951   4.989  17.307  0.00  0.00    +0.000 A 
ATOM     17  S   UNL     1       2.550   5.462  18.181  0.00  0.00    +0.000 S 
ENDBRANCH   4   8
BRANCH   1  19
ATOM     18  C   UNL     1      -1.459  11.588  19.680  0.00  0.00    +0.000 C 
ATOM     19  N   UNL     1      -0.326  11.104  20.459  0.00  0.00    +0.000 N 
ATOM     20  H   UNL     1      -0.612  10.832  21.396  0.00  0.00    +0.000 HD
ENDBRANCH   1  19
TORSDOF 2
ENDMDL
MODEL 6
REMARK VINA RESULT:      -6.8      1.242      1.819
REMARK  Name = 
REMARK  4 active torsions:
REMARK  status: ('A' for Active; 'I' for Inactive)
REMARK    1  A    between atoms: C_1  and  N_2
REMARK    2  A    between atoms: N_2  and  C_3
REMARK    3  A    between atoms: C_6  and  C_7
REMARK    4  A    between atoms: C_18  and  C_19
REMARK                            x       y       z     vdW  Elec       q    Type
REMARK                         _______ _______ _______ _____ _____    ______ ____
ROOT
ATOM      1  C   UNL     1       4.992   5.023  17.578  0.00  0.00    +0.000 A 
ATOM      2  C   UNL     1       4.513   4.819  18.880  0.00  0.00    +0.000 A 
ATOM      3  C   UNL     1       3.622   5.710  19.485  0.00  0.00    +0.000 A 
ATOM      4  C   UNL     1       3.200   6.866  18.820  0.00  0.00    +0.000 A 
ATOM      5  C   UNL     1       3.729   7.113  17.544  0.00  0.00    +0.000 A 
ATOM      6  C   UNL     1       4.625   6.217  16.921  0.00  0.00    +0.000 A 
ATOM      7  C   UNL     1       5.160   6.574  15.559  0.00  0.00    +0.000 C 
ENDROOT
BRANCH   4   8
ATOM      8  C   UNL     1       2.202   7.786  19.389  0.00  0.00    +0.000 A 
ATOM      9  N   UNL     1       1.727   7.693  20.618  0.00  0.00    +0.000 NA
ATOM     10  C   UNL     1       0.885   8.758  20.894  0.00  0.00    +0.000 A 
ATOM     11  C   UNL     1       0.252   9.011  22.126  0.00  0.00    +0.000 A 
ATOM     12  C   UNL     1      -0.553  10.139  22.252  0.00  0.00    +0.000 A 
ATOM     13  F   UNL     1      -1.151  10.390  23.424  0.00  0.00    +0.000 F 
ATOM     14  C   UNL     1      -0.751  11.016  21.193  0.00  0.00    +0.000 A 
ATOM     15  C   UNL     1      -0.137  10.780  19.960  0.00  0.00    +0.000 A 
ATOM     16  C   UNL     1       0.680   9.644  19.836  0.00  0.00    +0.000 A 
ATOM     17  S   UNL     1       1.567   9.098  18.471  0.00  0.00    +0.000 S 
ENDBRANCH   4   8
BRANCH   1  19
ATOM     18  C   UNL     1       7.312   4.405  17.143  0.00  0.00    +0.000 C 
ATOM     19  N   UNL     1       5.892   4.118  16.987  0.00  0.00    +0.000 N 
ATOM     20  H   UNL     1       5.680   3.156  17.237  0.00  0.00    +0.000 HD
ENDBRANCH   1  19
TORSDOF 2
ENDMDL
MODEL 7
REMARK VINA RESULT:      -6.7      1.371      2.319
REMARK  Name = 
REMARK  4 active torsions:
REMARK  status: ('A' for Active; 'I' for Inactive)
REMARK    1  A    between atoms: C_1  and  N_2
REMARK    2  A    between atoms: N_2  and  C_3
REMARK    3  A    between atoms: C_6  and  C_7
REMARK    4  A    between atoms: C_18  and  C_19
REMARK                            x       y       z     vdW  Elec       q    Type
REMARK                         _______ _______ _______ _____ _____    ______ ____
ROOT
ATOM      1  C   UNL     1       3.825   3.982  18.679  0.00  0.00    +0.000 A 
ATOM      2  C   UNL     1       3.126   4.185  19.877  0.00  0.00    +0.000 A 
ATOM      3  C   UNL     1       2.522   5.409  20.178  0.00  0.00    +0.000 A 
ATOM      4  C   UNL     1       2.624   6.495  19.302  0.00  0.00    +0.000 A 
ATOM      5  C   UNL     1       3.380   6.320  18.134  0.00  0.00    +0.000 A 
ATOM      6  C   UNL     1       3.991   5.087  17.817  0.00  0.00    +0.000 A 
ATOM      7  C   UNL     1       4.803   4.997  16.551  0.00  0.00    +0.000 C 
ENDROOT
BRANCH   4   8
ATOM      8  C   UNL     1       1.935   7.773  19.544  0.00  0.00    +0.000 A 
ATOM      9  N   UNL     1       1.421   8.127  20.708  0.00  0.00    +0.000 NA
ATOM     10  C   UNL     1       0.933   9.422  20.649  0.00  0.00    +0.000 A 
ATOM     11  C   UNL     1       0.372  10.142  21.720  0.00  0.00    +0.000 A 
ATOM     12  C   UNL     1      -0.058  11.448  21.505  0.00  0.00    +0.000 A 
ATOM     13  F   UNL     1      -0.584  12.141  22.524  0.00  0.00    +0.000 F 
ATOM     14  C   UNL     1       0.048  12.055  20.260  0.00  0.00    +0.000 A 
ATOM     15  C   UNL     1       0.595  11.356  19.181  0.00  0.00    +0.000 A 
ATOM     16  C   UNL     1       1.034  10.040  19.401  0.00  0.00    +0.000 A 
ATOM     17  S   UNL     1       1.752   8.943  18.293  0.00  0.00    +0.000 S 
ENDBRANCH   4   8
BRANCH   1  19
ATOM     18  C   UNL     1       3.556   1.582  18.330  0.00  0.00    +0.000 C 
ATOM     19  N   UNL     1       4.432   2.744  18.394  0.00  0.00    +0.000 N 
ATOM     20  H   UNL     1       5.035   2.798  17.578  0.00  0.00    +0.000 HD
ENDBRANCH   1  19
TORSDOF 2
ENDMDL
MODEL 8
REMARK VINA RESULT:      -6.7      2.139      2.686
REMARK  Name = 
REMARK  4 active torsions:
REMARK  status: ('A' for Active; 'I' for Inactive)
REMARK    1  A    between atoms: C_1  and  N_2
REMARK    2  A    between atoms: N_2  and  C_3
REMARK    3  A    between atoms: C_6  and  C_7
REMARK    4  A    between atoms: C_18  and  C_19
REMARK                            x       y       z     vdW  Elec       q    Type
REMARK                         _______ _______ _______ _____ _____    ______ ____
ROOT
ATOM      1  C   UNL     1       3.374   3.746  19.758  0.00  0.00    +0.000 A 
ATOM      2  C   UNL     1       3.773   4.855  18.998  0.00  0.00    +0.000 A 
ATOM      3  C   UNL     1       3.172   6.107  19.152  0.00  0.00    +0.000 A 
ATOM      4  C   UNL     1       2.117   6.292  20.052  0.00  0.00    +0.000 A 
ATOM      5  C   UNL     1       1.665   5.171  20.765  0.00  0.00    +0.000 A 
ATOM      6  C   UNL     1       2.269   3.902  20.622  0.00  0.00    +0.000 A 
ATOM      7  C   UNL     1       1.704   2.750  21.411  0.00  0.00    +0.000 C 
ENDROOT
BRANCH   4   8
ATOM      8  C   UNL     1       1.511   7.610  20.301  0.00  0.00    +0.000 A 
ATOM      9  N   UNL     1       0.866   7.930  21.408  0.00  0.00    +0.000 NA
ATOM     10  C   UNL     1       0.504   9.266  21.390  0.00  0.00    +0.000 A 
ATOM     11  C   UNL     1      -0.143   9.960  22.430  0.00  0.00    +0.000 A 
ATOM     12  C   UNL     1      -0.425  11.313  22.266  0.00  0.00    +0.000 A 
ATOM     13  F   UNL     1      -1.031  11.981  23.257  0.00  0.00    +0.000 F 
ATOM     14  C   UNL     1      -0.089  11.992  21.102  0.00  0.00    +0.000 A 
ATOM     15  C   UNL     1       0.547  11.321  20.054  0.00  0.00    +0.000 A 
ATOM     16  C   UNL     1       0.836   9.957  20.224  0.00  0.00    +0.000 A 
ATOM     17  S   UNL     1       1.611   8.876  19.138  0.00  0.00    +0.000 S 
ENDBRANCH   4   8
BRANCH   1  19
ATOM     18  C   UNL     1       3.646   1.751  18.379  0.00  0.00    +0.000 C 
ATOM     19  N   UNL     1       3.988   2.491  19.587  0.00  0.00    +0.000 N 
ATOM     20  H   UNL     1       4.994   2.542  19.717  0.00  0.00    +0.000 HD
ENDBRANCH   1  19
TORSDOF 2
ENDMDL
MODEL 9
REMARK VINA RESULT:      -6.7      2.582      3.265
REMARK  Name = 
REMARK  4 active torsions:
REMARK  status: ('A' for Active; 'I' for Inactive)
REMARK    1  A    between atoms: C_1  and  N_2
REMARK    2  A    between atoms: N_2  and  C_3
REMARK    3  A    between atoms: C_6  and  C_7
REMARK    4  A    between atoms: C_18  and  C_19
REMARK                            x       y       z     vdW  Elec       q    Type
REMARK                         _______ _______ _______ _____ _____    ______ ____
ROOT
ATOM      1  C   UNL     1       3.403   3.752  19.772  0.00  0.00    +0.000 A 
ATOM      2  C   UNL     1       3.894   4.766  18.938  0.00  0.00    +0.000 A 
ATOM      3  C   UNL     1       3.374   6.063  18.972  0.00  0.00    +0.000 A 
ATOM      4  C   UNL     1       2.312   6.389  19.821  0.00  0.00    +0.000 A 
ATOM      5  C   UNL     1       1.769   5.362  20.609  0.00  0.00    +0.000 A 
ATOM      6  C   UNL     1       2.290   4.050  20.587  0.00  0.00    +0.000 A 
ATOM      7  C   UNL     1       1.631   3.005  21.450  0.00  0.00    +0.000 C 
ENDROOT
BRANCH   4   8
ATOM      8  C   UNL     1       1.790   7.759  19.945  0.00  0.00    +0.000 A 
ATOM      9  N   UNL     1       1.749   8.627  18.951  0.00  0.00    +0.000 NA
ATOM     10  C   UNL     1       1.113   9.791  19.348  0.00  0.00    +0.000 A 
ATOM     11  C   UNL     1       0.839  10.903  18.530  0.00  0.00    +0.000 A 
ATOM     12  C   UNL     1       0.171  11.996  19.075  0.00  0.00    +0.000 A 
ATOM     13  F   UNL     1      -0.100  13.053  18.298  0.00  0.00    +0.000 F 
ATOM     14  C   UNL     1      -0.226  12.017  20.406  0.00  0.00    +0.000 A 
ATOM     15  C   UNL     1       0.041  10.927  21.238  0.00  0.00    +0.000 A 
ATOM     16  C   UNL     1       0.710   9.823  20.684  0.00  0.00    +0.000 A 
ATOM     17  S   UNL     1       1.164   8.348  21.438  0.00  0.00    +0.000 S 
ENDBRANCH   4   8
BRANCH   1  19
ATOM     18  C   UNL     1       3.565   1.631  18.575  0.00  0.00    +0.000 C 
ATOM     19  N   UNL     1       3.936   2.450  19.722  0.00  0.00    +0.000 N 
ATOM     20  H   UNL     1       4.942   2.448  19.867  0.00  0.00    +0.000 HD
ENDBRANCH   1  19
TORSDOF 2
ENDMDL
