MODEL 1
REMARK VINA RESULT:      -7.3      0.000      0.000
REMARK  Name = 
REMARK  3 active torsions:
REMARK  status: ('A' for Active; 'I' for Inactive)
REMARK    1  A    between atoms: O_1  and  C_2
REMARK    2  A    between atoms: C_2  and  C_3
REMARK    3  A    between atoms: C_10  and  C_11
REMARK                            x       y       z     vdW  Elec       q    Type
REMARK                         _______ _______ _______ _____ _____    ______ ____
ROOT
ATOM      1  C   UNL     1       0.957   9.386  20.981  0.00  0.00    +0.000 A 
ATOM      2  C   UNL     1       0.347  10.590  20.572  0.00  0.00    +0.000 A 
ATOM      3  C   UNL     1       0.329  10.986  19.232  0.00  0.00    +0.000 A 
ATOM      4  I   UNL     1      -0.593  12.775  18.698  0.00  0.00    +0.000 I 
ATOM      5  C   UNL     1       0.921  10.201  18.236  0.00  0.00    +0.000 A 
ATOM      6  C   UNL     1       1.544   9.001  18.621  0.00  0.00    +0.000 A 
ATOM      7  C   UNL     1       2.234   7.969  17.942  0.00  0.00    +0.000 A 
ATOM      8  C   UNL     1       2.641   7.022  18.874  0.00  0.00    +0.000 A 
ATOM      9  O   UNL     1       2.206   7.453  20.111  0.00  0.00    +0.000 OA
ATOM     10  C   UNL     1       1.547   8.637  19.957  0.00  0.00    +0.000 A 
ENDROOT
BRANCH   8  11
ATOM     11  C   UNL     1       3.375   5.823  18.649  0.00  0.00    +0.000 C 
ATOM     12  C   UNL     1       4.371   5.447  19.478  0.00  0.00    +0.000 C 
ATOM     13  N   UNL     1       5.030   4.239  19.160  0.00  0.00    +0.000 N 
ATOM     14  C   UNL     1       4.069   3.087  19.148  0.00  0.00    +0.000 C 
ATOM     15  C   UNL     1       2.924   3.429  18.163  0.00  0.00    +0.000 C 
ATOM     16  C   UNL     1       3.204   4.806  17.513  0.00  0.00    +0.000 C 
ATOM     17  C   UNL     1       4.567   4.708  16.783  0.00  0.00    +0.000 C 
ATOM     18  C   UNL     1       5.661   4.304  17.800  0.00  0.00    +0.000 C 
ENDBRANCH   8  11
BRANCH   1  19
ATOM     19  C   UNL     1       0.964   8.974  22.420  0.00  0.00    +0.000 C 
BRANCH  19  20
ATOM     20  O   UNL     1       0.405  10.022  23.205  0.00  0.00    +0.000 OA
ATOM     21  H   UNL     1      -0.551   9.864  23.237  0.00  0.00    +0.000 HD
ENDBRANCH  19  20
ENDBRANCH   1  19
TORSDOF 3
ENDMDL
MODEL 2
REMARK VINA RESULT:      -7.2      0.769      1.312
REMARK  Name = 
REMARK  3 active torsions:
REMARK  status: ('A' for Active; 'I' for Inactive)
REMARK    1  A    between atoms: O_1  and  C_2
REMARK    2  A    between atoms: C_2  and  C_3
REMARK    3  A    between atoms: C_10  and  C_11
REMARK                            x       y       z     vdW  Elec       q    Type
REMARK                         _______ _______ _______ _____ _____    ______ ____
ROOT
ATOM      1  C   UNL     1       0.894   9.454  20.996  0.00  0.00    +0.000 A 
ATOM      2  C   UNL     1       0.297  10.680  20.636  0.00  0.00    +0.000 A 
ATOM      3  C   UNL     1       0.286  11.131  19.313  0.00  0.00    +0.000 A 
ATOM      4  I   UNL     1      -0.617  12.949  18.850  0.00  0.00    +0.000 I 
ATOM      5  C   UNL     1       0.873  10.381  18.287  0.00  0.00    +0.000 A 
ATOM      6  C   UNL     1       1.483   9.161  18.623  0.00  0.00    +0.000 A 
ATOM      7  C   UNL     1       2.165   8.150  17.904  0.00  0.00    +0.000 A 
ATOM      8  C   UNL     1       2.561   7.162  18.798  0.00  0.00    +0.000 A 
ATOM      9  O   UNL     1       2.126   7.547  20.050  0.00  0.00    +0.000 OA
ATOM     10  C   UNL     1       1.479   8.742  19.944  0.00  0.00    +0.000 A 
ENDROOT
BRANCH   8  11
ATOM     11  C   UNL     1       3.283   5.966  18.525  0.00  0.00    +0.000 C 
ATOM     12  C   UNL     1       2.701   4.754  18.648  0.00  0.00    +0.000 C 
ATOM     13  N   UNL     1       3.510   3.636  18.350  0.00  0.00    +0.000 N 
ATOM     14  C   UNL     1       4.009   3.693  16.937  0.00  0.00    +0.000 C 
ATOM     15  C   UNL     1       4.745   5.041  16.743  0.00  0.00    +0.000 C 
ATOM     16  C   UNL     1       4.744   5.820  18.080  0.00  0.00    +0.000 C 
ATOM     17  C   UNL     1       5.454   4.937  19.136  0.00  0.00    +0.000 C 
ATOM     18  C   UNL     1       4.714   3.581  19.244  0.00  0.00    +0.000 C 
ENDBRANCH   8  11
BRANCH   1  19
ATOM     19  C   UNL     1       0.894   8.984  22.417  0.00  0.00    +0.000 C 
BRANCH  19  20
ATOM     20  O   UNL     1       0.352  10.007  23.244  0.00  0.00    +0.000 OA
ATOM     21  H   UNL     1       1.035  10.691  23.323  0.00  0.00    +0.000 HD
ENDBRANCH  19  20
ENDBRANCH   1  19
TORSDOF 3
ENDMDL
MODEL 3
REMARK VINA RESULT:      -7.2      0.916      1.121
REMARK  Name = 
REMARK  3 active torsions:
REMARK  status: ('A' for Active; 'I' for Inactive)
REMARK    1  A    between atoms: O_1  and  C_2
REMARK    2  A    between atoms: C_2  and  C_3
REMARK    3  A    between atoms: C_10  and  C_11
REMARK                            x       y       z     vdW  Elec       q    Type
REMARK                         _______ _______ _______ _____ _____    ______ ____
ROOT
ATOM      1  C   UNL     1       0.883   9.697  20.971  0.00  0.00    +0.000 A 
ATOM      2  C   UNL     1       0.408  10.963  20.571  0.00  0.00    +0.000 A 
ATOM      3  C   UNL     1       0.464  11.381  19.239  0.00  0.00    +0.000 A 
ATOM      4  I   UNL     1      -0.259  13.263  18.718  0.00  0.00    +0.000 I 
ATOM      5  C   UNL     1       0.999  10.558  18.242  0.00  0.00    +0.000 A 
ATOM      6  C   UNL     1       1.488   9.295  18.618  0.00  0.00    +0.000 A 
ATOM      7  C   UNL     1       2.088   8.209  17.936  0.00  0.00    +0.000 A 
ATOM      8  C   UNL     1       2.374   7.210  18.859  0.00  0.00    +0.000 A 
ATOM      9  O   UNL     1       1.953   7.663  20.094  0.00  0.00    +0.000 OA
ATOM     10  C   UNL     1       1.421   8.909  19.947  0.00  0.00    +0.000 A 
ENDROOT
BRANCH   8  11
ATOM     11  C   UNL     1       2.989   5.947  18.628  0.00  0.00    +0.000 C 
ATOM     12  C   UNL     1       4.250   5.860  18.156  0.00  0.00    +0.000 C 
ATOM     13  N   UNL     1       4.760   4.558  17.965  0.00  0.00    +0.000 N 
ATOM     14  C   UNL     1       4.766   3.787  19.252  0.00  0.00    +0.000 C 
ATOM     15  C   UNL     1       3.326   3.795  19.821  0.00  0.00    +0.000 C 
ATOM     16  C   UNL     1       2.394   4.550  18.841  0.00  0.00    +0.000 C 
ATOM     17  C   UNL     1       2.458   3.816  17.479  0.00  0.00    +0.000 C 
ATOM     18  C   UNL     1       3.926   3.783  16.988  0.00  0.00    +0.000 C 
ENDBRANCH   8  11
BRANCH   1  19
ATOM     19  C   UNL     1       0.812   9.263  22.402  0.00  0.00    +0.000 C 
BRANCH  19  20
ATOM     20  O   UNL     1       2.131   9.180  22.928  0.00  0.00    +0.000 OA
ATOM     21  H   UNL     1       2.436   8.273  22.770  0.00  0.00    +0.000 HD
ENDBRANCH  19  20
ENDBRANCH   1  19
TORSDOF 3
ENDMDL
MODEL 4
REMARK VINA RESULT:      -7.1      1.807      2.624
REMARK  Name = 
REMARK  3 active torsions:
REMARK  status: ('A' for Active; 'I' for Inactive)
REMARK    1  A    between atoms: O_1  and  C_2
REMARK    2  A    between atoms: C_2  and  C_3
REMARK    3  A    between atoms: C_10  and  C_11
REMARK                            x       y       z     vdW  Elec       q    Type
REMARK                         _______ _______ _______ _____ _____    ______ ____
ROOT
ATOM      1  C   UNL     1       1.351   9.967  19.451  0.00  0.00    +0.000 A 
ATOM      2  C   UNL     1       0.543  10.712  20.335  0.00  0.00    +0.000 A 
ATOM      3  C   UNL     1       0.005  10.145  21.493  0.00  0.00    +0.000 A 
ATOM      4  I   UNL     1      -1.177  11.306  22.755  0.00  0.00    +0.000 I 
ATOM      5  C   UNL     1       0.244   8.807  21.824  0.00  0.00    +0.000 A 
ATOM      6  C   UNL     1       1.038   8.041  20.954  0.00  0.00    +0.000 A 
ATOM      7  C   UNL     1       1.492   6.700  20.930  0.00  0.00    +0.000 A 
ATOM      8  C   UNL     1       2.256   6.512  19.785  0.00  0.00    +0.000 A 
ATOM      9  O   UNL     1       2.284   7.716  19.110  0.00  0.00    +0.000 OA
ATOM     10  C   UNL     1       1.556   8.630  19.812  0.00  0.00    +0.000 A 
ENDROOT
BRANCH   8  11
ATOM     11  C   UNL     1       2.903   5.323  19.343  0.00  0.00    +0.000 C 
ATOM     12  C   UNL     1       4.249   5.228  19.316  0.00  0.00    +0.000 C 
ATOM     13  N   UNL     1       4.782   4.002  18.863  0.00  0.00    +0.000 N 
ATOM     14  C   UNL     1       4.323   2.862  19.723  0.00  0.00    +0.000 C 
ATOM     15  C   UNL     1       2.775   2.875  19.748  0.00  0.00    +0.000 C 
ATOM     16  C   UNL     1       2.260   4.022  18.845  0.00  0.00    +0.000 C 
ATOM     17  C   UNL     1       2.798   3.768  17.415  0.00  0.00    +0.000 C 
ATOM     18  C   UNL     1       4.345   3.703  17.459  0.00  0.00    +0.000 C 
ENDBRANCH   8  11
BRANCH   1  19
ATOM     19  C   UNL     1       1.924  10.590  18.217  0.00  0.00    +0.000 C 
BRANCH  19  20
ATOM     20  O   UNL     1       1.965   9.616  17.181  0.00  0.00    +0.000 OA
ATOM     21  H   UNL     1       1.682  10.063  16.368  0.00  0.00    +0.000 HD
ENDBRANCH  19  20
ENDBRANCH   1  19
TORSDOF 3
ENDMDL
MODEL 5
REMARK VINA RESULT:      -7.0      6.773      8.630
REMARK  Name = 
REMARK  3 active torsions:
REMARK  status: ('A' for Active; 'I' for Inactive)
REMARK    1  A    between atoms: O_1  and  C_2
REMARK    2  A    between atoms: C_2  and  C_3
REMARK    3  A    between atoms: C_10  and  C_11
REMARK                            x       y       z     vdW  Elec       q    Type
REMARK                         _______ _______ _______ _____ _____    ______ ____
ROOT
ATOM      1  C   UNL     1       7.979   5.739  18.847  0.00  0.00    +0.000 A 
ATOM      2  C   UNL     1       7.042   4.980  18.114  0.00  0.00    +0.000 A 
ATOM      3  C   UNL     1       6.249   5.557  17.118  0.00  0.00    +0.000 A 
ATOM      4  I   UNL     1       4.888   4.377  16.073  0.00  0.00    +0.000 I 
ATOM      5  C   UNL     1       6.351   6.917  16.807  0.00  0.00    +0.000 A 
ATOM      6  C   UNL     1       7.270   7.696  17.530  0.00  0.00    +0.000 A 
ATOM      7  C   UNL     1       7.655   9.058  17.521  0.00  0.00    +0.000 A 
ATOM      8  C   UNL     1       8.630   9.248  18.494  0.00  0.00    +0.000 A 
ATOM      9  O   UNL     1       8.853   8.025  19.093  0.00  0.00    +0.000 OA
ATOM     10  C   UNL     1       8.041   7.096  18.514  0.00  0.00    +0.000 A 
ENDROOT
BRANCH   8  11
ATOM     11  C   UNL     1       9.297  10.456  18.848  0.00  0.00    +0.000 C 
ATOM     12  C   UNL     1       9.373  10.861  20.132  0.00  0.00    +0.000 C 
ATOM     13  N   UNL     1      10.059  12.072  20.369  0.00  0.00    +0.000 N 
ATOM     14  C   UNL     1      11.480  11.989  19.895  0.00  0.00    +0.000 C 
ATOM     15  C   UNL     1      11.463  11.585  18.401  0.00  0.00    +0.000 C 
ATOM     16  C   UNL     1       9.996  11.459  17.922  0.00  0.00    +0.000 C 
ATOM     17  C   UNL     1       9.314  12.832  18.143  0.00  0.00    +0.000 C 
ATOM     18  C   UNL     1       9.415  13.214  19.640  0.00  0.00    +0.000 C 
ENDBRANCH   8  11
BRANCH   1  19
ATOM     19  C   UNL     1       8.823   5.106  19.908  0.00  0.00    +0.000 C 
BRANCH  19  20
ATOM     20  O   UNL     1       8.205   5.306  21.174  0.00  0.00    +0.000 OA
ATOM     21  H   UNL     1       8.092   4.427  21.569  0.00  0.00    +0.000 HD
ENDBRANCH  19  20
ENDBRANCH   1  19
TORSDOF 3
ENDMDL
MODEL 6
REMARK VINA RESULT:      -7.0      0.810      1.048
REMARK  Name = 
REMARK  3 active torsions:
REMARK  status: ('A' for Active; 'I' for Inactive)
REMARK    1  A    between atoms: O_1  and  C_2
REMARK    2  A    between atoms: C_2  and  C_3
REMARK    3  A    between atoms: C_10  and  C_11
REMARK                            x       y       z     vdW  Elec       q    Type
REMARK                         _______ _______ _______ _____ _____    ______ ____
ROOT
ATOM      1  C   UNL     1       0.665   9.296  20.897  0.00  0.00    +0.000 A 
ATOM      2  C   UNL     1      -0.207  10.327  20.490  0.00  0.00    +0.000 A 
ATOM      3  C   UNL     1      -0.352  10.678  19.145  0.00  0.00    +0.000 A 
ATOM      4  I   UNL     1      -1.661  12.208  18.615  0.00  0.00    +0.000 I 
ATOM      5  C   UNL     1       0.367  10.019  18.142  0.00  0.00    +0.000 A 
ATOM      6  C   UNL     1       1.250   8.994  18.523  0.00  0.00    +0.000 A 
ATOM      7  C   UNL     1       2.129   8.122  17.838  0.00  0.00    +0.000 A 
ATOM      8  C   UNL     1       2.763   7.309  18.771  0.00  0.00    +0.000 A 
ATOM      9  O   UNL     1       2.281   7.664  20.015  0.00  0.00    +0.000 OA
ATOM     10  C   UNL     1       1.374   8.670  19.865  0.00  0.00    +0.000 A 
ENDROOT
BRANCH   8  11
ATOM     11  C   UNL     1       3.734   6.295  18.539  0.00  0.00    +0.000 C 
ATOM     12  C   UNL     1       4.013   5.367  19.478  0.00  0.00    +0.000 C 
ATOM     13  N   UNL     1       4.993   4.407  19.140  0.00  0.00    +0.000 N 
ATOM     14  C   UNL     1       4.589   3.629  17.923  0.00  0.00    +0.000 C 
ATOM     15  C   UNL     1       4.312   4.637  16.781  0.00  0.00    +0.000 C 
ATOM     16  C   UNL     1       4.594   6.073  17.288  0.00  0.00    +0.000 C 
ATOM     17  C   UNL     1       6.075   6.125  17.739  0.00  0.00    +0.000 C 
ATOM     18  C   UNL     1       6.309   5.057  18.835  0.00  0.00    +0.000 C 
ENDBRANCH   8  11
BRANCH   1  19
ATOM     19  C   UNL     1       0.807   8.930  22.341  0.00  0.00    +0.000 C 
BRANCH  19  20
ATOM     20  O   UNL     1       0.411  10.038  23.142  0.00  0.00    +0.000 OA
ATOM     21  H   UNL     1       1.139  10.207  23.760  0.00  0.00    +0.000 HD
ENDBRANCH  19  20
ENDBRANCH   1  19
TORSDOF 3
ENDMDL
MODEL 7
REMARK VINA RESULT:      -7.0      1.848      2.639
REMARK  Name = 
REMARK  3 active torsions:
REMARK  status: ('A' for Active; 'I' for Inactive)
REMARK    1  A    between atoms: O_1  and  C_2
REMARK    2  A    between atoms: C_2  and  C_3
REMARK    3  A    between atoms: C_10  and  C_11
REMARK                            x       y       z     vdW  Elec       q    Type
REMARK                         _______ _______ _______ _____ _____    ______ ____
ROOT
ATOM      1  C   UNL     1       1.051  10.523  19.624  0.00  0.00    +0.000 A 
ATOM      2  C   UNL     1       0.223  11.251  20.503  0.00  0.00    +0.000 A 
ATOM      3  C   UNL     1      -0.343  10.662  21.637  0.00  0.00    +0.000 A 
ATOM      4  I   UNL     1      -1.553  11.798  22.894  0.00  0.00    +0.000 I 
ATOM      5  C   UNL     1      -0.112   9.317  21.947  0.00  0.00    +0.000 A 
ATOM      6  C   UNL     1       0.702   8.567  21.080  0.00  0.00    +0.000 A 
ATOM      7  C   UNL     1       1.157   7.227  21.040  0.00  0.00    +0.000 A 
ATOM      8  C   UNL     1       1.947   7.061  19.909  0.00  0.00    +0.000 A 
ATOM      9  O   UNL     1       1.990   8.278  19.259  0.00  0.00    +0.000 OA
ATOM     10  C   UNL     1       1.247   9.179  19.962  0.00  0.00    +0.000 A 
ENDROOT
BRANCH   8  11
ATOM     11  C   UNL     1       2.603   5.881  19.459  0.00  0.00    +0.000 C 
ATOM     12  C   UNL     1       2.927   4.891  20.318  0.00  0.00    +0.000 C 
ATOM     13  N   UNL     1       3.574   3.765  19.763  0.00  0.00    +0.000 N 
ATOM     14  C   UNL     1       2.721   3.116  18.714  0.00  0.00    +0.000 C 
ATOM     15  C   UNL     1       2.361   4.188  17.658  0.00  0.00    +0.000 C 
ATOM     16  C   UNL     1       3.045   5.525  18.034  0.00  0.00    +0.000 C 
ATOM     17  C   UNL     1       4.572   5.271  18.082  0.00  0.00    +0.000 C 
ATOM     18  C   UNL     1       4.868   4.149  19.107  0.00  0.00    +0.000 C 
ENDBRANCH   8  11
BRANCH   1  19
ATOM     19  C   UNL     1       1.652  11.170  18.415  0.00  0.00    +0.000 C 
BRANCH  19  20
ATOM     20  O   UNL     1       1.765  10.203  17.378  0.00  0.00    +0.000 OA
ATOM     21  H   UNL     1       1.248   9.432  17.661  0.00  0.00    +0.000 HD
ENDBRANCH  19  20
ENDBRANCH   1  19
TORSDOF 3
ENDMDL
MODEL 8
REMARK VINA RESULT:      -6.9      0.652      1.548
REMARK  Name = 
REMARK  3 active torsions:
REMARK  status: ('A' for Active; 'I' for Inactive)
REMARK    1  A    between atoms: O_1  and  C_2
REMARK    2  A    between atoms: C_2  and  C_3
REMARK    3  A    between atoms: C_10  and  C_11
REMARK                            x       y       z     vdW  Elec       q    Type
REMARK                         _______ _______ _______ _____ _____    ______ ____
ROOT
ATOM      1  C   UNL     1       0.865   9.361  20.953  0.00  0.00    +0.000 A 
ATOM      2  C   UNL     1       0.232  10.556  20.551  0.00  0.00    +0.000 A 
ATOM      3  C   UNL     1       0.247  10.984  19.221  0.00  0.00    +0.000 A 
ATOM      4  I   UNL     1      -0.712  12.757  18.697  0.00  0.00    +0.000 I 
ATOM      5  C   UNL     1       0.896  10.242  18.228  0.00  0.00    +0.000 A 
ATOM      6  C   UNL     1       1.543   9.052  18.605  0.00  0.00    +0.000 A 
ATOM      7  C   UNL     1       2.288   8.058  17.927  0.00  0.00    +0.000 A 
ATOM      8  C   UNL     1       2.692   7.101  18.851  0.00  0.00    +0.000 A 
ATOM      9  O   UNL     1       2.202   7.489  20.081  0.00  0.00    +0.000 OA
ATOM     10  C   UNL     1       1.513   8.656  19.933  0.00  0.00    +0.000 A 
ENDROOT
BRANCH   8  11
ATOM     11  C   UNL     1       3.470   5.931  18.622  0.00  0.00    +0.000 C 
ATOM     12  C   UNL     1       3.576   5.392  17.390  0.00  0.00    +0.000 C 
ATOM     13  N   UNL     1       4.374   4.232  17.278  0.00  0.00    +0.000 N 
ATOM     14  C   UNL     1       5.784   4.504  17.713  0.00  0.00    +0.000 C 
ATOM     15  C   UNL     1       5.739   5.071  19.153  0.00  0.00    +0.000 C 
ATOM     16  C   UNL     1       4.270   5.110  19.641  0.00  0.00    +0.000 C 
ATOM     17  C   UNL     1       3.723   3.662  19.588  0.00  0.00    +0.000 C 
ATOM     18  C   UNL     1       3.849   3.124  18.142  0.00  0.00    +0.000 C 
ENDBRANCH   8  11
BRANCH   1  19
ATOM     19  C   UNL     1       0.837   8.915  22.381  0.00  0.00    +0.000 C 
BRANCH  19  20
ATOM     20  O   UNL     1       0.414  10.001  23.198  0.00  0.00    +0.000 OA
ATOM     21  H   UNL     1       0.674   9.782  24.107  0.00  0.00    +0.000 HD
ENDBRANCH  19  20
ENDBRANCH   1  19
TORSDOF 3
ENDMDL
MODEL 9
REMARK VINA RESULT:      -6.9      1.181      1.623
REMARK  Name = 
REMARK  3 active torsions:
REMARK  status: ('A' for Active; 'I' for Inactive)
REMARK    1  A    between atoms: O_1  and  C_2
REMARK    2  A    between atoms: C_2  and  C_3
REMARK    3  A    between atoms: C_10  and  C_11
REMARK                            x       y       z     vdW  Elec       q    Type
REMARK                         _______ _______ _______ _____ _____    ______ ____
ROOT
ATOM      1  C   UNL     1       0.640   9.336  20.932  0.00  0.00    +0.000 A 
ATOM      2  C   UNL     1      -0.297  10.356  20.662  0.00  0.00    +0.000 A 
ATOM      3  C   UNL     1      -0.564  10.781  19.358  0.00  0.00    +0.000 A 
ATOM      4  I   UNL     1      -1.962  12.289  19.032  0.00  0.00    +0.000 I 
ATOM      5  C   UNL     1       0.092  10.213  18.261  0.00  0.00    +0.000 A 
ATOM      6  C   UNL     1       1.038   9.202  18.505  0.00  0.00    +0.000 A 
ATOM      7  C   UNL     1       1.887   8.408  17.697  0.00  0.00    +0.000 A 
ATOM      8  C   UNL     1       2.622   7.565  18.523  0.00  0.00    +0.000 A 
ATOM      9  O   UNL     1       2.233   7.825  19.822  0.00  0.00    +0.000 OA
ATOM     10  C   UNL     1       1.282   8.802  19.809  0.00  0.00    +0.000 A 
ENDROOT
BRANCH   8  11
ATOM     11  C   UNL     1       3.606   6.606  18.151  0.00  0.00    +0.000 C 
ATOM     12  C   UNL     1       4.537   6.886  17.215  0.00  0.00    +0.000 C 
ATOM     13  N   UNL     1       5.464   5.862  16.925  0.00  0.00    +0.000 N 
ATOM     14  C   UNL     1       6.239   5.473  18.149  0.00  0.00    +0.000 C 
ATOM     15  C   UNL     1       5.226   5.078  19.251  0.00  0.00    +0.000 C 
ATOM     16  C   UNL     1       3.789   5.179  18.683  0.00  0.00    +0.000 C 
ATOM     17  C   UNL     1       3.700   4.225  17.466  0.00  0.00    +0.000 C 
ATOM     18  C   UNL     1       4.773   4.627  16.426  0.00  0.00    +0.000 C 
ENDBRANCH   8  11
BRANCH   1  19
ATOM     19  C   UNL     1       0.912   8.889  22.334  0.00  0.00    +0.000 C 
BRANCH  19  20
ATOM     20  O   UNL     1       2.241   9.252  22.688  0.00  0.00    +0.000 OA
ATOM     21  H   UNL     1       2.784   9.125  21.894  0.00  0.00    +0.000 HD
ENDBRANCH  19  20
ENDBRANCH   1  19
TORSDOF 3
ENDMDL
