MODEL 1
REMARK VINA RESULT:      -7.6      0.000      0.000
REMARK  Name = 
REMARK  9 active torsions:
REMARK  status: ('A' for Active; 'I' for Inactive)
REMARK    1  A    between atoms: C_1  and  C_2
REMARK    2  A    between atoms: C_2  and  C_3
REMARK    3  A    between atoms: C_3  and  N_4
REMARK    4  A    between atoms: C_5  and  C_7
REMARK    5  A    between atoms: C_7  and  C_8
REMARK    6  A    between atoms: C_8  and  C_9
REMARK    7  A    between atoms: N_11  and  C_12
REMARK    8  A    between atoms: C_12  and  C_13
REMARK    9  A    between atoms: C_12  and  C_18
REMARK                            x       y       z     vdW  Elec       q    Type
REMARK                         _______ _______ _______ _____ _____    ______ ____
ROOT
ATOM      1  C   UNL     1       5.585   4.750  18.368  0.00  0.00    +0.000 C 
ATOM      2  O   UNL     1       6.025   4.452  19.472  0.00  0.00    +0.000 OA
ATOM      3  N   UNL     1       4.365   5.356  18.183  0.00  0.00    +0.000 N 
ATOM      4  H   UNL     1       4.045   5.578  17.251  0.00  0.00    +0.000 HD
ENDROOT
BRANCH   1   5
ATOM      5  C   UNL     1       6.349   4.464  17.092  0.00  0.00    +0.000 C 
BRANCH   5   6
ATOM      6  C   UNL     1       5.733   5.190  15.890  0.00  0.00    +0.000 C 
BRANCH   6   8
ATOM      7  N   UNL     1       5.784   3.977  13.783  0.00  0.00    +0.000 N 
ATOM      8  C   UNL     1       6.454   4.859  14.604  0.00  0.00    +0.000 C 
ATOM      9  O   UNL     1       7.550   5.345  14.315  0.00  0.00    +0.000 OA
ATOM     10  H   UNL     1       4.874   3.624  14.057  0.00  0.00    +0.000 HD
BRANCH   7  11
ATOM     11  C   UNL     1       6.356   3.560  12.516  0.00  0.00    +0.000 C 
BRANCH  11  13
ATOM     12  C   UNL     1       4.174   3.219  11.295  0.00  0.00    +0.000 C 
ATOM     13  C   UNL     1       5.475   2.573  11.751  0.00  0.00    +0.000 C 
ENDBRANCH  11  13
ENDBRANCH   7  11
ENDBRANCH   6   8
ENDBRANCH   5   6
ENDBRANCH   1   5
BRANCH   3  14
ATOM     14  C   UNL     1       3.518   5.722  19.313  0.00  0.00    +0.000 C 
BRANCH  14  15
ATOM     15  C   UNL     1       2.826   7.023  18.969  0.00  0.00    +0.000 A 
ATOM     16  C   UNL     1       2.882   7.748  17.791  0.00  0.00    +0.000 A 
ATOM     17  C   UNL     1       2.072   8.918  17.824  0.00  0.00    +0.000 A 
ATOM     18  C   UNL     1       1.438   9.067  19.035  0.00  0.00    +0.000 A 
ATOM     19  S   UNL     1       1.790   7.783  20.109  0.00  0.00    +0.000 S 
ENDBRANCH  14  15
BRANCH  14  20
ATOM     20  C   UNL     1       2.507   4.616  19.574  0.00  0.00    +0.000 A 
ATOM     21  C   UNL     1       1.638   3.983  18.699  0.00  0.00    +0.000 A 
ATOM     22  C   UNL     1       0.789   3.034  19.339  0.00  0.00    +0.000 A 
ATOM     23  C   UNL     1       1.023   2.965  20.687  0.00  0.00    +0.000 A 
ATOM     24  S   UNL     1       2.272   4.028  21.179  0.00  0.00    +0.000 S 
ENDBRANCH  14  20
ENDBRANCH   3  14
TORSDOF 8
ENDMDL
MODEL 2
REMARK VINA RESULT:      -7.4      1.196      1.471
REMARK  Name = 
REMARK  9 active torsions:
REMARK  status: ('A' for Active; 'I' for Inactive)
REMARK    1  A    between atoms: C_1  and  C_2
REMARK    2  A    between atoms: C_2  and  C_3
REMARK    3  A    between atoms: C_3  and  N_4
REMARK    4  A    between atoms: C_5  and  C_7
REMARK    5  A    between atoms: C_7  and  C_8
REMARK    6  A    between atoms: C_8  and  C_9
REMARK    7  A    between atoms: N_11  and  C_12
REMARK    8  A    between atoms: C_12  and  C_13
REMARK    9  A    between atoms: C_12  and  C_18
REMARK                            x       y       z     vdW  Elec       q    Type
REMARK                         _______ _______ _______ _____ _____    ______ ____
ROOT
ATOM      1  C   UNL     1       4.970   6.071  17.406  0.00  0.00    +0.000 C 
ATOM      2  O   UNL     1       5.802   6.128  18.304  0.00  0.00    +0.000 OA
ATOM      3  N   UNL     1       3.616   6.144  17.630  0.00  0.00    +0.000 N 
ATOM      4  H   UNL     1       2.970   6.088  16.855  0.00  0.00    +0.000 HD
ENDROOT
BRANCH   1   5
ATOM      5  C   UNL     1       5.362   5.900  15.953  0.00  0.00    +0.000 C 
BRANCH   5   6
ATOM      6  C   UNL     1       6.335   4.731  15.764  0.00  0.00    +0.000 C 
BRANCH   6   8
ATOM      7  N   UNL     1       6.208   3.605  13.613  0.00  0.00    +0.000 N 
ATOM      8  C   UNL     1       6.805   4.617  14.332  0.00  0.00    +0.000 C 
ATOM      9  O   UNL     1       7.651   5.375  13.851  0.00  0.00    +0.000 OA
ATOM     10  H   UNL     1       5.501   3.024  14.050  0.00  0.00    +0.000 HD
BRANCH   7  11
ATOM     11  C   UNL     1       6.563   3.368  12.225  0.00  0.00    +0.000 C 
BRANCH  11  13
ATOM     12  C   UNL     1       6.393   1.115  11.103  0.00  0.00    +0.000 C 
ATOM     13  C   UNL     1       5.642   2.369  11.526  0.00  0.00    +0.000 C 
ENDBRANCH  11  13
ENDBRANCH   7  11
ENDBRANCH   6   8
ENDBRANCH   5   6
ENDBRANCH   1   5
BRANCH   3  14
ATOM     14  C   UNL     1       3.076   6.335  18.972  0.00  0.00    +0.000 C 
BRANCH  14  15
ATOM     15  C   UNL     1       2.267   7.613  18.966  0.00  0.00    +0.000 A 
ATOM     16  C   UNL     1       1.982   8.453  17.903  0.00  0.00    +0.000 A 
ATOM     17  C   UNL     1       1.164   9.556  18.275  0.00  0.00    +0.000 A 
ATOM     18  C   UNL     1       0.866   9.542  19.617  0.00  0.00    +0.000 A 
ATOM     19  S   UNL     1       1.539   8.186  20.413  0.00  0.00    +0.000 S 
ENDBRANCH  14  15
BRANCH  14  20
ATOM     20  C   UNL     1       2.212   5.141  19.350  0.00  0.00    +0.000 A 
ATOM     21  C   UNL     1       1.820   4.688  20.600  0.00  0.00    +0.000 A 
ATOM     22  C   UNL     1       1.058   3.484  20.547  0.00  0.00    +0.000 A 
ATOM     23  C   UNL     1       0.887   3.042  19.262  0.00  0.00    +0.000 A 
ATOM     24  S   UNL     1       1.629   4.080  18.120  0.00  0.00    +0.000 S 
ENDBRANCH  14  20
ENDBRANCH   3  14
TORSDOF 8
ENDMDL
MODEL 3
REMARK VINA RESULT:      -7.2      1.193      1.463
REMARK  Name = 
REMARK  9 active torsions:
REMARK  status: ('A' for Active; 'I' for Inactive)
REMARK    1  A    between atoms: C_1  and  C_2
REMARK    2  A    between atoms: C_2  and  C_3
REMARK    3  A    between atoms: C_3  and  N_4
REMARK    4  A    between atoms: C_5  and  C_7
REMARK    5  A    between atoms: C_7  and  C_8
REMARK    6  A    between atoms: C_8  and  C_9
REMARK    7  A    between atoms: N_11  and  C_12
REMARK    8  A    between atoms: C_12  and  C_13
REMARK    9  A    between atoms: C_12  and  C_18
REMARK                            x       y       z     vdW  Elec       q    Type
REMARK                         _______ _______ _______ _____ _____    ______ ____
ROOT
ATOM      1  C   UNL     1       5.335   5.568  18.566  0.00  0.00    +0.000 C 
ATOM      2  O   UNL     1       5.804   5.185  19.631  0.00  0.00    +0.000 OA
ATOM      3  N   UNL     1       4.033   5.983  18.423  0.00  0.00    +0.000 N 
ATOM      4  H   UNL     1       3.693   6.286  17.521  0.00  0.00    +0.000 HD
ENDROOT
BRANCH   1   5
ATOM      5  C   UNL     1       6.154   5.607  17.293  0.00  0.00    +0.000 C 
BRANCH   5   6
ATOM      6  C   UNL     1       5.925   4.357  16.434  0.00  0.00    +0.000 C 
BRANCH   6   8
ATOM      7  N   UNL     1       6.290   3.582  14.159  0.00  0.00    +0.000 N 
ATOM      8  C   UNL     1       6.003   4.667  14.957  0.00  0.00    +0.000 C 
ATOM      9  O   UNL     1       5.818   5.801  14.508  0.00  0.00    +0.000 OA
ATOM     10  H   UNL     1       6.410   2.665  14.577  0.00  0.00    +0.000 HD
BRANCH   7  11
ATOM     11  C   UNL     1       6.404   3.726  12.719  0.00  0.00    +0.000 C 
BRANCH  11  13
ATOM     12  C   UNL     1       4.276   3.313  11.427  0.00  0.00    +0.000 C 
ATOM     13  C   UNL     1       5.573   2.705  11.941  0.00  0.00    +0.000 C 
ENDBRANCH  11  13
ENDBRANCH   7  11
ENDBRANCH   6   8
ENDBRANCH   5   6
ENDBRANCH   1   5
BRANCH   3  14
ATOM     14  C   UNL     1       3.120   6.029  19.560  0.00  0.00    +0.000 C 
BRANCH  14  15
ATOM     15  C   UNL     1       2.335   7.319  19.469  0.00  0.00    +0.000 A 
ATOM     16  C   UNL     1       1.582   7.946  20.448  0.00  0.00    +0.000 A 
ATOM     17  C   UNL     1       1.004   9.167  20.002  0.00  0.00    +0.000 A 
ATOM     18  C   UNL     1       1.310   9.428  18.687  0.00  0.00    +0.000 A 
ATOM     19  S   UNL     1       2.320   8.226  18.010  0.00  0.00    +0.000 S 
ENDBRANCH  14  15
BRANCH  14  20
ATOM     20  C   UNL     1       2.195   4.822  19.523  0.00  0.00    +0.000 A 
ATOM     21  C   UNL     1       1.452   4.241  20.539  0.00  0.00    +0.000 A 
ATOM     22  C   UNL     1       0.754   3.070  20.124  0.00  0.00    +0.000 A 
ATOM     23  C   UNL     1       0.981   2.778  18.805  0.00  0.00    +0.000 A 
ATOM     24  S   UNL     1       2.020   3.920  18.063  0.00  0.00    +0.000 S 
ENDBRANCH  14  20
ENDBRANCH   3  14
TORSDOF 8
ENDMDL
MODEL 4
REMARK VINA RESULT:      -7.1      1.302      1.608
REMARK  Name = 
REMARK  9 active torsions:
REMARK  status: ('A' for Active; 'I' for Inactive)
REMARK    1  A    between atoms: C_1  and  C_2
REMARK    2  A    between atoms: C_2  and  C_3
REMARK    3  A    between atoms: C_3  and  N_4
REMARK    4  A    between atoms: C_5  and  C_7
REMARK    5  A    between atoms: C_7  and  C_8
REMARK    6  A    between atoms: C_8  and  C_9
REMARK    7  A    between atoms: N_11  and  C_12
REMARK    8  A    between atoms: C_12  and  C_13
REMARK    9  A    between atoms: C_12  and  C_18
REMARK                            x       y       z     vdW  Elec       q    Type
REMARK                         _______ _______ _______ _____ _____    ______ ____
ROOT
ATOM      1  C   UNL     1       6.284   5.464  18.860  0.00  0.00    +0.000 C 
ATOM      2  O   UNL     1       6.491   5.093  20.010  0.00  0.00    +0.000 OA
ATOM      3  N   UNL     1       5.032   5.765  18.381  0.00  0.00    +0.000 N 
ATOM      4  H   UNL     1       4.913   6.062  17.422  0.00  0.00    +0.000 HD
ENDROOT
BRANCH   1   5
ATOM      5  C   UNL     1       7.401   5.614  17.849  0.00  0.00    +0.000 C 
BRANCH   5   6
ATOM      6  C   UNL     1       7.481   4.404  16.911  0.00  0.00    +0.000 C 
BRANCH   6   8
ATOM      7  N   UNL     1       6.013   3.959  15.025  0.00  0.00    +0.000 N 
ATOM      8  C   UNL     1       7.032   4.748  15.509  0.00  0.00    +0.000 C 
ATOM      9  O   UNL     1       7.538   5.667  14.859  0.00  0.00    +0.000 OA
ATOM     10  H   UNL     1       5.616   3.231  15.609  0.00  0.00    +0.000 HD
BRANCH   7  11
ATOM     11  C   UNL     1       5.481   4.166  13.690  0.00  0.00    +0.000 C 
BRANCH  11  13
ATOM     12  C   UNL     1       7.143   4.033  11.797  0.00  0.00    +0.000 C 
ATOM     13  C   UNL     1       6.127   3.269  12.635  0.00  0.00    +0.000 C 
ENDBRANCH  11  13
ENDBRANCH   7  11
ENDBRANCH   6   8
ENDBRANCH   5   6
ENDBRANCH   1   5
BRANCH   3  14
ATOM     14  C   UNL     1       3.852   5.695  19.237  0.00  0.00    +0.000 C 
BRANCH  14  15
ATOM     15  C   UNL     1       2.999   6.910  18.947  0.00  0.00    +0.000 A 
ATOM     16  C   UNL     1       2.917   7.652  17.780  0.00  0.00    +0.000 A 
ATOM     17  C   UNL     1       1.979   8.719  17.869  0.00  0.00    +0.000 A 
ATOM     18  C   UNL     1       1.388   8.777  19.109  0.00  0.00    +0.000 A 
ATOM     19  S   UNL     1       1.935   7.531  20.144  0.00  0.00    +0.000 S 
ENDBRANCH  14  15
BRANCH  14  20
ATOM     20  C   UNL     1       3.089   4.410  18.953  0.00  0.00    +0.000 A 
ATOM     21  C   UNL     1       2.280   3.655  19.787  0.00  0.00    +0.000 A 
ATOM     22  C   UNL     1       1.790   2.467  19.169  0.00  0.00    +0.000 A 
ATOM     23  C   UNL     1       2.238   2.338  17.881  0.00  0.00    +0.000 A 
ATOM     24  S   UNL     1       3.233   3.650  17.411  0.00  0.00    +0.000 S 
ENDBRANCH  14  20
ENDBRANCH   3  14
TORSDOF 8
ENDMDL
MODEL 5
REMARK VINA RESULT:      -7.0      2.925      4.444
REMARK  Name = 
REMARK  9 active torsions:
REMARK  status: ('A' for Active; 'I' for Inactive)
REMARK    1  A    between atoms: C_1  and  C_2
REMARK    2  A    between atoms: C_2  and  C_3
REMARK    3  A    between atoms: C_3  and  N_4
REMARK    4  A    between atoms: C_5  and  C_7
REMARK    5  A    between atoms: C_7  and  C_8
REMARK    6  A    between atoms: C_8  and  C_9
REMARK    7  A    between atoms: N_11  and  C_12
REMARK    8  A    between atoms: C_12  and  C_13
REMARK    9  A    between atoms: C_12  and  C_18
REMARK                            x       y       z     vdW  Elec       q    Type
REMARK                         _______ _______ _______ _____ _____    ______ ____
ROOT
ATOM      1  C   UNL     1       5.480   5.016  18.852  0.00  0.00    +0.000 C 
ATOM      2  O   UNL     1       5.713   4.629  19.992  0.00  0.00    +0.000 OA
ATOM      3  N   UNL     1       4.297   5.612  18.488  0.00  0.00    +0.000 N 
ATOM      4  H   UNL     1       4.152   5.910  17.533  0.00  0.00    +0.000 HD
ENDROOT
BRANCH   1   5
ATOM      5  C   UNL     1       6.482   4.859  17.728  0.00  0.00    +0.000 C 
BRANCH   5   6
ATOM      6  C   UNL     1       7.690   5.785  17.912  0.00  0.00    +0.000 C 
BRANCH   6   8
ATOM      7  N   UNL     1       8.196   8.154  18.112  0.00  0.00    +0.000 N 
ATOM      8  C   UNL     1       7.363   7.215  17.546  0.00  0.00    +0.000 C 
ATOM      9  O   UNL     1       6.428   7.509  16.797  0.00  0.00    +0.000 OA
ATOM     10  H   UNL     1       8.965   7.857  18.703  0.00  0.00    +0.000 HD
BRANCH   7  11
ATOM     11  C   UNL     1       8.003   9.570  17.857  0.00  0.00    +0.000 C 
BRANCH  11  13
ATOM     12  C   UNL     1       9.373  10.441  19.789  0.00  0.00    +0.000 C 
ATOM     13  C   UNL     1       9.195  10.430  18.277  0.00  0.00    +0.000 C 
ENDBRANCH  11  13
ENDBRANCH   7  11
ENDBRANCH   6   8
ENDBRANCH   5   6
ENDBRANCH   1   5
BRANCH   3  14
ATOM     14  C   UNL     1       3.238   5.860  19.461  0.00  0.00    +0.000 C 
BRANCH  14  15
ATOM     15  C   UNL     1       2.583   7.176  19.104  0.00  0.00    +0.000 A 
ATOM     16  C   UNL     1       2.598   7.851  17.895  0.00  0.00    +0.000 A 
ATOM     17  C   UNL     1       1.842   9.057  17.927  0.00  0.00    +0.000 A 
ATOM     18  C   UNL     1       1.290   9.281  19.167  0.00  0.00    +0.000 A 
ATOM     19  S   UNL     1       1.652   8.027  20.271  0.00  0.00    +0.000 S 
ENDBRANCH  14  15
BRANCH  14  20
ATOM     20  C   UNL     1       2.232   4.719  19.423  0.00  0.00    +0.000 A 
ATOM     21  C   UNL     1       1.465   4.177  20.443  0.00  0.00    +0.000 A 
ATOM     22  C   UNL     1       0.683   3.062  20.024  0.00  0.00    +0.000 A 
ATOM     23  C   UNL     1       0.870   2.773  18.698  0.00  0.00    +0.000 A 
ATOM     24  S   UNL     1       1.974   3.851  17.954  0.00  0.00    +0.000 S 
ENDBRANCH  14  20
ENDBRANCH   3  14
TORSDOF 8
ENDMDL
MODEL 6
REMARK VINA RESULT:      -7.0      1.132      1.377
REMARK  Name = 
REMARK  9 active torsions:
REMARK  status: ('A' for Active; 'I' for Inactive)
REMARK    1  A    between atoms: C_1  and  C_2
REMARK    2  A    between atoms: C_2  and  C_3
REMARK    3  A    between atoms: C_3  and  N_4
REMARK    4  A    between atoms: C_5  and  C_7
REMARK    5  A    between atoms: C_7  and  C_8
REMARK    6  A    between atoms: C_8  and  C_9
REMARK    7  A    between atoms: N_11  and  C_12
REMARK    8  A    between atoms: C_12  and  C_13
REMARK    9  A    between atoms: C_12  and  C_18
REMARK                            x       y       z     vdW  Elec       q    Type
REMARK                         _______ _______ _______ _____ _____    ______ ____
ROOT
ATOM      1  C   UNL     1       5.843   4.981  18.911  0.00  0.00    +0.000 C 
ATOM      2  O   UNL     1       6.183   4.869  20.083  0.00  0.00    +0.000 OA
ATOM      3  N   UNL     1       4.577   5.356  18.528  0.00  0.00    +0.000 N 
ATOM      4  H   UNL     1       4.345   5.431  17.547  0.00  0.00    +0.000 HD
ENDROOT
BRANCH   1   5
ATOM      5  C   UNL     1       6.793   4.703  17.766  0.00  0.00    +0.000 C 
BRANCH   5   6
ATOM      6  C   UNL     1       6.862   5.882  16.788  0.00  0.00    +0.000 C 
BRANCH   6   8
ATOM      7  N   UNL     1       6.188   4.366  15.011  0.00  0.00    +0.000 N 
ATOM      8  C   UNL     1       6.043   5.628  15.543  0.00  0.00    +0.000 C 
ATOM      9  O   UNL     1       5.303   6.484  15.052  0.00  0.00    +0.000 OA
ATOM     10  H   UNL     1       6.793   3.691  15.468  0.00  0.00    +0.000 HD
BRANCH   7  11
ATOM     11  C   UNL     1       5.471   3.977  13.811  0.00  0.00    +0.000 C 
BRANCH  11  13
ATOM     12  C   UNL     1       5.894   2.548  11.774  0.00  0.00    +0.000 C 
ATOM     13  C   UNL     1       6.386   3.719  12.615  0.00  0.00    +0.000 C 
ENDBRANCH  11  13
ENDBRANCH   7  11
ENDBRANCH   6   8
ENDBRANCH   5   6
ENDBRANCH   1   5
BRANCH   3  14
ATOM     14  C   UNL     1       3.551   5.685  19.511  0.00  0.00    +0.000 C 
BRANCH  14  15
ATOM     15  C   UNL     1       2.868   6.957  19.058  0.00  0.00    +0.000 A 
ATOM     16  C   UNL     1       2.914   7.569  17.816  0.00  0.00    +0.000 A 
ATOM     17  C   UNL     1       2.118   8.747  17.753  0.00  0.00    +0.000 A 
ATOM     18  C   UNL     1       1.504   9.015  18.954  0.00  0.00    +0.000 A 
ATOM     19  S   UNL     1       1.858   7.832  20.137  0.00  0.00    +0.000 S 
ENDBRANCH  14  15
BRANCH  14  20
ATOM     20  C   UNL     1       2.557   4.538  19.617  0.00  0.00    +0.000 A 
ATOM     21  C   UNL     1       2.083   3.873  20.736  0.00  0.00    +0.000 A 
ATOM     22  C   UNL     1       1.203   2.797  20.420  0.00  0.00    +0.000 A 
ATOM     23  C   UNL     1       1.028   2.659  19.068  0.00  0.00    +0.000 A 
ATOM     24  S   UNL     1       1.907   3.832  18.182  0.00  0.00    +0.000 S 
ENDBRANCH  14  20
ENDBRANCH   3  14
TORSDOF 8
ENDMDL
MODEL 7
REMARK VINA RESULT:      -6.9      1.117      1.375
REMARK  Name = 
REMARK  9 active torsions:
REMARK  status: ('A' for Active; 'I' for Inactive)
REMARK    1  A    between atoms: C_1  and  C_2
REMARK    2  A    between atoms: C_2  and  C_3
REMARK    3  A    between atoms: C_3  and  N_4
REMARK    4  A    between atoms: C_5  and  C_7
REMARK    5  A    between atoms: C_7  and  C_8
REMARK    6  A    between atoms: C_8  and  C_9
REMARK    7  A    between atoms: N_11  and  C_12
REMARK    8  A    between atoms: C_12  and  C_13
REMARK    9  A    between atoms: C_12  and  C_18
REMARK                            x       y       z     vdW  Elec       q    Type
REMARK                         _______ _______ _______ _____ _____    ______ ____
ROOT
ATOM      1  C   UNL     1       5.447   4.726  19.041  0.00  0.00    +0.000 C 
ATOM      2  O   UNL     1       5.257   3.842  19.868  0.00  0.00    +0.000 OA
ATOM      3  N   UNL     1       4.558   5.750  18.817  0.00  0.00    +0.000 N 
ATOM      4  H   UNL     1       4.760   6.454  18.120  0.00  0.00    +0.000 HD
ENDROOT
BRANCH   1   5
ATOM      5  C   UNL     1       6.688   4.765  18.174  0.00  0.00    +0.000 C 
BRANCH   5   6
ATOM      6  C   UNL     1       6.820   6.102  17.436  0.00  0.00    +0.000 C 
BRANCH   6   8
ATOM      7  N   UNL     1       7.268   5.108  15.263  0.00  0.00    +0.000 N 
ATOM      8  C   UNL     1       6.466   5.975  15.972  0.00  0.00    +0.000 C 
ATOM      9  O   UNL     1       5.529   6.594  15.462  0.00  0.00    +0.000 OA
ATOM     10  H   UNL     1       8.010   4.605  15.736  0.00  0.00    +0.000 HD
BRANCH   7  11
ATOM     11  C   UNL     1       7.053   4.886  13.845  0.00  0.00    +0.000 C 
BRANCH  11  13
ATOM     12  C   UNL     1       6.154   3.297  12.103  0.00  0.00    +0.000 C 
ATOM     13  C   UNL     1       6.064   3.759  13.551  0.00  0.00    +0.000 C 
ENDBRANCH  11  13
ENDBRANCH   7  11
ENDBRANCH   6   8
ENDBRANCH   5   6
ENDBRANCH   1   5
BRANCH   3  14
ATOM     14  C   UNL     1       3.326   5.871  19.589  0.00  0.00    +0.000 C 
BRANCH  14  15
ATOM     15  C   UNL     1       2.647   7.158  19.175  0.00  0.00    +0.000 A 
ATOM     16  C   UNL     1       2.705   7.816  17.958  0.00  0.00    +0.000 A 
ATOM     17  C   UNL     1       1.908   8.994  17.929  0.00  0.00    +0.000 A 
ATOM     18  C   UNL     1       1.281   9.217  19.132  0.00  0.00    +0.000 A 
ATOM     19  S   UNL     1       1.623   7.992  20.275  0.00  0.00    +0.000 S 
ENDBRANCH  14  15
BRANCH  14  20
ATOM     20  C   UNL     1       2.433   4.669  19.319  0.00  0.00    +0.000 A 
ATOM     21  C   UNL     1       2.050   4.100  18.114  0.00  0.00    +0.000 A 
ATOM     22  C   UNL     1       1.141   3.013  18.271  0.00  0.00    +0.000 A 
ATOM     23  C   UNL     1       0.847   2.777  19.588  0.00  0.00    +0.000 A 
ATOM     24  S   UNL     1       1.674   3.851  20.635  0.00  0.00    +0.000 S 
ENDBRANCH  14  20
ENDBRANCH   3  14
TORSDOF 8
ENDMDL
MODEL 8
REMARK VINA RESULT:      -6.9      1.043      1.304
REMARK  Name = 
REMARK  9 active torsions:
REMARK  status: ('A' for Active; 'I' for Inactive)
REMARK    1  A    between atoms: C_1  and  C_2
REMARK    2  A    between atoms: C_2  and  C_3
REMARK    3  A    between atoms: C_3  and  N_4
REMARK    4  A    between atoms: C_5  and  C_7
REMARK    5  A    between atoms: C_7  and  C_8
REMARK    6  A    between atoms: C_8  and  C_9
REMARK    7  A    between atoms: N_11  and  C_12
REMARK    8  A    between atoms: C_12  and  C_13
REMARK    9  A    between atoms: C_12  and  C_18
REMARK                            x       y       z     vdW  Elec       q    Type
REMARK                         _______ _______ _______ _____ _____    ______ ____
ROOT
ATOM      1  C   UNL     1       5.724   5.512  18.747  0.00  0.00    +0.000 C 
ATOM      2  O   UNL     1       5.938   5.012  19.845  0.00  0.00    +0.000 OA
ATOM      3  N   UNL     1       4.506   6.035  18.383  0.00  0.00    +0.000 N 
ATOM      4  H   UNL     1       4.380   6.433  17.463  0.00  0.00    +0.000 HD
ENDROOT
BRANCH   1   5
ATOM      5  C   UNL     1       6.791   5.589  17.675  0.00  0.00    +0.000 C 
BRANCH   5   6
ATOM      6  C   UNL     1       6.801   4.333  16.796  0.00  0.00    +0.000 C 
BRANCH   6   8
ATOM      7  N   UNL     1       6.272   3.566  14.550  0.00  0.00    +0.000 N 
ATOM      8  C   UNL     1       6.078   4.557  15.487  0.00  0.00    +0.000 C 
ATOM      9  O   UNL     1       5.369   5.545  15.283  0.00  0.00    +0.000 OA
ATOM     10  H   UNL     1       6.847   2.761  14.777  0.00  0.00    +0.000 HD
BRANCH   7  11
ATOM     11  C   UNL     1       5.648   3.645  13.242  0.00  0.00    +0.000 C 
BRANCH  11  13
ATOM     12  C   UNL     1       7.443   4.855  11.947  0.00  0.00    +0.000 C 
ATOM     13  C   UNL     1       6.647   3.566  12.089  0.00  0.00    +0.000 C 
ENDBRANCH  11  13
ENDBRANCH   7  11
ENDBRANCH   6   8
ENDBRANCH   5   6
ENDBRANCH   1   5
BRANCH   3  14
ATOM     14  C   UNL     1       3.381   6.061  19.312  0.00  0.00    +0.000 C 
BRANCH  14  15
ATOM     15  C   UNL     1       2.588   7.320  19.040  0.00  0.00    +0.000 A 
ATOM     16  C   UNL     1       2.459   8.024  17.854  0.00  0.00    +0.000 A 
ATOM     17  C   UNL     1       1.602   9.154  17.973  0.00  0.00    +0.000 A 
ATOM     18  C   UNL     1       1.119   9.297  19.252  0.00  0.00    +0.000 A 
ATOM     19  S   UNL     1       1.667   8.053  20.291  0.00  0.00    +0.000 S 
ENDBRANCH  14  15
BRANCH  14  20
ATOM     20  C   UNL     1       2.524   4.820  19.112  0.00  0.00    +0.000 A 
ATOM     21  C   UNL     1       2.179   4.158  17.945  0.00  0.00    +0.000 A 
ATOM     22  C   UNL     1       1.295   3.061  18.162  0.00  0.00    +0.000 A 
ATOM     23  C   UNL     1       0.981   2.911  19.487  0.00  0.00    +0.000 A 
ATOM     24  S   UNL     1       1.760   4.078  20.469  0.00  0.00    +0.000 S 
ENDBRANCH  14  20
ENDBRANCH   3  14
TORSDOF 8
ENDMDL
MODEL 9
REMARK VINA RESULT:      -6.8      3.001      4.488
REMARK  Name = 
REMARK  9 active torsions:
REMARK  status: ('A' for Active; 'I' for Inactive)
REMARK    1  A    between atoms: C_1  and  C_2
REMARK    2  A    between atoms: C_2  and  C_3
REMARK    3  A    between atoms: C_3  and  N_4
REMARK    4  A    between atoms: C_5  and  C_7
REMARK    5  A    between atoms: C_7  and  C_8
REMARK    6  A    between atoms: C_8  and  C_9
REMARK    7  A    between atoms: N_11  and  C_12
REMARK    8  A    between atoms: C_12  and  C_13
REMARK    9  A    between atoms: C_12  and  C_18
REMARK                            x       y       z     vdW  Elec       q    Type
REMARK                         _______ _______ _______ _____ _____    ______ ____
ROOT
ATOM      1  C   UNL     1       5.543   5.175  18.551  0.00  0.00    +0.000 C 
ATOM      2  O   UNL     1       5.742   4.532  19.575  0.00  0.00    +0.000 OA
ATOM      3  N   UNL     1       4.399   5.903  18.329  0.00  0.00    +0.000 N 
ATOM      4  H   UNL     1       4.281   6.413  17.465  0.00  0.00    +0.000 HD
ENDROOT
BRANCH   1   5
ATOM      5  C   UNL     1       6.547   5.215  17.418  0.00  0.00    +0.000 C 
BRANCH   5   6
ATOM      6  C   UNL     1       6.844   6.654  16.977  0.00  0.00    +0.000 C 
BRANCH   6   8
ATOM      7  N   UNL     1       7.903   8.713  17.718  0.00  0.00    +0.000 N 
ATOM      8  C   UNL     1       7.760   7.362  17.948  0.00  0.00    +0.000 C 
ATOM      9  O   UNL     1       8.326   6.774  18.873  0.00  0.00    +0.000 OA
ATOM     10  H   UNL     1       7.397   9.152  16.957  0.00  0.00    +0.000 HD
BRANCH   7  11
ATOM     11  C   UNL     1       8.757   9.526  18.565  0.00  0.00    +0.000 C 
BRANCH  11  13
ATOM     12  C   UNL     1      10.330  11.385  17.907  0.00  0.00    +0.000 C 
ATOM     13  C   UNL     1       8.876  10.974  18.092  0.00  0.00    +0.000 C 
ENDBRANCH  11  13
ENDBRANCH   7  11
ENDBRANCH   6   8
ENDBRANCH   5   6
ENDBRANCH   1   5
BRANCH   3  14
ATOM     14  C   UNL     1       3.345   5.987  19.335  0.00  0.00    +0.000 C 
BRANCH  14  15
ATOM     15  C   UNL     1       2.560   7.255  19.075  0.00  0.00    +0.000 A 
ATOM     16  C   UNL     1       2.412   7.954  17.889  0.00  0.00    +0.000 A 
ATOM     17  C   UNL     1       1.573   9.096  18.023  0.00  0.00    +0.000 A 
ATOM     18  C   UNL     1       1.121   9.250  19.312  0.00  0.00    +0.000 A 
ATOM     19  S   UNL     1       1.678   8.005  20.344  0.00  0.00    +0.000 S 
ENDBRANCH  14  15
BRANCH  14  20
ATOM     20  C   UNL     1       2.449   4.761  19.241  0.00  0.00    +0.000 A 
ATOM     21  C   UNL     1       1.815   4.206  18.141  0.00  0.00    +0.000 A 
ATOM     22  C   UNL     1       1.000   3.084  18.471  0.00  0.00    +0.000 A 
ATOM     23  C   UNL     1       1.024   2.809  19.812  0.00  0.00    +0.000 A 
ATOM     24  S   UNL     1       2.038   3.888  20.672  0.00  0.00    +0.000 S 
ENDBRANCH  14  20
ENDBRANCH   3  14
TORSDOF 8
ENDMDL
