MODEL 1
REMARK VINA RESULT:      -8.0      0.000      0.000
REMARK  Name = 
REMARK  8 active torsions:
REMARK  status: ('A' for Active; 'I' for Inactive)
REMARK    1  A    between atoms: C_1  and  C_2
REMARK    2  A    between atoms: N_4  and  C_5
REMARK    3  A    between atoms: C_5  and  C_6
REMARK    4  A    between atoms: C_16  and  O_17
REMARK    5  A    between atoms: C_21  and  C_22
REMARK    6  A    between atoms: N_24  and  C_25
REMARK    7  A    between atoms: C_25  and  C_26
REMARK    8  A    between atoms: C_25  and  C_27
REMARK                            x       y       z     vdW  Elec       q    Type
REMARK                         _______ _______ _______ _____ _____    ______ ____
ROOT
ATOM      1  C   UNL     1       0.335   9.508  23.116  0.00  0.00    +0.000 C 
ATOM      2  C   UNL     1       0.504   9.333  21.641  0.00  0.00    +0.000 A 
ATOM      3  N   UNL     1       1.393   8.447  21.293  0.00  0.00    +0.000 NA
ATOM      4  N   UNL     1       1.638   8.180  19.953  0.00  0.00    +0.000 N 
ATOM      5  C   UNL     1       0.970   8.799  18.890  0.00  0.00    +0.000 A 
ATOM      6  O   UNL     1       1.159   8.552  17.701  0.00  0.00    +0.000 OA
ATOM      7  C   UNL     1       0.007   9.798  19.304  0.00  0.00    +0.000 A 
ATOM      8  C   UNL     1      -0.864  10.572  18.525  0.00  0.00    +0.000 A 
ATOM      9  C   UNL     1      -1.668  11.309  19.363  0.00  0.00    +0.000 A 
ATOM     10  N   UNL     1      -1.194  11.089  20.671  0.00  0.00    +0.000 N 
ATOM     11  C   UNL     1      -0.229  10.089  20.642  0.00  0.00    +0.000 A 
ATOM     12  C   UNL     1      -1.858  11.748  21.805  0.00  0.00    +0.000 C 
ATOM     13  C   UNL     1      -0.943  12.359  22.872  0.00  0.00    +0.000 C 
ATOM     14  C   UNL     1      -2.720  12.920  21.303  0.00  0.00    +0.000 C 
ATOM     15  N   UNL     1      -3.518  12.589  20.145  0.00  0.00    +0.000 N 
ATOM     16  C   UNL     1      -2.868  12.068  19.031  0.00  0.00    +0.000 C 
ATOM     17  O   UNL     1      -3.350  12.163  17.907  0.00  0.00    +0.000 OA
ENDROOT
BRANCH  15  18
ATOM     18  C   UNL     1      -4.984  12.597  20.202  0.00  0.00    +0.000 C 
ATOM     19  C   UNL     1      -5.450  12.450  21.654  0.00  0.00    +0.000 C 
ATOM     20  C   UNL     1      -5.601  13.828  19.545  0.00  0.00    +0.000 C 
ENDBRANCH  15  18
BRANCH   8  21
ATOM     21  O   UNL     1      -0.987  10.535  17.188  0.00  0.00    +0.000 OA
ATOM     22  H   UNL     1      -1.364  11.375  16.861  0.00  0.00    +0.000 HD
ENDBRANCH   8  21
BRANCH   4  23
ATOM     23  C   UNL     1       2.678   7.198  19.682  0.00  0.00    +0.000 C 
BRANCH  23  24
ATOM     24  C   UNL     1       2.139   5.808  19.431  0.00  0.00    +0.000 A 
ATOM     25  C   UNL     1       2.181   5.253  18.142  0.00  0.00    +0.000 A 
ATOM     26  C   UNL     1       1.721   3.957  17.914  0.00  0.00    +0.000 A 
ATOM     27  C   UNL     1       1.205   3.216  18.971  0.00  0.00    +0.000 A 
ATOM     28  F   UNL     1       0.773   1.967  18.751  0.00  0.00    +0.000 F 
ATOM     29  C   UNL     1       1.135   3.751  20.252  0.00  0.00    +0.000 A 
ATOM     30  C   UNL     1       1.596   5.049  20.481  0.00  0.00    +0.000 A 
ENDBRANCH  23  24
ENDBRANCH   4  23
TORSDOF 4
ENDMDL
MODEL 2
REMARK VINA RESULT:      -7.3      2.155      3.102
REMARK  Name = 
REMARK  8 active torsions:
REMARK  status: ('A' for Active; 'I' for Inactive)
REMARK    1  A    between atoms: C_1  and  C_2
REMARK    2  A    between atoms: N_4  and  C_5
REMARK    3  A    between atoms: C_5  and  C_6
REMARK    4  A    between atoms: C_16  and  O_17
REMARK    5  A    between atoms: C_21  and  C_22
REMARK    6  A    between atoms: N_24  and  C_25
REMARK    7  A    between atoms: C_25  and  C_26
REMARK    8  A    between atoms: C_25  and  C_27
REMARK                            x       y       z     vdW  Elec       q    Type
REMARK                         _______ _______ _______ _____ _____    ______ ____
ROOT
ATOM      1  C   UNL     1      -0.112  10.176  17.412  0.00  0.00    +0.000 C 
ATOM      2  C   UNL     1       0.341   9.682  18.749  0.00  0.00    +0.000 A 
ATOM      3  N   UNL     1       1.237   8.738  18.709  0.00  0.00    +0.000 NA
ATOM      4  N   UNL     1       1.751   8.201  19.882  0.00  0.00    +0.000 N 
ATOM      5  C   UNL     1       1.385   8.617  21.167  0.00  0.00    +0.000 A 
ATOM      6  O   UNL     1       1.852   8.168  22.211  0.00  0.00    +0.000 OA
ATOM      7  C   UNL     1       0.369   9.648  21.182  0.00  0.00    +0.000 A 
ATOM      8  C   UNL     1      -0.197  10.325  22.273  0.00  0.00    +0.000 A 
ATOM      9  C   UNL     1      -1.047  11.296  21.796  0.00  0.00    +0.000 A 
ATOM     10  N   UNL     1      -1.110  11.125  20.399  0.00  0.00    +0.000 N 
ATOM     11  C   UNL     1      -0.169  10.176  20.015  0.00  0.00    +0.000 A 
ATOM     12  C   UNL     1      -1.948  12.024  19.594  0.00  0.00    +0.000 C 
ATOM     13  C   UNL     1      -2.799  11.370  18.500  0.00  0.00    +0.000 C 
ATOM     14  C   UNL     1      -2.958  12.755  20.498  0.00  0.00    +0.000 C 
ATOM     15  N   UNL     1      -2.369  13.274  21.710  0.00  0.00    +0.000 N 
ATOM     16  C   UNL     1      -1.669  12.393  22.527  0.00  0.00    +0.000 C 
ATOM     17  O   UNL     1      -1.519  12.614  23.725  0.00  0.00    +0.000 OA
ENDROOT
BRANCH  15  18
ATOM     18  C   UNL     1      -2.321  14.717  21.976  0.00  0.00    +0.000 C 
ATOM     19  C   UNL     1      -1.709  15.448  20.777  0.00  0.00    +0.000 C 
ATOM     20  C   UNL     1      -3.681  15.302  22.344  0.00  0.00    +0.000 C 
ENDBRANCH  15  18
BRANCH   8  21
ATOM     21  O   UNL     1       0.108  10.148  23.568  0.00  0.00    +0.000 OA
ATOM     22  H   UNL     1       0.952  10.593  23.780  0.00  0.00    +0.000 HD
ENDBRANCH   8  21
BRANCH   4  23
ATOM     23  C   UNL     1       2.719   7.125  19.716  0.00  0.00    +0.000 C 
BRANCH  23  24
ATOM     24  C   UNL     1       2.080   5.785  19.431  0.00  0.00    +0.000 A 
ATOM     25  C   UNL     1       2.066   5.269  18.126  0.00  0.00    +0.000 A 
ATOM     26  C   UNL     1       1.515   4.014  17.867  0.00  0.00    +0.000 A 
ATOM     27  C   UNL     1       0.963   3.279  18.909  0.00  0.00    +0.000 A 
ATOM     28  F   UNL     1       0.442   2.070  18.659  0.00  0.00    +0.000 F 
ATOM     29  C   UNL     1       0.947   3.778  20.206  0.00  0.00    +0.000 A 
ATOM     30  C   UNL     1       1.500   5.033  20.467  0.00  0.00    +0.000 A 
ENDBRANCH  23  24
ENDBRANCH   4  23
TORSDOF 4
ENDMDL
MODEL 3
REMARK VINA RESULT:      -7.0      2.423      3.947
REMARK  Name = 
REMARK  8 active torsions:
REMARK  status: ('A' for Active; 'I' for Inactive)
REMARK    1  A    between atoms: C_1  and  C_2
REMARK    2  A    between atoms: N_4  and  C_5
REMARK    3  A    between atoms: C_5  and  C_6
REMARK    4  A    between atoms: C_16  and  O_17
REMARK    5  A    between atoms: C_21  and  C_22
REMARK    6  A    between atoms: N_24  and  C_25
REMARK    7  A    between atoms: C_25  and  C_26
REMARK    8  A    between atoms: C_25  and  C_27
REMARK                            x       y       z     vdW  Elec       q    Type
REMARK                         _______ _______ _______ _____ _____    ______ ____
ROOT
ATOM      1  C   UNL     1      -2.809  10.029  16.594  0.00  0.00    +0.000 C 
ATOM      2  C   UNL     1      -1.909  10.560  17.663  0.00  0.00    +0.000 A 
ATOM      3  N   UNL     1      -0.665  10.187  17.567  0.00  0.00    +0.000 NA
ATOM      4  N   UNL     1       0.276  10.622  18.491  0.00  0.00    +0.000 N 
ATOM      5  C   UNL     1      -0.004  11.480  19.560  0.00  0.00    +0.000 A 
ATOM      6  O   UNL     1       0.825  11.893  20.367  0.00  0.00    +0.000 OA
ATOM      7  C   UNL     1      -1.399  11.858  19.658  0.00  0.00    +0.000 A 
ATOM      8  C   UNL     1      -2.024  12.728  20.562  0.00  0.00    +0.000 A 
ATOM      9  C   UNL     1      -3.346  12.860  20.205  0.00  0.00    +0.000 A 
ATOM     10  N   UNL     1      -3.569  11.955  19.149  0.00  0.00    +0.000 N 
ATOM     11  C   UNL     1      -2.353  11.411  18.753  0.00  0.00    +0.000 A 
ATOM     12  C   UNL     1      -4.905  11.861  18.542  0.00  0.00    +0.000 C 
ATOM     13  C   UNL     1      -5.431  10.450  18.259  0.00  0.00    +0.000 C 
ATOM     14  C   UNL     1      -5.953  12.496  19.474  0.00  0.00    +0.000 C 
ATOM     15  N   UNL     1      -5.539  13.768  20.019  0.00  0.00    +0.000 N 
ATOM     16  C   UNL     1      -4.323  13.826  20.690  0.00  0.00    +0.000 C 
ATOM     17  O   UNL     1      -4.096  14.696  21.527  0.00  0.00    +0.000 OA
ENDROOT
BRANCH  15  18
ATOM     18  C   UNL     1      -6.262  15.005  19.699  0.00  0.00    +0.000 C 
ATOM     19  C   UNL     1      -6.728  14.975  18.240  0.00  0.00    +0.000 C 
ATOM     20  C   UNL     1      -7.427  15.276  20.646  0.00  0.00    +0.000 C 
ENDBRANCH  15  18
BRANCH   8  21
ATOM     21  O   UNL     1      -1.430  13.414  21.552  0.00  0.00    +0.000 OA
ATOM     22  H   UNL     1      -2.060  13.565  22.283  0.00  0.00    +0.000 HD
ENDBRANCH   8  21
BRANCH   4  23
ATOM     23  C   UNL     1       1.628  10.111  18.306  0.00  0.00    +0.000 C 
BRANCH  23  24
ATOM     24  C   UNL     1       1.829   8.728  18.882  0.00  0.00    +0.000 A 
ATOM     25  C   UNL     1       1.450   8.449  20.205  0.00  0.00    +0.000 A 
ATOM     26  C   UNL     1       1.596   7.164  20.727  0.00  0.00    +0.000 A 
ATOM     27  C   UNL     1       2.135   6.158  19.934  0.00  0.00    +0.000 A 
ATOM     28  F   UNL     1       2.265   4.922  20.434  0.00  0.00    +0.000 F 
ATOM     29  C   UNL     1       2.535   6.415  18.628  0.00  0.00    +0.000 A 
ATOM     30  C   UNL     1       2.388   7.701  18.103  0.00  0.00    +0.000 A 
ENDBRANCH  23  24
ENDBRANCH   4  23
TORSDOF 4
ENDMDL
MODEL 4
REMARK VINA RESULT:      -7.0      1.490      1.975
REMARK  Name = 
REMARK  8 active torsions:
REMARK  status: ('A' for Active; 'I' for Inactive)
REMARK    1  A    between atoms: C_1  and  C_2
REMARK    2  A    between atoms: N_4  and  C_5
REMARK    3  A    between atoms: C_5  and  C_6
REMARK    4  A    between atoms: C_16  and  O_17
REMARK    5  A    between atoms: C_21  and  C_22
REMARK    6  A    between atoms: N_24  and  C_25
REMARK    7  A    between atoms: C_25  and  C_26
REMARK    8  A    between atoms: C_25  and  C_27
REMARK                            x       y       z     vdW  Elec       q    Type
REMARK                         _______ _______ _______ _____ _____    ______ ____
ROOT
ATOM      1  C   UNL     1      -0.884  11.289  22.310  0.00  0.00    +0.000 C 
ATOM      2  C   UNL     1      -0.580  10.828  20.921  0.00  0.00    +0.000 A 
ATOM      3  N   UNL     1       0.541  10.178  20.792  0.00  0.00    +0.000 NA
ATOM      4  N   UNL     1       0.935   9.685  19.555  0.00  0.00    +0.000 N 
ATOM      5  C   UNL     1       0.188   9.817  18.379  0.00  0.00    +0.000 A 
ATOM      6  O   UNL     1       0.512   9.362  17.285  0.00  0.00    +0.000 OA
ATOM      7  C   UNL     1      -1.041  10.566  18.545  0.00  0.00    +0.000 A 
ATOM      8  C   UNL     1      -2.043  10.851  17.608  0.00  0.00    +0.000 A 
ATOM      9  C   UNL     1      -3.073  11.502  18.247  0.00  0.00    +0.000 A 
ATOM     10  N   UNL     1      -2.639  11.741  19.565  0.00  0.00    +0.000 N 
ATOM     11  C   UNL     1      -1.432  11.083  19.773  0.00  0.00    +0.000 A 
ATOM     12  C   UNL     1      -3.530  12.430  20.510  0.00  0.00    +0.000 C 
ATOM     13  C   UNL     1      -2.893  13.512  21.388  0.00  0.00    +0.000 C 
ATOM     14  C   UNL     1      -4.654  13.152  19.744  0.00  0.00    +0.000 C 
ATOM     15  N   UNL     1      -5.252  12.342  18.708  0.00  0.00    +0.000 N 
ATOM     16  C   UNL     1      -4.414  11.783  17.750  0.00  0.00    +0.000 C 
ATOM     17  O   UNL     1      -4.832  11.468  16.640  0.00  0.00    +0.000 OA
ENDROOT
BRANCH  15  18
ATOM     18  C   UNL     1      -6.662  11.942  18.773  0.00  0.00    +0.000 C 
ATOM     19  C   UNL     1      -6.774  10.508  19.300  0.00  0.00    +0.000 C 
ATOM     20  C   UNL     1      -7.518  12.901  19.596  0.00  0.00    +0.000 C 
ENDBRANCH  15  18
BRANCH   8  21
ATOM     21  O   UNL     1      -2.067  10.466  16.321  0.00  0.00    +0.000 OA
ATOM     22  H   UNL     1      -2.413   9.555  16.248  0.00  0.00    +0.000 HD
ENDBRANCH   8  21
BRANCH   4  23
ATOM     23  C   UNL     1       2.224   9.008  19.524  0.00  0.00    +0.000 C 
BRANCH  23  24
ATOM     24  C   UNL     1       2.108   7.502  19.484  0.00  0.00    +0.000 A 
ATOM     25  C   UNL     1       2.452   6.794  18.321  0.00  0.00    +0.000 A 
ATOM     26  C   UNL     1       2.385   5.402  18.293  0.00  0.00    +0.000 A 
ATOM     27  C   UNL     1       1.960   4.713  19.422  0.00  0.00    +0.000 A 
ATOM     28  F   UNL     1       1.906   3.374  19.396  0.00  0.00    +0.000 F 
ATOM     29  C   UNL     1       1.595   5.392  20.579  0.00  0.00    +0.000 A 
ATOM     30  C   UNL     1       1.663   6.786  20.608  0.00  0.00    +0.000 A 
ENDBRANCH  23  24
ENDBRANCH   4  23
TORSDOF 4
ENDMDL
MODEL 5
REMARK VINA RESULT:      -6.9      1.578      1.922
REMARK  Name = 
REMARK  8 active torsions:
REMARK  status: ('A' for Active; 'I' for Inactive)
REMARK    1  A    between atoms: C_1  and  C_2
REMARK    2  A    between atoms: N_4  and  C_5
REMARK    3  A    between atoms: C_5  and  C_6
REMARK    4  A    between atoms: C_16  and  O_17
REMARK    5  A    between atoms: C_21  and  C_22
REMARK    6  A    between atoms: N_24  and  C_25
REMARK    7  A    between atoms: C_25  and  C_26
REMARK    8  A    between atoms: C_25  and  C_27
REMARK                            x       y       z     vdW  Elec       q    Type
REMARK                         _______ _______ _______ _____ _____    ______ ____
ROOT
ATOM      1  C   UNL     1      -0.043   7.937  21.849  0.00  0.00    +0.000 C 
ATOM      2  C   UNL     1       0.631   8.555  20.665  0.00  0.00    +0.000 A 
ATOM      3  N   UNL     1       1.406   7.751  19.995  0.00  0.00    +0.000 NA
ATOM      4  N   UNL     1       2.080   8.198  18.866  0.00  0.00    +0.000 N 
ATOM      5  C   UNL     1       1.983   9.495  18.350  0.00  0.00    +0.000 A 
ATOM      6  O   UNL     1       2.554   9.894  17.337  0.00  0.00    +0.000 OA
ATOM      7  C   UNL     1       1.136  10.374  19.129  0.00  0.00    +0.000 A 
ATOM      8  C   UNL     1       0.777  11.708  18.889  0.00  0.00    +0.000 A 
ATOM      9  C   UNL     1      -0.132  12.099  19.844  0.00  0.00    +0.000 A 
ATOM     10  N   UNL     1      -0.230  11.037  20.764  0.00  0.00    +0.000 N 
ATOM     11  C   UNL     1       0.475   9.944  20.273  0.00  0.00    +0.000 A 
ATOM     12  C   UNL     1      -1.136  11.154  21.916  0.00  0.00    +0.000 C 
ATOM     13  C   UNL     1      -0.591  10.679  23.267  0.00  0.00    +0.000 C 
ATOM     14  C   UNL     1      -1.517  12.629  22.139  0.00  0.00    +0.000 C 
ATOM     15  N   UNL     1      -1.871  13.319  20.920  0.00  0.00    +0.000 N 
ATOM     16  C   UNL     1      -0.960  13.298  19.870  0.00  0.00    +0.000 C 
ATOM     17  O   UNL     1      -0.961  14.170  19.005  0.00  0.00    +0.000 OA
ENDROOT
BRANCH  15  18
ATOM     18  C   UNL     1      -3.224  13.845  20.707  0.00  0.00    +0.000 C 
ATOM     19  C   UNL     1      -4.108  12.769  20.068  0.00  0.00    +0.000 C 
ATOM     20  C   UNL     1      -3.858  14.395  21.982  0.00  0.00    +0.000 C 
ENDBRANCH  15  18
BRANCH   8  21
ATOM     21  O   UNL     1       1.158  12.462  17.845  0.00  0.00    +0.000 OA
ATOM     22  H   UNL     1       2.120  12.372  17.697  0.00  0.00    +0.000 HD
ENDBRANCH   8  21
BRANCH   4  23
ATOM     23  C   UNL     1       2.947   7.222  18.219  0.00  0.00    +0.000 C 
BRANCH  23  24
ATOM     24  C   UNL     1       2.645   5.796  18.617  0.00  0.00    +0.000 A 
ATOM     25  C   UNL     1       3.222   5.243  19.771  0.00  0.00    +0.000 A 
ATOM     26  C   UNL     1       2.914   3.941  20.163  0.00  0.00    +0.000 A 
ATOM     27  C   UNL     1       2.038   3.183  19.395  0.00  0.00    +0.000 A 
ATOM     28  F   UNL     1       1.736   1.935  19.779  0.00  0.00    +0.000 F 
ATOM     29  C   UNL     1       1.470   3.701  18.238  0.00  0.00    +0.000 A 
ATOM     30  C   UNL     1       1.777   5.005  17.845  0.00  0.00    +0.000 A 
ENDBRANCH  23  24
ENDBRANCH   4  23
TORSDOF 4
ENDMDL
MODEL 6
REMARK VINA RESULT:      -6.9      1.809      2.229
REMARK  Name = 
REMARK  8 active torsions:
REMARK  status: ('A' for Active; 'I' for Inactive)
REMARK    1  A    between atoms: C_1  and  C_2
REMARK    2  A    between atoms: N_4  and  C_5
REMARK    3  A    between atoms: C_5  and  C_6
REMARK    4  A    between atoms: C_16  and  O_17
REMARK    5  A    between atoms: C_21  and  C_22
REMARK    6  A    between atoms: N_24  and  C_25
REMARK    7  A    between atoms: C_25  and  C_26
REMARK    8  A    between atoms: C_25  and  C_27
REMARK                            x       y       z     vdW  Elec       q    Type
REMARK                         _______ _______ _______ _____ _____    ______ ____
ROOT
ATOM      1  C   UNL     1       0.527   7.527  21.587  0.00  0.00    +0.000 C 
ATOM      2  C   UNL     1       1.041   8.343  20.444  0.00  0.00    +0.000 A 
ATOM      3  N   UNL     1       1.836   7.708  19.631  0.00  0.00    +0.000 NA
ATOM      4  N   UNL     1       2.372   8.348  18.523  0.00  0.00    +0.000 N 
ATOM      5  C   UNL     1       2.109   9.678  18.175  0.00  0.00    +0.000 A 
ATOM      6  O   UNL     1       2.556  10.248  17.183  0.00  0.00    +0.000 OA
ATOM      7  C   UNL     1       1.245  10.368  19.110  0.00  0.00    +0.000 A 
ATOM      8  C   UNL     1       0.740  11.675  19.058  0.00  0.00    +0.000 A 
ATOM      9  C   UNL     1      -0.125  11.856  20.112  0.00  0.00    +0.000 A 
ATOM     10  N   UNL     1      -0.046  10.692  20.901  0.00  0.00    +0.000 N 
ATOM     11  C   UNL     1       0.721   9.743  20.235  0.00  0.00    +0.000 A 
ATOM     12  C   UNL     1      -0.865  10.580  22.116  0.00  0.00    +0.000 C 
ATOM     13  C   UNL     1      -0.172  10.015  23.360  0.00  0.00    +0.000 C 
ATOM     14  C   UNL     1      -1.370  11.971  22.541  0.00  0.00    +0.000 C 
ATOM     15  N   UNL     1      -1.884  12.754  21.442  0.00  0.00    +0.000 N 
ATOM     16  C   UNL     1      -1.061  12.950  20.339  0.00  0.00    +0.000 C 
ATOM     17  O   UNL     1      -1.215  13.910  19.588  0.00  0.00    +0.000 OA
ENDROOT
BRANCH  15  18
ATOM     18  C   UNL     1      -3.295  13.155  21.386  0.00  0.00    +0.000 C 
ATOM     19  C   UNL     1      -3.979  12.491  20.187  0.00  0.00    +0.000 C 
ATOM     20  C   UNL     1      -4.049  12.868  22.681  0.00  0.00    +0.000 C 
ENDBRANCH  15  18
BRANCH   8  21
ATOM     21  O   UNL     1       0.962  12.579  18.090  0.00  0.00    +0.000 OA
ATOM     22  H   UNL     1       0.206  13.195  18.024  0.00  0.00    +0.000 HD
ENDBRANCH   8  21
BRANCH   4  23
ATOM     23  C   UNL     1       3.277   7.551  17.706  0.00  0.00    +0.000 C 
BRANCH  23  24
ATOM     24  C   UNL     1       3.326   6.096  18.113  0.00  0.00    +0.000 A 
ATOM     25  C   UNL     1       2.247   5.243  17.830  0.00  0.00    +0.000 A 
ATOM     26  C   UNL     1       2.305   3.892  18.168  0.00  0.00    +0.000 A 
ATOM     27  C   UNL     1       3.436   3.392  18.803  0.00  0.00    +0.000 A 
ATOM     28  F   UNL     1       3.493   2.091  19.118  0.00  0.00    +0.000 F 
ATOM     29  C   UNL     1       4.507   4.221  19.113  0.00  0.00    +0.000 A 
ATOM     30  C   UNL     1       4.451   5.574  18.773  0.00  0.00    +0.000 A 
ENDBRANCH  23  24
ENDBRANCH   4  23
TORSDOF 4
ENDMDL
MODEL 7
REMARK VINA RESULT:      -6.9      2.115      3.003
REMARK  Name = 
REMARK  8 active torsions:
REMARK  status: ('A' for Active; 'I' for Inactive)
REMARK    1  A    between atoms: C_1  and  C_2
REMARK    2  A    between atoms: N_4  and  C_5
REMARK    3  A    between atoms: C_5  and  C_6
REMARK    4  A    between atoms: C_16  and  O_17
REMARK    5  A    between atoms: C_21  and  C_22
REMARK    6  A    between atoms: N_24  and  C_25
REMARK    7  A    between atoms: C_25  and  C_26
REMARK    8  A    between atoms: C_25  and  C_27
REMARK                            x       y       z     vdW  Elec       q    Type
REMARK                         _______ _______ _______ _____ _____    ______ ____
ROOT
ATOM      1  C   UNL     1       0.600  13.387  21.403  0.00  0.00    +0.000 C 
ATOM      2  C   UNL     1       0.055  12.504  20.327  0.00  0.00    +0.000 A 
ATOM      3  N   UNL     1       0.940  11.760  19.728  0.00  0.00    +0.000 NA
ATOM      4  N   UNL     1       0.562  10.885  18.718  0.00  0.00    +0.000 N 
ATOM      5  C   UNL     1      -0.754  10.712  18.276  0.00  0.00    +0.000 A 
ATOM      6  O   UNL     1      -1.105   9.921  17.403  0.00  0.00    +0.000 OA
ATOM      7  C   UNL     1      -1.713  11.569  18.940  0.00  0.00    +0.000 A 
ATOM      8  C   UNL     1      -3.106  11.633  18.787  0.00  0.00    +0.000 A 
ATOM      9  C   UNL     1      -3.610  12.526  19.705  0.00  0.00    +0.000 A 
ATOM     10  N   UNL     1      -2.500  13.120  20.337  0.00  0.00    +0.000 N 
ATOM     11  C   UNL     1      -1.343  12.464  19.935  0.00  0.00    +0.000 A 
ATOM     12  C   UNL     1      -2.715  14.131  21.383  0.00  0.00    +0.000 C 
ATOM     13  C   UNL     1      -1.823  15.375  21.327  0.00  0.00    +0.000 C 
ATOM     14  C   UNL     1      -4.155  14.672  21.305  0.00  0.00    +0.000 C 
ATOM     15  N   UNL     1      -5.148  13.635  21.144  0.00  0.00    +0.000 N 
ATOM     16  C   UNL     1      -4.999  12.748  20.084  0.00  0.00    +0.000 C 
ATOM     17  O   UNL     1      -5.960  12.144  19.617  0.00  0.00    +0.000 OA
ENDROOT
BRANCH  15  18
ATOM     18  C   UNL     1      -6.162  13.386  22.174  0.00  0.00    +0.000 C 
ATOM     19  C   UNL     1      -5.483  13.016  23.497  0.00  0.00    +0.000 C 
ATOM     20  C   UNL     1      -7.129  14.552  22.357  0.00  0.00    +0.000 C 
ENDBRANCH  15  18
BRANCH   8  21
ATOM     21  O   UNL     1      -3.855  10.879  17.967  0.00  0.00    +0.000 OA
ATOM     22  H   UNL     1      -4.535  11.429  17.531  0.00  0.00    +0.000 HD
ENDBRANCH   8  21
BRANCH   4  23
ATOM     23  C   UNL     1       1.642  10.132  18.095  0.00  0.00    +0.000 C 
BRANCH  23  24
ATOM     24  C   UNL     1       1.865   8.775  18.722  0.00  0.00    +0.000 A 
ATOM     25  C   UNL     1       2.486   7.749  17.992  0.00  0.00    +0.000 A 
ATOM     26  C   UNL     1       2.729   6.509  18.581  0.00  0.00    +0.000 A 
ATOM     27  C   UNL     1       2.340   6.285  19.896  0.00  0.00    +0.000 A 
ATOM     28  F   UNL     1       2.584   5.096  20.462  0.00  0.00    +0.000 F 
ATOM     29  C   UNL     1       1.705   7.279  20.632  0.00  0.00    +0.000 A 
ATOM     30  C   UNL     1       1.462   8.521  20.045  0.00  0.00    +0.000 A 
ENDBRANCH  23  24
ENDBRANCH   4  23
TORSDOF 4
ENDMDL
MODEL 8
REMARK VINA RESULT:      -6.8      2.160      3.278
REMARK  Name = 
REMARK  8 active torsions:
REMARK  status: ('A' for Active; 'I' for Inactive)
REMARK    1  A    between atoms: C_1  and  C_2
REMARK    2  A    between atoms: N_4  and  C_5
REMARK    3  A    between atoms: C_5  and  C_6
REMARK    4  A    between atoms: C_16  and  O_17
REMARK    5  A    between atoms: C_21  and  C_22
REMARK    6  A    between atoms: N_24  and  C_25
REMARK    7  A    between atoms: C_25  and  C_26
REMARK    8  A    between atoms: C_25  and  C_27
REMARK                            x       y       z     vdW  Elec       q    Type
REMARK                         _______ _______ _______ _____ _____    ______ ____
ROOT
ATOM      1  C   UNL     1      -0.079  10.287  17.436  0.00  0.00    +0.000 C 
ATOM      2  C   UNL     1       0.368   9.760  18.762  0.00  0.00    +0.000 A 
ATOM      3  N   UNL     1       1.271   8.823  18.704  0.00  0.00    +0.000 NA
ATOM      4  N   UNL     1       1.779   8.258  19.865  0.00  0.00    +0.000 N 
ATOM      5  C   UNL     1       1.400   8.636  21.158  0.00  0.00    +0.000 A 
ATOM      6  O   UNL     1       1.862   8.162  22.194  0.00  0.00    +0.000 OA
ATOM      7  C   UNL     1       0.377   9.660  21.193  0.00  0.00    +0.000 A 
ATOM      8  C   UNL     1      -0.202  10.302  22.297  0.00  0.00    +0.000 A 
ATOM      9  C   UNL     1      -1.055  11.280  21.841  0.00  0.00    +0.000 A 
ATOM     10  N   UNL     1      -1.106  11.147  20.440  0.00  0.00    +0.000 N 
ATOM     11  C   UNL     1      -0.156  10.216  20.037  0.00  0.00    +0.000 A 
ATOM     12  C   UNL     1      -1.945  12.062  19.652  0.00  0.00    +0.000 C 
ATOM     13  C   UNL     1      -2.782  11.433  18.534  0.00  0.00    +0.000 C 
ATOM     14  C   UNL     1      -2.967  12.760  20.568  0.00  0.00    +0.000 C 
ATOM     15  N   UNL     1      -2.391  13.251  21.799  0.00  0.00    +0.000 N 
ATOM     16  C   UNL     1      -1.692  12.352  22.596  0.00  0.00    +0.000 C 
ATOM     17  O   UNL     1      -1.552  12.541  23.801  0.00  0.00    +0.000 OA
ENDROOT
BRANCH  15  18
ATOM     18  C   UNL     1      -2.355  14.685  22.104  0.00  0.00    +0.000 C 
ATOM     19  C   UNL     1      -3.342  15.003  23.232  0.00  0.00    +0.000 C 
ATOM     20  C   UNL     1      -0.955  15.191  22.436  0.00  0.00    +0.000 C 
ENDBRANCH  15  18
BRANCH   8  21
ATOM     21  O   UNL     1       0.094  10.091  23.590  0.00  0.00    +0.000 OA
ATOM     22  H   UNL     1       0.983  10.442  23.793  0.00  0.00    +0.000 HD
ENDBRANCH   8  21
BRANCH   4  23
ATOM     23  C   UNL     1       2.756   7.194  19.677  0.00  0.00    +0.000 C 
BRANCH  23  24
ATOM     24  C   UNL     1       2.127   5.845  19.414  0.00  0.00    +0.000 A 
ATOM     25  C   UNL     1       1.564   5.107  20.467  0.00  0.00    +0.000 A 
ATOM     26  C   UNL     1       0.947   3.881  20.221  0.00  0.00    +0.000 A 
ATOM     27  C   UNL     1       0.905   3.381  18.925  0.00  0.00    +0.000 A 
ATOM     28  F   UNL     1       0.303   2.207  18.690  0.00  0.00    +0.000 F 
ATOM     29  C   UNL     1       1.474   4.084  17.869  0.00  0.00    +0.000 A 
ATOM     30  C   UNL     1       2.091   5.312  18.113  0.00  0.00    +0.000 A 
ENDBRANCH  23  24
ENDBRANCH   4  23
TORSDOF 4
ENDMDL
MODEL 9
REMARK VINA RESULT:      -6.8      1.691      1.833
REMARK  Name = 
REMARK  8 active torsions:
REMARK  status: ('A' for Active; 'I' for Inactive)
REMARK    1  A    between atoms: C_1  and  C_2
REMARK    2  A    between atoms: N_4  and  C_5
REMARK    3  A    between atoms: C_5  and  C_6
REMARK    4  A    between atoms: C_16  and  O_17
REMARK    5  A    between atoms: C_21  and  C_22
REMARK    6  A    between atoms: N_24  and  C_25
REMARK    7  A    between atoms: C_25  and  C_26
REMARK    8  A    between atoms: C_25  and  C_27
REMARK                            x       y       z     vdW  Elec       q    Type
REMARK                         _______ _______ _______ _____ _____    ______ ____
ROOT
ATOM      1  C   UNL     1      -0.405   8.323  21.792  0.00  0.00    +0.000 C 
ATOM      2  C   UNL     1       0.380   8.892  20.654  0.00  0.00    +0.000 A 
ATOM      3  N   UNL     1       1.142   8.038  20.032  0.00  0.00    +0.000 NA
ATOM      4  N   UNL     1       1.913   8.437  18.949  0.00  0.00    +0.000 N 
ATOM      5  C   UNL     1       1.934   9.736  18.430  0.00  0.00    +0.000 A 
ATOM      6  O   UNL     1       2.592  10.094  17.456  0.00  0.00    +0.000 OA
ATOM      7  C   UNL     1       1.099  10.670  19.156  0.00  0.00    +0.000 A 
ATOM      8  C   UNL     1       0.844  12.024  18.895  0.00  0.00    +0.000 A 
ATOM      9  C   UNL     1      -0.096  12.477  19.792  0.00  0.00    +0.000 A 
ATOM     10  N   UNL     1      -0.321  11.425  20.702  0.00  0.00    +0.000 N 
ATOM     11  C   UNL     1       0.341  10.288  20.255  0.00  0.00    +0.000 A 
ATOM     12  C   UNL     1      -1.288  11.604  21.795  0.00  0.00    +0.000 C 
ATOM     13  C   UNL     1      -0.861  11.098  23.177  0.00  0.00    +0.000 C 
ATOM     14  C   UNL     1      -1.586  13.102  21.995  0.00  0.00    +0.000 C 
ATOM     15  N   UNL     1      -1.816  13.810  20.758  0.00  0.00    +0.000 N 
ATOM     16  C   UNL     1      -0.844  13.727  19.767  0.00  0.00    +0.000 C 
ATOM     17  O   UNL     1      -0.734  14.595  18.905  0.00  0.00    +0.000 OA
ENDROOT
BRANCH  15  18
ATOM     18  C   UNL     1      -3.116  14.423  20.462  0.00  0.00    +0.000 C 
ATOM     19  C   UNL     1      -4.236  13.401  20.677  0.00  0.00    +0.000 C 
ATOM     20  C   UNL     1      -3.371  15.698  21.260  0.00  0.00    +0.000 C 
ENDBRANCH  15  18
BRANCH   8  21
ATOM     21  O   UNL     1       1.338  12.749  17.878  0.00  0.00    +0.000 OA
ATOM     22  H   UNL     1       0.611  13.078  17.315  0.00  0.00    +0.000 HD
ENDBRANCH   8  21
BRANCH   4  23
ATOM     23  C   UNL     1       2.754   7.405  18.357  0.00  0.00    +0.000 C 
BRANCH  23  24
ATOM     24  C   UNL     1       2.378   6.006  18.788  0.00  0.00    +0.000 A 
ATOM     25  C   UNL     1       1.790   5.117  17.874  0.00  0.00    +0.000 A 
ATOM     26  C   UNL     1       1.479   3.812  18.257  0.00  0.00    +0.000 A 
ATOM     27  C   UNL     1       1.741   3.397  19.557  0.00  0.00    +0.000 A 
ATOM     28  F   UNL     1       1.450   2.141  19.919  0.00  0.00    +0.000 F 
ATOM     29  C   UNL     1       2.304   4.266  20.485  0.00  0.00    +0.000 A 
ATOM     30  C   UNL     1       2.617   5.572  20.103  0.00  0.00    +0.000 A 
ENDBRANCH  23  24
ENDBRANCH   4  23
TORSDOF 4
ENDMDL
