MODEL 1
REMARK VINA RESULT:      -6.1      0.000      0.000
REMARK  Name = 
REMARK  7 active torsions:
REMARK  status: ('A' for Active; 'I' for Inactive)
REMARK    1  A    between atoms: C_1  and  C_2
REMARK    2  A    between atoms: C_2  and  C_3
REMARK    3  A    between atoms: C_3  and  C_4
REMARK    4  A    between atoms: C_3  and  N_6
REMARK    5  A    between atoms: C_4  and  O_5
REMARK    6  A    between atoms: N_6  and  S_7
REMARK    7  A    between atoms: S_7  and  C_10
REMARK                            x       y       z     vdW  Elec       q    Type
REMARK                         _______ _______ _______ _____ _____    ______ ____
ROOT
ATOM      1  S   UNL     1       5.586   6.079  16.106  0.00  0.00    +0.000 S 
ATOM      2  O   UNL     1       4.999   6.934  15.101  0.00  0.00    +0.000 OA
ATOM      3  O   UNL     1       6.563   5.064  15.783  0.00  0.00    +0.000 OA
ENDROOT
BRANCH   1   4
ATOM      4  C   UNL     1       4.268   5.234  16.971  0.00  0.00    +0.000 A 
ATOM      5  C   UNL     1       4.119   3.848  16.860  0.00  0.00    +0.000 A 
ATOM      6  C   UNL     1       3.084   3.209  17.549  0.00  0.00    +0.000 A 
ATOM      7  C   UNL     1       2.219   3.953  18.355  0.00  0.00    +0.000 A 
ATOM      8 CL   UNL     1       0.950   3.166  19.207  0.00  0.00    +0.000 Cl
ATOM      9  C   UNL     1       2.384   5.334  18.484  0.00  0.00    +0.000 A 
ATOM     10  C   UNL     1       3.417   5.976  17.798  0.00  0.00    +0.000 A 
ENDBRANCH   1   4
BRANCH   1  11
ATOM     11  N   UNL     1       6.277   7.055  17.318  0.00  0.00    +0.000 NA
ATOM     12  H   UNL     1       6.231   8.043  17.073  0.00  0.00    +0.000 HD
BRANCH  11  13
ATOM     13  C   UNL     1       7.588   6.636  17.915  0.00  0.00    +0.000 C 
BRANCH  13  15
ATOM     14  C   UNL     1       8.033   9.155  17.788  0.00  0.00    +0.000 C 
ATOM     15  C   UNL     1       8.328   7.843  18.496  0.00  0.00    +0.000 C 
ENDBRANCH  13  15
BRANCH  13  16
ATOM     16  C   UNL     1       7.300   5.570  18.995  0.00  0.00    +0.000 C 
BRANCH  16  17
ATOM     17  O   UNL     1       7.438   4.249  18.475  0.00  0.00    +0.000 OA
ATOM     18  H   UNL     1       6.558   3.983  18.145  0.00  0.00    +0.000 HD
ENDBRANCH  16  17
ENDBRANCH  13  16
ENDBRANCH  11  13
ENDBRANCH   1  11
TORSDOF 6
ENDMDL
MODEL 2
REMARK VINA RESULT:      -6.0      3.823      5.285
REMARK  Name = 
REMARK  7 active torsions:
REMARK  status: ('A' for Active; 'I' for Inactive)
REMARK    1  A    between atoms: C_1  and  C_2
REMARK    2  A    between atoms: C_2  and  C_3
REMARK    3  A    between atoms: C_3  and  C_4
REMARK    4  A    between atoms: C_3  and  N_6
REMARK    5  A    between atoms: C_4  and  O_5
REMARK    6  A    between atoms: N_6  and  S_7
REMARK    7  A    between atoms: S_7  and  C_10
REMARK                            x       y       z     vdW  Elec       q    Type
REMARK                         _______ _______ _______ _____ _____    ______ ____
ROOT
ATOM      1  S   UNL     1       2.953   3.069  18.205  0.00  0.00    +0.000 S 
ATOM      2  O   UNL     1       3.484   1.901  18.869  0.00  0.00    +0.000 OA
ATOM      3  O   UNL     1       2.334   3.002  16.900  0.00  0.00    +0.000 OA
ENDROOT
BRANCH   1   4
ATOM      4  C   UNL     1       4.257   4.285  18.068  0.00  0.00    +0.000 A 
ATOM      5  C   UNL     1       5.324   4.289  18.973  0.00  0.00    +0.000 A 
ATOM      6  C   UNL     1       6.333   5.247  18.842  0.00  0.00    +0.000 A 
ATOM      7  C   UNL     1       6.281   6.179  17.804  0.00  0.00    +0.000 A 
ATOM      8 CL   UNL     1       7.526   7.353  17.641  0.00  0.00    +0.000 Cl
ATOM      9  C   UNL     1       5.227   6.159  16.888  0.00  0.00    +0.000 A 
ATOM     10  C   UNL     1       4.216   5.204  17.013  0.00  0.00    +0.000 A 
ENDBRANCH   1   4
BRANCH   1  11
ATOM     11  N   UNL     1       1.832   3.824  19.240  0.00  0.00    +0.000 NA
ATOM     12  H   UNL     1       1.151   4.372  18.716  0.00  0.00    +0.000 HD
BRANCH  11  13
ATOM     13  C   UNL     1       2.342   4.507  20.474  0.00  0.00    +0.000 C 
BRANCH  13  15
ATOM     14  C   UNL     1       2.358   6.972  19.781  0.00  0.00    +0.000 C 
ATOM     15  C   UNL     1       1.708   5.891  20.628  0.00  0.00    +0.000 C 
ENDBRANCH  13  15
BRANCH  13  16
ATOM     16  C   UNL     1       2.028   3.599  21.684  0.00  0.00    +0.000 C 
BRANCH  16  17
ATOM     17  O   UNL     1       2.954   2.518  21.780  0.00  0.00    +0.000 OA
ATOM     18  H   UNL     1       3.428   2.627  22.626  0.00  0.00    +0.000 HD
ENDBRANCH  16  17
ENDBRANCH  13  16
ENDBRANCH  11  13
ENDBRANCH   1  11
TORSDOF 6
ENDMDL
MODEL 3
REMARK VINA RESULT:      -6.0      2.898      4.275
REMARK  Name = 
REMARK  7 active torsions:
REMARK  status: ('A' for Active; 'I' for Inactive)
REMARK    1  A    between atoms: C_1  and  C_2
REMARK    2  A    between atoms: C_2  and  C_3
REMARK    3  A    between atoms: C_3  and  C_4
REMARK    4  A    between atoms: C_3  and  N_6
REMARK    5  A    between atoms: C_4  and  O_5
REMARK    6  A    between atoms: N_6  and  S_7
REMARK    7  A    between atoms: S_7  and  C_10
REMARK                            x       y       z     vdW  Elec       q    Type
REMARK                         _______ _______ _______ _____ _____    ______ ____
ROOT
ATOM      1  S   UNL     1       6.964   5.681  16.454  0.00  0.00    +0.000 S 
ATOM      2  O   UNL     1       7.656   4.438  16.699  0.00  0.00    +0.000 OA
ATOM      3  O   UNL     1       7.625   6.964  16.540  0.00  0.00    +0.000 OA
ENDROOT
BRANCH   1   4
ATOM      4  C   UNL     1       5.560   5.776  17.559  0.00  0.00    +0.000 A 
ATOM      5  C   UNL     1       4.476   6.608  17.260  0.00  0.00    +0.000 A 
ATOM      6  C   UNL     1       3.389   6.663  18.137  0.00  0.00    +0.000 A 
ATOM      7  C   UNL     1       3.384   5.877  19.291  0.00  0.00    +0.000 A 
ATOM      8 CL   UNL     1       2.043   5.939  20.366  0.00  0.00    +0.000 Cl
ATOM      9  C   UNL     1       4.457   5.029  19.576  0.00  0.00    +0.000 A 
ATOM     10  C   UNL     1       5.545   4.971  18.703  0.00  0.00    +0.000 A 
ENDBRANCH   1   4
BRANCH   1  11
ATOM     11  N   UNL     1       6.237   5.607  14.916  0.00  0.00    +0.000 NA
ATOM     12  H   UNL     1       5.234   5.782  14.969  0.00  0.00    +0.000 HD
BRANCH  11  13
ATOM     13  C   UNL     1       6.611   4.480  13.999  0.00  0.00    +0.000 C 
BRANCH  13  15
ATOM     14  C   UNL     1       5.699   3.002  12.117  0.00  0.00    +0.000 C 
ATOM     15  C   UNL     1       5.380   3.957  13.255  0.00  0.00    +0.000 C 
ENDBRANCH  13  15
BRANCH  13  16
ATOM     16  C   UNL     1       7.689   4.999  13.022  0.00  0.00    +0.000 C 
BRANCH  16  17
ATOM     17  O   UNL     1       8.665   5.793  13.696  0.00  0.00    +0.000 OA
ATOM     18  H   UNL     1       9.485   5.738  13.169  0.00  0.00    +0.000 HD
ENDBRANCH  16  17
ENDBRANCH  13  16
ENDBRANCH  11  13
ENDBRANCH   1  11
TORSDOF 6
ENDMDL
MODEL 4
REMARK VINA RESULT:      -6.0      3.692      5.675
REMARK  Name = 
REMARK  7 active torsions:
REMARK  status: ('A' for Active; 'I' for Inactive)
REMARK    1  A    between atoms: C_1  and  C_2
REMARK    2  A    between atoms: C_2  and  C_3
REMARK    3  A    between atoms: C_3  and  C_4
REMARK    4  A    between atoms: C_3  and  N_6
REMARK    5  A    between atoms: C_4  and  O_5
REMARK    6  A    between atoms: N_6  and  S_7
REMARK    7  A    between atoms: S_7  and  C_10
REMARK                            x       y       z     vdW  Elec       q    Type
REMARK                         _______ _______ _______ _____ _____    ______ ____
ROOT
ATOM      1  S   UNL     1       4.833   4.550  18.864  0.00  0.00    +0.000 S 
ATOM      2  O   UNL     1       4.747   5.901  19.366  0.00  0.00    +0.000 OA
ATOM      3  O   UNL     1       5.542   3.507  19.571  0.00  0.00    +0.000 OA
ENDROOT
BRANCH   1   4
ATOM      4  C   UNL     1       5.541   4.598  17.222  0.00  0.00    +0.000 A 
ATOM      5  C   UNL     1       6.909   4.834  17.045  0.00  0.00    +0.000 A 
ATOM      6  C   UNL     1       7.440   4.863  15.752  0.00  0.00    +0.000 A 
ATOM      7  C   UNL     1       6.609   4.640  14.652  0.00  0.00    +0.000 A 
ATOM      8 CL   UNL     1       7.264   4.669  13.062  0.00  0.00    +0.000 Cl
ATOM      9  C   UNL     1       5.249   4.381  14.832  0.00  0.00    +0.000 A 
ATOM     10  C   UNL     1       4.714   4.351  16.122  0.00  0.00    +0.000 A 
ENDBRANCH   1   4
BRANCH   1  11
ATOM     11  N   UNL     1       3.258   3.967  18.586  0.00  0.00    +0.000 NA
ATOM     12  H   UNL     1       2.563   4.705  18.698  0.00  0.00    +0.000 HD
BRANCH  11  13
ATOM     13  C   UNL     1       2.859   2.657  19.198  0.00  0.00    +0.000 C 
BRANCH  13  15
ATOM     14  C   UNL     1       1.168   2.913  21.104  0.00  0.00    +0.000 C 
ATOM     15  C   UNL     1       1.388   2.682  19.618  0.00  0.00    +0.000 C 
ENDBRANCH  13  15
BRANCH  13  16
ATOM     16  C   UNL     1       3.137   1.545  18.163  0.00  0.00    +0.000 C 
BRANCH  16  17
ATOM     17  O   UNL     1       4.330   0.828  18.475  0.00  0.00    +0.000 OA
ATOM     18  H   UNL     1       4.330   0.687  19.441  0.00  0.00    +0.000 HD
ENDBRANCH  16  17
ENDBRANCH  13  16
ENDBRANCH  11  13
ENDBRANCH   1  11
TORSDOF 6
ENDMDL
MODEL 5
REMARK VINA RESULT:      -5.9      3.930      5.392
REMARK  Name = 
REMARK  7 active torsions:
REMARK  status: ('A' for Active; 'I' for Inactive)
REMARK    1  A    between atoms: C_1  and  C_2
REMARK    2  A    between atoms: C_2  and  C_3
REMARK    3  A    between atoms: C_3  and  C_4
REMARK    4  A    between atoms: C_3  and  N_6
REMARK    5  A    between atoms: C_4  and  O_5
REMARK    6  A    between atoms: N_6  and  S_7
REMARK    7  A    between atoms: S_7  and  C_10
REMARK                            x       y       z     vdW  Elec       q    Type
REMARK                         _______ _______ _______ _____ _____    ______ ____
ROOT
ATOM      1  S   UNL     1       3.023   3.172  18.076  0.00  0.00    +0.000 S 
ATOM      2  O   UNL     1       3.555   2.023  18.770  0.00  0.00    +0.000 OA
ATOM      3  O   UNL     1       2.406   3.071  16.772  0.00  0.00    +0.000 OA
ENDROOT
BRANCH   1   4
ATOM      4  C   UNL     1       4.326   4.387  17.909  0.00  0.00    +0.000 A 
ATOM      5  C   UNL     1       4.218   5.420  16.972  0.00  0.00    +0.000 A 
ATOM      6  C   UNL     1       5.247   6.360  16.863  0.00  0.00    +0.000 A 
ATOM      7  C   UNL     1       6.362   6.273  17.699  0.00  0.00    +0.000 A 
ATOM      8 CL   UNL     1       7.625   7.433  17.569  0.00  0.00    +0.000 Cl
ATOM      9  C   UNL     1       6.457   5.255  18.649  0.00  0.00    +0.000 A 
ATOM     10  C   UNL     1       5.432   4.313  18.762  0.00  0.00    +0.000 A 
ENDBRANCH   1   4
BRANCH   1  11
ATOM     11  N   UNL     1       1.899   3.951  19.090  0.00  0.00    +0.000 NA
ATOM     12  H   UNL     1       1.283   4.567  18.560  0.00  0.00    +0.000 HD
BRANCH  11  13
ATOM     13  C   UNL     1       2.386   4.542  20.380  0.00  0.00    +0.000 C 
BRANCH  13  15
ATOM     14  C   UNL     1       2.354   7.015  19.717  0.00  0.00    +0.000 C 
ATOM     15  C   UNL     1       1.775   5.926  20.605  0.00  0.00    +0.000 C 
ENDBRANCH  13  15
BRANCH  13  16
ATOM     16  C   UNL     1       2.018   3.564  21.518  0.00  0.00    +0.000 C 
BRANCH  16  17
ATOM     17  O   UNL     1       0.839   2.822  21.209  0.00  0.00    +0.000 OA
ATOM     18  H   UNL     1       0.097   3.457  21.216  0.00  0.00    +0.000 HD
ENDBRANCH  16  17
ENDBRANCH  13  16
ENDBRANCH  11  13
ENDBRANCH   1  11
TORSDOF 6
ENDMDL
MODEL 6
REMARK VINA RESULT:      -5.9      2.891      4.202
REMARK  Name = 
REMARK  7 active torsions:
REMARK  status: ('A' for Active; 'I' for Inactive)
REMARK    1  A    between atoms: C_1  and  C_2
REMARK    2  A    between atoms: C_2  and  C_3
REMARK    3  A    between atoms: C_3  and  C_4
REMARK    4  A    between atoms: C_3  and  N_6
REMARK    5  A    between atoms: C_4  and  O_5
REMARK    6  A    between atoms: N_6  and  S_7
REMARK    7  A    between atoms: S_7  and  C_10
REMARK                            x       y       z     vdW  Elec       q    Type
REMARK                         _______ _______ _______ _____ _____    ______ ____
ROOT
ATOM      1  S   UNL     1       7.158   5.632  16.391  0.00  0.00    +0.000 S 
ATOM      2  O   UNL     1       7.903   4.415  16.611  0.00  0.00    +0.000 OA
ATOM      3  O   UNL     1       7.739   6.941  16.593  0.00  0.00    +0.000 OA
ENDROOT
BRANCH   1   4
ATOM      4  C   UNL     1       5.685   5.587  17.404  0.00  0.00    +0.000 A 
ATOM      5  C   UNL     1       5.502   4.570  18.347  0.00  0.00    +0.000 A 
ATOM      6  C   UNL     1       4.344   4.558  19.130  0.00  0.00    +0.000 A 
ATOM      7  C   UNL     1       3.390   5.567  18.980  0.00  0.00    +0.000 A 
ATOM      8 CL   UNL     1       1.970   5.555  19.949  0.00  0.00    +0.000 Cl
ATOM      9  C   UNL     1       3.586   6.595  18.056  0.00  0.00    +0.000 A 
ATOM     10  C   UNL     1       4.741   6.611  17.271  0.00  0.00    +0.000 A 
ENDBRANCH   1   4
BRANCH   1  11
ATOM     11  N   UNL     1       6.535   5.613  14.807  0.00  0.00    +0.000 NA
ATOM     12  H   UNL     1       5.609   6.038  14.765  0.00  0.00    +0.000 HD
BRANCH  11  13
ATOM     13  C   UNL     1       6.664   4.355  14.000  0.00  0.00    +0.000 C 
BRANCH  13  15
ATOM     14  C   UNL     1       5.294   3.265  12.132  0.00  0.00    +0.000 C 
ATOM     15  C   UNL     1       5.292   3.875  13.524  0.00  0.00    +0.000 C 
ENDBRANCH  13  15
BRANCH  13  16
ATOM     16  C   UNL     1       7.610   4.646  12.814  0.00  0.00    +0.000 C 
BRANCH  16  17
ATOM     17  O   UNL     1       8.230   5.925  12.942  0.00  0.00    +0.000 OA
ATOM     18  H   UNL     1       8.103   6.386  12.091  0.00  0.00    +0.000 HD
ENDBRANCH  16  17
ENDBRANCH  13  16
ENDBRANCH  11  13
ENDBRANCH   1  11
TORSDOF 6
ENDMDL
MODEL 7
REMARK VINA RESULT:      -5.9      3.666      5.701
REMARK  Name = 
REMARK  7 active torsions:
REMARK  status: ('A' for Active; 'I' for Inactive)
REMARK    1  A    between atoms: C_1  and  C_2
REMARK    2  A    between atoms: C_2  and  C_3
REMARK    3  A    between atoms: C_3  and  C_4
REMARK    4  A    between atoms: C_3  and  N_6
REMARK    5  A    between atoms: C_4  and  O_5
REMARK    6  A    between atoms: N_6  and  S_7
REMARK    7  A    between atoms: S_7  and  C_10
REMARK                            x       y       z     vdW  Elec       q    Type
REMARK                         _______ _______ _______ _____ _____    ______ ____
ROOT
ATOM      1  S   UNL     1       4.996   4.396  19.081  0.00  0.00    +0.000 S 
ATOM      2  O   UNL     1       5.517   5.552  19.772  0.00  0.00    +0.000 OA
ATOM      3  O   UNL     1       5.228   3.047  19.546  0.00  0.00    +0.000 OA
ENDROOT
BRANCH   1   4
ATOM      4  C   UNL     1       5.574   4.439  17.389  0.00  0.00    +0.000 A 
ATOM      5  C   UNL     1       6.917   4.705  17.103  0.00  0.00    +0.000 A 
ATOM      6  C   UNL     1       7.346   4.728  15.773  0.00  0.00    +0.000 A 
ATOM      7  C   UNL     1       6.439   4.471  14.743  0.00  0.00    +0.000 A 
ATOM      8 CL   UNL     1       6.969   4.494  13.107  0.00  0.00    +0.000 Cl
ATOM      9  C   UNL     1       5.104   4.182  15.031  0.00  0.00    +0.000 A 
ATOM     10  C   UNL     1       4.670   4.157  16.358  0.00  0.00    +0.000 A 
ENDBRANCH   1   4
BRANCH   1  11
ATOM     11  N   UNL     1       3.310   4.573  18.915  0.00  0.00    +0.000 NA
ATOM     12  H   UNL     1       2.994   5.476  19.266  0.00  0.00    +0.000 HD
BRANCH  11  13
ATOM     13  C   UNL     1       2.427   3.426  19.307  0.00  0.00    +0.000 C 
BRANCH  13  15
ATOM     14  C   UNL     1       1.520   2.808  21.620  0.00  0.00    +0.000 C 
ATOM     15  C   UNL     1       1.525   3.813  20.480  0.00  0.00    +0.000 C 
ENDBRANCH  13  15
BRANCH  13  16
ATOM     16  C   UNL     1       1.603   3.015  18.066  0.00  0.00    +0.000 C 
BRANCH  16  17
ATOM     17  O   UNL     1       2.117   1.827  17.467  0.00  0.00    +0.000 OA
ATOM     18  H   UNL     1       3.041   2.016  17.213  0.00  0.00    +0.000 HD
ENDBRANCH  16  17
ENDBRANCH  13  16
ENDBRANCH  11  13
ENDBRANCH   1  11
TORSDOF 6
ENDMDL
MODEL 8
REMARK VINA RESULT:      -5.8      3.783      5.640
REMARK  Name = 
REMARK  7 active torsions:
REMARK  status: ('A' for Active; 'I' for Inactive)
REMARK    1  A    between atoms: C_1  and  C_2
REMARK    2  A    between atoms: C_2  and  C_3
REMARK    3  A    between atoms: C_3  and  C_4
REMARK    4  A    between atoms: C_3  and  N_6
REMARK    5  A    between atoms: C_4  and  O_5
REMARK    6  A    between atoms: N_6  and  S_7
REMARK    7  A    between atoms: S_7  and  C_10
REMARK                            x       y       z     vdW  Elec       q    Type
REMARK                         _______ _______ _______ _____ _____    ______ ____
ROOT
ATOM      1  S   UNL     1       3.370   5.846  18.720  0.00  0.00    +0.000 S 
ATOM      2  O   UNL     1       2.906   7.209  18.622  0.00  0.00    +0.000 OA
ATOM      3  O   UNL     1       4.146   5.372  19.844  0.00  0.00    +0.000 OA
ENDROOT
BRANCH   1   4
ATOM      4  C   UNL     1       4.336   5.469  17.263  0.00  0.00    +0.000 A 
ATOM      5  C   UNL     1       4.745   6.490  16.398  0.00  0.00    +0.000 A 
ATOM      6  C   UNL     1       5.504   6.172  15.268  0.00  0.00    +0.000 A 
ATOM      7  C   UNL     1       5.862   4.845  15.019  0.00  0.00    +0.000 A 
ATOM      8 CL   UNL     1       6.800   4.455  13.632  0.00  0.00    +0.000 Cl
ATOM      9  C   UNL     1       5.472   3.831  15.896  0.00  0.00    +0.000 A 
ATOM     10  C   UNL     1       4.715   4.143  17.027  0.00  0.00    +0.000 A 
ENDBRANCH   1   4
BRANCH   1  11
ATOM     11  N   UNL     1       2.033   4.801  18.575  0.00  0.00    +0.000 NA
ATOM     12  H   UNL     1       1.153   5.313  18.625  0.00  0.00    +0.000 HD
BRANCH  11  13
ATOM     13  C   UNL     1       2.037   3.519  19.353  0.00  0.00    +0.000 C 
BRANCH  13  15
ATOM     14  C   UNL     1       1.618   2.727  21.752  0.00  0.00    +0.000 C 
ATOM     15  C   UNL     1       1.198   3.657  20.626  0.00  0.00    +0.000 C 
ENDBRANCH  13  15
BRANCH  13  16
ATOM     16  C   UNL     1       1.496   2.402  18.433  0.00  0.00    +0.000 C 
BRANCH  16  17
ATOM     17  O   UNL     1       2.539   1.526  18.008  0.00  0.00    +0.000 OA
ATOM     18  H   UNL     1       2.229   0.616  18.178  0.00  0.00    +0.000 HD
ENDBRANCH  16  17
ENDBRANCH  13  16
ENDBRANCH  11  13
ENDBRANCH   1  11
TORSDOF 6
ENDMDL
MODEL 9
REMARK VINA RESULT:      -5.8      3.029      4.319
REMARK  Name = 
REMARK  7 active torsions:
REMARK  status: ('A' for Active; 'I' for Inactive)
REMARK    1  A    between atoms: C_1  and  C_2
REMARK    2  A    between atoms: C_2  and  C_3
REMARK    3  A    between atoms: C_3  and  C_4
REMARK    4  A    between atoms: C_3  and  N_6
REMARK    5  A    between atoms: C_4  and  O_5
REMARK    6  A    between atoms: N_6  and  S_7
REMARK    7  A    between atoms: S_7  and  C_10
REMARK                            x       y       z     vdW  Elec       q    Type
REMARK                         _______ _______ _______ _____ _____    ______ ____
ROOT
ATOM      1  S   UNL     1       6.316   5.151  15.799  0.00  0.00    +0.000 S 
ATOM      2  O   UNL     1       7.653   4.668  16.052  0.00  0.00    +0.000 OA
ATOM      3  O   UNL     1       5.992   6.560  15.787  0.00  0.00    +0.000 OA
ENDROOT
BRANCH   1   4
ATOM      4  C   UNL     1       5.208   4.402  16.987  0.00  0.00    +0.000 A 
ATOM      5  C   UNL     1       4.013   3.808  16.569  0.00  0.00    +0.000 A 
ATOM      6  C   UNL     1       3.166   3.225  17.516  0.00  0.00    +0.000 A 
ATOM      7  C   UNL     1       3.524   3.225  18.866  0.00  0.00    +0.000 A 
ATOM      8 CL   UNL     1       2.484   2.503  20.029  0.00  0.00    +0.000 Cl
ATOM      9  C   UNL     1       4.728   3.799  19.279  0.00  0.00    +0.000 A 
ATOM     10  C   UNL     1       5.578   4.382  18.337  0.00  0.00    +0.000 A 
ENDBRANCH   1   4
BRANCH   1  11
ATOM     11  N   UNL     1       5.775   4.513  14.316  0.00  0.00    +0.000 NA
ATOM     12  H   UNL     1       4.991   3.874  14.448  0.00  0.00    +0.000 HD
BRANCH  11  13
ATOM     13  C   UNL     1       6.796   4.026  13.330  0.00  0.00    +0.000 C 
BRANCH  13  15
ATOM     14  C   UNL     1       4.741   3.466  11.908  0.00  0.00    +0.000 C 
ATOM     15  C   UNL     1       6.156   3.083  12.309  0.00  0.00    +0.000 C 
ENDBRANCH  13  15
BRANCH  13  16
ATOM     16  C   UNL     1       7.424   5.262  12.648  0.00  0.00    +0.000 C 
BRANCH  16  17
ATOM     17  O   UNL     1       8.573   5.722  13.358  0.00  0.00    +0.000 OA
ATOM     18  H   UNL     1       9.153   4.948  13.487  0.00  0.00    +0.000 HD
ENDBRANCH  16  17
ENDBRANCH  13  16
ENDBRANCH  11  13
ENDBRANCH   1  11
TORSDOF 6
ENDMDL
