MODEL 1
REMARK VINA RESULT:      -8.5      0.000      0.000
REMARK  Name = 
REMARK  5 active torsions:
REMARK  status: ('A' for Active; 'I' for Inactive)
REMARK    1  A    between atoms: C_1  and  N_2
REMARK    2  A    between atoms: N_2  and  C_3
REMARK    3  A    between atoms: N_2  and  C_4
REMARK    4  A    between atoms: C_4  and  C_5
REMARK    5  A    between atoms: C_5  and  C_6
REMARK                            x       y       z     vdW  Elec       q    Type
REMARK                         _______ _______ _______ _____ _____    ______ ____
ROOT
ATOM      1  C   UNL     1       4.110   5.598  17.491  0.00  0.00    +0.000 A 
ATOM      2  N   UNL     1       4.618   4.324  17.364  0.00  0.00    +0.000 NA
ATOM      3  N   UNL     1       4.385   3.305  18.237  0.00  0.00    +0.000 NA
ATOM      4  C   UNL     1       3.632   3.507  19.298  0.00  0.00    +0.000 A 
ATOM      5  C   UNL     1       3.491   2.448  20.212  0.00  0.00    +0.000 A 
ATOM      6  C   UNL     1       2.726   2.546  21.378  0.00  0.00    +0.000 A 
ATOM      7  C   UNL     1       2.054   3.712  21.622  0.00  0.00    +0.000 A 
ATOM      8  C   UNL     1       2.218   4.730  20.692  0.00  0.00    +0.000 A 
ATOM      9  C   UNL     1       3.011   4.747  19.487  0.00  0.00    +0.000 A 
ATOM     10  C   UNL     1       3.209   5.946  18.539  0.00  0.00    +0.000 A 
ATOM     11  C   UNL     1       2.454   7.504  18.742  0.00  0.00    +0.000 A 
ATOM     12  C   UNL     1       2.609   8.497  17.745  0.00  0.00    +0.000 A 
ATOM     13  C   UNL     1       2.034   9.812  17.804  0.00  0.00    +0.000 A 
ATOM     14  C   UNL     1       1.277  10.239  18.890  0.00  0.00    +0.000 A 
ATOM     15  C   UNL     1       1.043   9.355  19.908  0.00  0.00    +0.000 A 
ATOM     16  C   UNL     1       1.564   8.035  19.854  0.00  0.00    +0.000 A 
ATOM     17  C   UNL     1       0.998   7.268  21.095  0.00  0.00    +0.000 C 
ATOM     18  C   UNL     1       1.643   6.019  20.811  0.00  0.00    +0.000 C 
ENDROOT
BRANCH   1  19
ATOM     19  C   UNL     1       4.818   6.419  16.436  0.00  0.00    +0.000 C 
BRANCH  19  20
ATOM     20  C   UNL     1       6.348   6.348  16.602  0.00  0.00    +0.000 C 
BRANCH  20  22
ATOM     21  C   UNL     1       7.659   5.926  18.572  0.00  0.00    +0.000 C 
ATOM     22  N   UNL     1       6.891   6.951  17.848  0.00  0.00    +0.000 NA
ATOM     23  C   UNL     1       7.781   8.091  17.578  0.00  0.00    +0.000 C 
ENDBRANCH  20  22
ENDBRANCH  19  20
ENDBRANCH   1  19
TORSDOF 3
ENDMDL
MODEL 2
REMARK VINA RESULT:      -8.4      0.747      1.011
REMARK  Name = 
REMARK  5 active torsions:
REMARK  status: ('A' for Active; 'I' for Inactive)
REMARK    1  A    between atoms: C_1  and  N_2
REMARK    2  A    between atoms: N_2  and  C_3
REMARK    3  A    between atoms: N_2  and  C_4
REMARK    4  A    between atoms: C_4  and  C_5
REMARK    5  A    between atoms: C_5  and  C_6
REMARK                            x       y       z     vdW  Elec       q    Type
REMARK                         _______ _______ _______ _____ _____    ______ ____
ROOT
ATOM      1  C   UNL     1       4.015   5.419  17.489  0.00  0.00    +0.000 A 
ATOM      2  N   UNL     1       4.472   4.125  17.384  0.00  0.00    +0.000 NA
ATOM      3  N   UNL     1       4.216   3.135  18.285  0.00  0.00    +0.000 NA
ATOM      4  C   UNL     1       3.489   3.389  19.352  0.00  0.00    +0.000 A 
ATOM      5  C   UNL     1       3.324   2.357  20.293  0.00  0.00    +0.000 A 
ATOM      6  C   UNL     1       2.582   2.510  21.468  0.00  0.00    +0.000 A 
ATOM      7  C   UNL     1       1.958   3.706  21.695  0.00  0.00    +0.000 A 
ATOM      8  C   UNL     1       2.145   4.696  20.739  0.00  0.00    +0.000 A 
ATOM      9  C   UNL     1       2.918   4.656  19.522  0.00  0.00    +0.000 A 
ATOM     10  C   UNL     1       3.144   5.825  18.544  0.00  0.00    +0.000 A 
ATOM     11  C   UNL     1       2.451   7.414  18.722  0.00  0.00    +0.000 A 
ATOM     12  C   UNL     1       2.627   8.378  17.700  0.00  0.00    +0.000 A 
ATOM     13  C   UNL     1       2.101   9.714  17.737  0.00  0.00    +0.000 A 
ATOM     14  C   UNL     1       1.379  10.194  18.824  0.00  0.00    +0.000 A 
ATOM     15  C   UNL     1       1.129   9.343  19.867  0.00  0.00    +0.000 A 
ATOM     16  C   UNL     1       1.600   8.003  19.835  0.00  0.00    +0.000 A 
ATOM     17  C   UNL     1       1.026   7.286  21.102  0.00  0.00    +0.000 C 
ATOM     18  C   UNL     1       1.620   6.008  20.838  0.00  0.00    +0.000 C 
ENDROOT
BRANCH   1  19
ATOM     19  C   UNL     1       4.735   6.190  16.405  0.00  0.00    +0.000 C 
BRANCH  19  20
ATOM     20  C   UNL     1       6.149   6.602  16.855  0.00  0.00    +0.000 C 
BRANCH  20  22
ATOM     21  C   UNL     1       7.639   4.773  17.313  0.00  0.00    +0.000 C 
ATOM     22  N   UNL     1       7.265   5.784  16.311  0.00  0.00    +0.000 NA
ATOM     23  C   UNL     1       6.896   5.087  15.068  0.00  0.00    +0.000 C 
ENDBRANCH  20  22
ENDBRANCH  19  20
ENDBRANCH   1  19
TORSDOF 3
ENDMDL
MODEL 3
REMARK VINA RESULT:      -7.4      2.231      5.726
REMARK  Name = 
REMARK  5 active torsions:
REMARK  status: ('A' for Active; 'I' for Inactive)
REMARK    1  A    between atoms: C_1  and  N_2
REMARK    2  A    between atoms: N_2  and  C_3
REMARK    3  A    between atoms: N_2  and  C_4
REMARK    4  A    between atoms: C_4  and  C_5
REMARK    5  A    between atoms: C_5  and  C_6
REMARK                            x       y       z     vdW  Elec       q    Type
REMARK                         _______ _______ _______ _____ _____    ______ ____
ROOT
ATOM      1  C   UNL     1       3.293   6.974  17.752  0.00  0.00    +0.000 A 
ATOM      2  N   UNL     1       3.940   7.765  16.830  0.00  0.00    +0.000 NA
ATOM      3  N   UNL     1       4.840   7.312  15.913  0.00  0.00    +0.000 NA
ATOM      4  C   UNL     1       5.149   6.033  15.871  0.00  0.00    +0.000 A 
ATOM      5  C   UNL     1       6.144   5.629  14.963  0.00  0.00    +0.000 A 
ATOM      6  C   UNL     1       6.563   4.301  14.835  0.00  0.00    +0.000 A 
ATOM      7  C   UNL     1       5.952   3.347  15.601  0.00  0.00    +0.000 A 
ATOM      8  C   UNL     1       4.973   3.789  16.481  0.00  0.00    +0.000 A 
ATOM      9  C   UNL     1       4.498   5.129  16.720  0.00  0.00    +0.000 A 
ATOM     10  C   UNL     1       3.458   5.557  17.774  0.00  0.00    +0.000 A 
ATOM     11  C   UNL     1       2.627   4.463  18.847  0.00  0.00    +0.000 A 
ATOM     12  C   UNL     1       1.602   4.950  19.693  0.00  0.00    +0.000 A 
ATOM     13  C   UNL     1       0.852   4.142  20.615  0.00  0.00    +0.000 A 
ATOM     14  C   UNL     1       1.095   2.783  20.775  0.00  0.00    +0.000 A 
ATOM     15  C   UNL     1       2.054   2.197  19.992  0.00  0.00    +0.000 A 
ATOM     16  C   UNL     1       2.780   2.964  19.043  0.00  0.00    +0.000 A 
ATOM     17  C   UNL     1       3.680   1.966  18.241  0.00  0.00    +0.000 C 
ATOM     18  C   UNL     1       4.277   2.950  17.386  0.00  0.00    +0.000 C 
ENDROOT
BRANCH   1  19
ATOM     19  C   UNL     1       2.590   7.936  18.685  0.00  0.00    +0.000 C 
BRANCH  19  20
ATOM     20  C   UNL     1       1.795   8.997  17.901  0.00  0.00    +0.000 C 
BRANCH  20  22
ATOM     21  C   UNL     1      -0.324  10.108  18.132  0.00  0.00    +0.000 C 
ATOM     22  N   UNL     1       1.014   9.957  18.724  0.00  0.00    +0.000 NA
ATOM     23  C   UNL     1       0.854   9.504  20.115  0.00  0.00    +0.000 C 
ENDBRANCH  20  22
ENDBRANCH  19  20
ENDBRANCH   1  19
TORSDOF 3
ENDMDL
MODEL 4
REMARK VINA RESULT:      -7.4      1.553      4.781
REMARK  Name = 
REMARK  5 active torsions:
REMARK  status: ('A' for Active; 'I' for Inactive)
REMARK    1  A    between atoms: C_1  and  N_2
REMARK    2  A    between atoms: N_2  and  C_3
REMARK    3  A    between atoms: N_2  and  C_4
REMARK    4  A    between atoms: C_4  and  C_5
REMARK    5  A    between atoms: C_5  and  C_6
REMARK                            x       y       z     vdW  Elec       q    Type
REMARK                         _______ _______ _______ _____ _____    ______ ____
ROOT
ATOM      1  C   UNL     1       3.430   4.733  20.212  0.00  0.00    +0.000 A 
ATOM      2  N   UNL     1       4.347   3.752  19.908  0.00  0.00    +0.000 NA
ATOM      3  N   UNL     1       5.140   3.747  18.801  0.00  0.00    +0.000 NA
ATOM      4  C   UNL     1       5.056   4.727  17.926  0.00  0.00    +0.000 A 
ATOM      5  C   UNL     1       5.835   4.632  16.760  0.00  0.00    +0.000 A 
ATOM      6  C   UNL     1       5.823   5.605  15.756  0.00  0.00    +0.000 A 
ATOM      7  C   UNL     1       5.045   6.717  15.933  0.00  0.00    +0.000 A 
ATOM      8  C   UNL     1       4.295   6.770  17.100  0.00  0.00    +0.000 A 
ATOM      9  C   UNL     1       4.204   5.810  18.172  0.00  0.00    +0.000 A 
ATOM     10  C   UNL     1       3.285   5.901  19.406  0.00  0.00    +0.000 A 
ATOM     11  C   UNL     1       2.212   7.232  19.747  0.00  0.00    +0.000 A 
ATOM     12  C   UNL     1       1.502   7.270  20.971  0.00  0.00    +0.000 A 
ATOM     13  C   UNL     1       0.595   8.314  21.358  0.00  0.00    +0.000 A 
ATOM     14  C   UNL     1       0.310   9.392  20.526  0.00  0.00    +0.000 A 
ATOM     15  C   UNL     1       0.954   9.472  19.321  0.00  0.00    +0.000 A 
ATOM     16  C   UNL     1       1.889   8.475  18.933  0.00  0.00    +0.000 A 
ATOM     17  C   UNL     1       2.527   8.946  17.584  0.00  0.00    +0.000 C 
ATOM     18  C   UNL     1       3.396   7.818  17.422  0.00  0.00    +0.000 C 
ENDROOT
BRANCH   1  19
ATOM     19  C   UNL     1       2.641   4.197  21.387  0.00  0.00    +0.000 C 
BRANCH  19  20
ATOM     20  C   UNL     1       2.340   2.696  21.222  0.00  0.00    +0.000 C 
BRANCH  20  22
ATOM     21  C   UNL     1       0.446   3.577  20.034  0.00  0.00    +0.000 C 
ATOM     22  N   UNL     1       1.226   2.358  20.298  0.00  0.00    +0.000 NA
ATOM     23  C   UNL     1       1.706   1.830  19.010  0.00  0.00    +0.000 C 
ENDBRANCH  20  22
ENDBRANCH  19  20
ENDBRANCH   1  19
TORSDOF 3
ENDMDL
MODEL 5
REMARK VINA RESULT:      -7.2      1.147      1.484
REMARK  Name = 
REMARK  5 active torsions:
REMARK  status: ('A' for Active; 'I' for Inactive)
REMARK    1  A    between atoms: C_1  and  N_2
REMARK    2  A    between atoms: N_2  and  C_3
REMARK    3  A    between atoms: N_2  and  C_4
REMARK    4  A    between atoms: C_4  and  C_5
REMARK    5  A    between atoms: C_5  and  C_6
REMARK                            x       y       z     vdW  Elec       q    Type
REMARK                         _______ _______ _______ _____ _____    ______ ____
ROOT
ATOM      1  C   UNL     1       3.809   4.963  17.383  0.00  0.00    +0.000 A 
ATOM      2  N   UNL     1       4.180   3.639  17.302  0.00  0.00    +0.000 NA
ATOM      3  N   UNL     1       3.926   2.702  18.257  0.00  0.00    +0.000 NA
ATOM      4  C   UNL     1       3.288   3.040  19.357  0.00  0.00    +0.000 A 
ATOM      5  C   UNL     1       3.124   2.055  20.348  0.00  0.00    +0.000 A 
ATOM      6  C   UNL     1       2.473   2.298  21.562  0.00  0.00    +0.000 A 
ATOM      7  C   UNL     1       1.939   3.538  21.779  0.00  0.00    +0.000 A 
ATOM      8  C   UNL     1       2.120   4.478  20.773  0.00  0.00    +0.000 A 
ATOM      9  C   UNL     1       2.806   4.345  19.512  0.00  0.00    +0.000 A 
ATOM     10  C   UNL     1       3.037   5.461  18.474  0.00  0.00    +0.000 A 
ATOM     11  C   UNL     1       2.454   7.096  18.631  0.00  0.00    +0.000 A 
ATOM     12  C   UNL     1       2.618   8.008  17.561  0.00  0.00    +0.000 A 
ATOM     13  C   UNL     1       2.178   9.376  17.578  0.00  0.00    +0.000 A 
ATOM     14  C   UNL     1       1.560   9.940  18.689  0.00  0.00    +0.000 A 
ATOM     15  C   UNL     1       1.330   9.145  19.779  0.00  0.00    +0.000 A 
ATOM     16  C   UNL     1       1.716   7.778  19.771  0.00  0.00    +0.000 A 
ATOM     17  C   UNL     1       1.186   7.145  21.101  0.00  0.00    +0.000 C 
ATOM     18  C   UNL     1       1.683   5.824  20.852  0.00  0.00    +0.000 C 
ENDROOT
BRANCH   1  19
ATOM     19  C   UNL     1       4.500   5.646  16.223  0.00  0.00    +0.000 C 
BRANCH  19  20
ATOM     20  C   UNL     1       5.244   4.630  15.336  0.00  0.00    +0.000 C 
BRANCH  20  22
ATOM     21  C   UNL     1       7.294   4.955  14.125  0.00  0.00    +0.000 C 
ATOM     22  N   UNL     1       6.726   4.641  15.445  0.00  0.00    +0.000 NA
ATOM     23  C   UNL     1       7.211   5.645  16.406  0.00  0.00    +0.000 C 
ENDBRANCH  20  22
ENDBRANCH  19  20
ENDBRANCH   1  19
TORSDOF 3
ENDMDL
MODEL 6
REMARK VINA RESULT:      -7.2      2.359      5.108
REMARK  Name = 
REMARK  5 active torsions:
REMARK  status: ('A' for Active; 'I' for Inactive)
REMARK    1  A    between atoms: C_1  and  N_2
REMARK    2  A    between atoms: N_2  and  C_3
REMARK    3  A    between atoms: N_2  and  C_4
REMARK    4  A    between atoms: C_4  and  C_5
REMARK    5  A    between atoms: C_5  and  C_6
REMARK                            x       y       z     vdW  Elec       q    Type
REMARK                         _______ _______ _______ _____ _____    ______ ____
ROOT
ATOM      1  C   UNL     1       2.801   7.058  18.705  0.00  0.00    +0.000 A 
ATOM      2  N   UNL     1       2.015   7.265  19.817  0.00  0.00    +0.000 NA
ATOM      3  N   UNL     1       1.539   6.278  20.626  0.00  0.00    +0.000 NA
ATOM      4  C   UNL     1       1.818   5.019  20.363  0.00  0.00    +0.000 A 
ATOM      5  C   UNL     1       1.233   4.035  21.178  0.00  0.00    +0.000 A 
ATOM      6  C   UNL     1       1.447   2.666  20.991  0.00  0.00    +0.000 A 
ATOM      7  C   UNL     1       2.293   2.268  19.991  0.00  0.00    +0.000 A 
ATOM      8  C   UNL     1       2.851   3.273  19.213  0.00  0.00    +0.000 A 
ATOM      9  C   UNL     1       2.665   4.701  19.294  0.00  0.00    +0.000 A 
ATOM     10  C   UNL     1       3.258   5.757  18.341  0.00  0.00    +0.000 A 
ATOM     11  C   UNL     1       4.316   5.400  17.002  0.00  0.00    +0.000 A 
ATOM     12  C   UNL     1       4.900   6.458  16.265  0.00  0.00    +0.000 A 
ATOM     13  C   UNL     1       5.785   6.282  15.146  0.00  0.00    +0.000 A 
ATOM     14  C   UNL     1       6.129   5.024  14.665  0.00  0.00    +0.000 A 
ATOM     15  C   UNL     1       5.637   3.923  15.313  0.00  0.00    +0.000 A 
ATOM     16  C   UNL     1       4.795   4.068  16.448  0.00  0.00    +0.000 A 
ATOM     17  C   UNL     1       4.535   2.631  17.012  0.00  0.00    +0.000 C 
ATOM     18  C   UNL     1       3.703   3.043  18.104  0.00  0.00    +0.000 C 
ENDROOT
BRANCH   1  19
ATOM     19  C   UNL     1       2.882   8.401  18.013  0.00  0.00    +0.000 C 
BRANCH  19  20
ATOM     20  C   UNL     1       1.487   9.035  17.857  0.00  0.00    +0.000 C 
BRANCH  20  22
ATOM     21  C   UNL     1       2.045  11.348  18.202  0.00  0.00    +0.000 C 
ATOM     22  N   UNL     1       1.224  10.232  18.698  0.00  0.00    +0.000 NA
ATOM     23  C   UNL     1      -0.188  10.647  18.659  0.00  0.00    +0.000 C 
ENDBRANCH  20  22
ENDBRANCH  19  20
ENDBRANCH   1  19
TORSDOF 3
ENDMDL
MODEL 7
REMARK VINA RESULT:      -6.9      2.227      5.950
REMARK  Name = 
REMARK  5 active torsions:
REMARK  status: ('A' for Active; 'I' for Inactive)
REMARK    1  A    between atoms: C_1  and  N_2
REMARK    2  A    between atoms: N_2  and  C_3
REMARK    3  A    between atoms: N_2  and  C_4
REMARK    4  A    between atoms: C_4  and  C_5
REMARK    5  A    between atoms: C_5  and  C_6
REMARK                            x       y       z     vdW  Elec       q    Type
REMARK                         _______ _______ _______ _____ _____    ______ ____
ROOT
ATOM      1  C   UNL     1       2.650   7.095  18.810  0.00  0.00    +0.000 A 
ATOM      2  N   UNL     1       3.002   8.092  17.927  0.00  0.00    +0.000 NA
ATOM      3  N   UNL     1       3.805   7.919  16.840  0.00  0.00    +0.000 NA
ATOM      4  C   UNL     1       4.310   6.732  16.578  0.00  0.00    +0.000 A 
ATOM      5  C   UNL     1       5.200   6.624  15.495  0.00  0.00    +0.000 A 
ATOM      6  C   UNL     1       5.807   5.420  15.126  0.00  0.00    +0.000 A 
ATOM      7  C   UNL     1       5.494   4.288  15.828  0.00  0.00    +0.000 A 
ATOM      8  C   UNL     1       4.609   4.440  16.888  0.00  0.00    +0.000 A 
ATOM      9  C   UNL     1       3.963   5.634  17.374  0.00  0.00    +0.000 A 
ATOM     10  C   UNL     1       3.049   5.741  18.611  0.00  0.00    +0.000 A 
ATOM     11  C   UNL     1       2.594   4.398  19.625  0.00  0.00    +0.000 A 
ATOM     12  C   UNL     1       1.652   4.588  20.664  0.00  0.00    +0.000 A 
ATOM     13  C   UNL     1       1.203   3.557  21.559  0.00  0.00    +0.000 A 
ATOM     14  C   UNL     1       1.690   2.256  21.492  0.00  0.00    +0.000 A 
ATOM     15  C   UNL     1       2.595   1.950  20.511  0.00  0.00    +0.000 A 
ATOM     16  C   UNL     1       3.022   2.940  19.587  0.00  0.00    +0.000 A 
ATOM     17  C   UNL     1       3.935   2.223  18.537  0.00  0.00    +0.000 C 
ATOM     18  C   UNL     1       4.215   3.390  17.754  0.00  0.00    +0.000 C 
ENDROOT
BRANCH   1  19
ATOM     19  C   UNL     1       1.957   7.799  19.956  0.00  0.00    +0.000 C 
BRANCH  19  20
ATOM     20  C   UNL     1       1.299   9.112  19.491  0.00  0.00    +0.000 C 
BRANCH  20  22
ATOM     21  C   UNL     1       0.054   8.728  21.511  0.00  0.00    +0.000 C 
ATOM     22  N   UNL     1       0.215   9.635  20.364  0.00  0.00    +0.000 NA
ATOM     23  C   UNL     1       0.510  10.982  20.879  0.00  0.00    +0.000 C 
ENDBRANCH  20  22
ENDBRANCH  19  20
ENDBRANCH   1  19
TORSDOF 3
ENDMDL
MODEL 8
REMARK VINA RESULT:      -6.5      4.861      7.772
REMARK  Name = 
REMARK  5 active torsions:
REMARK  status: ('A' for Active; 'I' for Inactive)
REMARK    1  A    between atoms: C_1  and  N_2
REMARK    2  A    between atoms: N_2  and  C_3
REMARK    3  A    between atoms: N_2  and  C_4
REMARK    4  A    between atoms: C_4  and  C_5
REMARK    5  A    between atoms: C_5  and  C_6
REMARK                            x       y       z     vdW  Elec       q    Type
REMARK                         _______ _______ _______ _____ _____    ______ ____
ROOT
ATOM      1  C   UNL     1       0.031  10.388  19.744  0.00  0.00    +0.000 A 
ATOM      2  N   UNL     1       0.731  10.503  20.924  0.00  0.00    +0.000 NA
ATOM      3  N   UNL     1       0.321  11.226  22.003  0.00  0.00    +0.000 NA
ATOM      4  C   UNL     1      -0.817  11.885  21.960  0.00  0.00    +0.000 A 
ATOM      5  C   UNL     1      -1.155  12.683  23.067  0.00  0.00    +0.000 A 
ATOM      6  C   UNL     1      -2.332  13.436  23.132  0.00  0.00    +0.000 A 
ATOM      7  C   UNL     1      -3.212  13.364  22.086  0.00  0.00    +0.000 A 
ATOM      8  C   UNL     1      -2.840  12.561  21.016  0.00  0.00    +0.000 A 
ATOM      9  C   UNL     1      -1.640  11.782  20.831  0.00  0.00    +0.000 A 
ATOM     10  C   UNL     1      -1.258  10.974  19.576  0.00  0.00    +0.000 A 
ATOM     11  C   UNL     1      -2.255  10.822  18.154  0.00  0.00    +0.000 A 
ATOM     12  C   UNL     1      -1.861   9.955  17.107  0.00  0.00    +0.000 A 
ATOM     13  C   UNL     1      -2.602   9.751  15.893  0.00  0.00    +0.000 A 
ATOM     14  C   UNL     1      -3.788  10.427  15.628  0.00  0.00    +0.000 A 
ATOM     15  C   UNL     1      -4.278  11.279  16.580  0.00  0.00    +0.000 A 
ATOM     16  C   UNL     1      -3.588  11.466  17.807  0.00  0.00    +0.000 A 
ATOM     17  C   UNL     1      -4.485  12.385  18.702  0.00  0.00    +0.000 C 
ATOM     18  C   UNL     1      -3.601  12.412  19.830  0.00  0.00    +0.000 C 
ENDROOT
BRANCH   1  19
ATOM     19  C   UNL     1       0.973   9.696  18.783  0.00  0.00    +0.000 C 
BRANCH  19  20
ATOM     20  C   UNL     1       1.722   8.538  19.469  0.00  0.00    +0.000 C 
BRANCH  20  22
ATOM     21  C   UNL     1       3.205   7.976  17.662  0.00  0.00    +0.000 C 
ATOM     22  N   UNL     1       2.179   7.444  18.573  0.00  0.00    +0.000 NA
ATOM     23  C   UNL     1       2.763   6.316  19.317  0.00  0.00    +0.000 C 
ENDBRANCH  20  22
ENDBRANCH  19  20
ENDBRANCH   1  19
TORSDOF 3
ENDMDL
MODEL 9
REMARK VINA RESULT:      -6.5      3.670      5.968
REMARK  Name = 
REMARK  5 active torsions:
REMARK  status: ('A' for Active; 'I' for Inactive)
REMARK    1  A    between atoms: C_1  and  N_2
REMARK    2  A    between atoms: N_2  and  C_3
REMARK    3  A    between atoms: N_2  and  C_4
REMARK    4  A    between atoms: C_4  and  C_5
REMARK    5  A    between atoms: C_5  and  C_6
REMARK                            x       y       z     vdW  Elec       q    Type
REMARK                         _______ _______ _______ _____ _____    ______ ____
ROOT
ATOM      1  C   UNL     1       1.351  11.133  18.578  0.00  0.00    +0.000 A 
ATOM      2  N   UNL     1       2.072  10.503  17.589  0.00  0.00    +0.000 NA
ATOM      3  N   UNL     1       2.454   9.197  17.620  0.00  0.00    +0.000 NA
ATOM      4  C   UNL     1       2.140   8.443  18.652  0.00  0.00    +0.000 A 
ATOM      5  C   UNL     1       2.629   7.125  18.673  0.00  0.00    +0.000 A 
ATOM      6  C   UNL     1       2.370   6.234  19.720  0.00  0.00    +0.000 A 
ATOM      7  C   UNL     1       1.574   6.652  20.751  0.00  0.00    +0.000 A 
ATOM      8  C   UNL     1       1.110   7.959  20.687  0.00  0.00    +0.000 A 
ATOM      9  C   UNL     1       1.350   8.966  19.683  0.00  0.00    +0.000 A 
ATOM     10  C   UNL     1       0.863  10.428  19.718  0.00  0.00    +0.000 A 
ATOM     11  C   UNL     1      -0.121  11.114  20.982  0.00  0.00    +0.000 A 
ATOM     12  C   UNL     1      -0.612  12.435  20.854  0.00  0.00    +0.000 A 
ATOM     13  C   UNL     1      -1.430  13.102  21.829  0.00  0.00    +0.000 A 
ATOM     14  C   UNL     1      -1.795  12.496  23.026  0.00  0.00    +0.000 A 
ATOM     15  C   UNL     1      -1.392  11.207  23.253  0.00  0.00    +0.000 A 
ATOM     16  C   UNL     1      -0.619  10.511  22.285  0.00  0.00    +0.000 A 
ATOM     17  C   UNL     1      -0.456   9.042  22.801  0.00  0.00    +0.000 C 
ATOM     18  C   UNL     1       0.321   8.575  21.691  0.00  0.00    +0.000 C 
ENDROOT
BRANCH   1  19
ATOM     19  C   UNL     1       1.371  12.603  18.218  0.00  0.00    +0.000 C 
BRANCH  19  20
ATOM     20  C   UNL     1       2.791  13.189  18.331  0.00  0.00    +0.000 C 
BRANCH  20  22
ATOM     21  C   UNL     1       1.880  15.253  19.160  0.00  0.00    +0.000 C 
ATOM     22  N   UNL     1       2.964  14.273  19.333  0.00  0.00    +0.000 NA
ATOM     23  C   UNL     1       2.917  13.772  20.716  0.00  0.00    +0.000 C 
ENDBRANCH  20  22
ENDBRANCH  19  20
ENDBRANCH   1  19
TORSDOF 3
ENDMDL
