MODEL 1
REMARK VINA RESULT:      -8.1      0.000      0.000
REMARK  Name = 
REMARK  7 active torsions:
REMARK  status: ('A' for Active; 'I' for Inactive)
REMARK    1  A    between atoms: C_1  and  C_2
REMARK    2  A    between atoms: C_2  and  C_3
REMARK    3  A    between atoms: N_4  and  O_5
REMARK    4  A    between atoms: O_5  and  C_6
REMARK    5  A    between atoms: C_6  and  C_7
REMARK    6  A    between atoms: C_11  and  C_12
REMARK    7  A    between atoms: C_14  and  C_15
REMARK                            x       y       z     vdW  Elec       q    Type
REMARK                         _______ _______ _______ _____ _____    ______ ____
ROOT
ATOM      1  C   UNL     1       3.407   4.335  17.316  0.00  0.00    +0.000 A 
ATOM      2  C   UNL     1       4.643   4.646  16.738  0.00  0.00    +0.000 A 
ATOM      3  C   UNL     1       5.109   5.958  16.739  0.00  0.00    +0.000 A 
ATOM      4  C   UNL     1       4.349   6.971  17.331  0.00  0.00    +0.000 A 
ATOM      5  C   UNL     1       3.113   6.687  17.930  0.00  0.00    +0.000 A 
ATOM      6  C   UNL     1       2.649   5.363  17.900  0.00  0.00    +0.000 A 
ENDROOT
BRANCH   5   7
ATOM      7  C   UNL     1       2.353   7.738  18.593  0.00  0.00    +0.000 A 
ATOM      8  C   UNL     1       1.850   7.914  19.858  0.00  0.00    +0.000 A 
ATOM      9  C   UNL     1       1.160   9.154  19.816  0.00  0.00    +0.000 A 
ATOM     10  N   UNL     1       1.246   9.693  18.590  0.00  0.00    +0.000 NA
ATOM     11  O   UNL     1       1.997   8.813  17.837  0.00  0.00    +0.000 OA
BRANCH   9  12
ATOM     12  C   UNL     1       0.432   9.803  20.902  0.00  0.00    +0.000 A 
ATOM     13  C   UNL     1       0.229   9.135  22.119  0.00  0.00    +0.000 A 
ATOM     14  C   UNL     1      -0.473   9.750  23.156  0.00  0.00    +0.000 A 
ATOM     15  C   UNL     1      -0.985  11.034  22.986  0.00  0.00    +0.000 A 
ATOM     16  C   UNL     1      -0.792  11.708  21.782  0.00  0.00    +0.000 A 
ATOM     17  C   UNL     1      -0.084  11.097  20.745  0.00  0.00    +0.000 A 
ENDBRANCH   9  12
ENDBRANCH   5   7
BRANCH   1  18
ATOM     18  C   UNL     1       2.889   2.920  17.335  0.00  0.00    +0.000 C 
BRANCH  18  19
ATOM     19  O   UNL     1       1.796   2.847  18.249  0.00  0.00    +0.000 OA
BRANCH  19  23
ATOM     20  C   UNL     1       2.106   2.429  21.850  0.00  0.00    +0.000 C 
ATOM     21  C   UNL     1       1.728   2.907  20.472  0.00  0.00    +0.000 C 
ATOM     22  C   UNL     1       0.786   4.080  20.350  0.00  0.00    +0.000 C 
ATOM     23  N   UNL     1       2.244   2.287  19.454  0.00  0.00    +0.000 NA
ENDBRANCH  19  23
ENDBRANCH  18  19
ENDBRANCH   1  18
TORSDOF 5
ENDMDL
MODEL 2
REMARK VINA RESULT:      -8.0      0.679      1.199
REMARK  Name = 
REMARK  7 active torsions:
REMARK  status: ('A' for Active; 'I' for Inactive)
REMARK    1  A    between atoms: C_1  and  C_2
REMARK    2  A    between atoms: C_2  and  C_3
REMARK    3  A    between atoms: N_4  and  O_5
REMARK    4  A    between atoms: O_5  and  C_6
REMARK    5  A    between atoms: C_6  and  C_7
REMARK    6  A    between atoms: C_11  and  C_12
REMARK    7  A    between atoms: C_14  and  C_15
REMARK                            x       y       z     vdW  Elec       q    Type
REMARK                         _______ _______ _______ _____ _____    ______ ____
ROOT
ATOM      1  C   UNL     1       4.154   4.150  17.237  0.00  0.00    +0.000 A 
ATOM      2  C   UNL     1       5.087   4.551  16.274  0.00  0.00    +0.000 A 
ATOM      3  C   UNL     1       5.219   5.897  15.942  0.00  0.00    +0.000 A 
ATOM      4  C   UNL     1       4.429   6.857  16.579  0.00  0.00    +0.000 A 
ATOM      5  C   UNL     1       3.495   6.486  17.558  0.00  0.00    +0.000 A 
ATOM      6  C   UNL     1       3.360   5.124  17.864  0.00  0.00    +0.000 A 
ENDROOT
BRANCH   5   7
ATOM      7  C   UNL     1       2.715   7.498  18.257  0.00  0.00    +0.000 A 
ATOM      8  C   UNL     1       2.190   7.610  19.521  0.00  0.00    +0.000 A 
ATOM      9  C   UNL     1       1.489   8.844  19.526  0.00  0.00    +0.000 A 
ATOM     10  N   UNL     1       1.589   9.441  18.328  0.00  0.00    +0.000 NA
ATOM     11  O   UNL     1       2.360   8.604  17.546  0.00  0.00    +0.000 OA
BRANCH   9  12
ATOM     12  C   UNL     1       0.737   9.435  20.630  0.00  0.00    +0.000 A 
ATOM     13  C   UNL     1      -0.065  10.565  20.416  0.00  0.00    +0.000 A 
ATOM     14  C   UNL     1      -0.779  11.137  21.470  0.00  0.00    +0.000 A 
ATOM     15  C   UNL     1      -0.693  10.589  22.748  0.00  0.00    +0.000 A 
ATOM     16  C   UNL     1       0.101   9.466  22.973  0.00  0.00    +0.000 A 
ATOM     17  C   UNL     1       0.812   8.889  21.919  0.00  0.00    +0.000 A 
ENDBRANCH   9  12
ENDBRANCH   5   7
BRANCH   1  18
ATOM     18  C   UNL     1       4.002   2.701  17.619  0.00  0.00    +0.000 C 
BRANCH  18  19
ATOM     19  O   UNL     1       2.734   2.526  18.250  0.00  0.00    +0.000 OA
BRANCH  19  23
ATOM     20  C   UNL     1       2.017   2.636  21.815  0.00  0.00    +0.000 C 
ATOM     21  C   UNL     1       1.960   2.798  20.318  0.00  0.00    +0.000 C 
ATOM     22  C   UNL     1       0.792   3.542  19.718  0.00  0.00    +0.000 C 
ATOM     23  N   UNL     1       2.933   2.294  19.619  0.00  0.00    +0.000 NA
ENDBRANCH  19  23
ENDBRANCH  18  19
ENDBRANCH   1  18
TORSDOF 5
ENDMDL
MODEL 3
REMARK VINA RESULT:      -8.0      2.384      3.820
REMARK  Name = 
REMARK  7 active torsions:
REMARK  status: ('A' for Active; 'I' for Inactive)
REMARK    1  A    between atoms: C_1  and  C_2
REMARK    2  A    between atoms: C_2  and  C_3
REMARK    3  A    between atoms: N_4  and  O_5
REMARK    4  A    between atoms: O_5  and  C_6
REMARK    5  A    between atoms: C_6  and  C_7
REMARK    6  A    between atoms: C_11  and  C_12
REMARK    7  A    between atoms: C_14  and  C_15
REMARK                            x       y       z     vdW  Elec       q    Type
REMARK                         _______ _______ _______ _____ _____    ______ ____
ROOT
ATOM      1  C   UNL     1       4.348   5.305  17.495  0.00  0.00    +0.000 A 
ATOM      2  C   UNL     1       4.240   4.135  18.256  0.00  0.00    +0.000 A 
ATOM      3  C   UNL     1       3.481   4.125  19.423  0.00  0.00    +0.000 A 
ATOM      4  C   UNL     1       2.812   5.281  19.835  0.00  0.00    +0.000 A 
ATOM      5  C   UNL     1       2.892   6.464  19.086  0.00  0.00    +0.000 A 
ATOM      6  C   UNL     1       3.678   6.462  17.924  0.00  0.00    +0.000 A 
ENDROOT
BRANCH   5   7
ATOM      7  C   UNL     1       2.147   7.648  19.491  0.00  0.00    +0.000 A 
ATOM      8  C   UNL     1       1.523   8.048  20.647  0.00  0.00    +0.000 A 
ATOM      9  C   UNL     1       0.940   9.306  20.340  0.00  0.00    +0.000 A 
ATOM     10  N   UNL     1       1.203   9.642  19.068  0.00  0.00    +0.000 NA
ATOM     11  O   UNL     1       1.962   8.613  18.547  0.00  0.00    +0.000 OA
BRANCH   9  12
ATOM     12  C   UNL     1       0.149  10.157  21.223  0.00  0.00    +0.000 A 
ATOM     13  C   UNL     1      -0.364   9.650  22.426  0.00  0.00    +0.000 A 
ATOM     14  C   UNL     1      -1.127  10.459  23.269  0.00  0.00    +0.000 A 
ATOM     15  C   UNL     1      -1.390  11.780  22.915  0.00  0.00    +0.000 A 
ATOM     16  C   UNL     1      -0.887  12.297  21.722  0.00  0.00    +0.000 A 
ATOM     17  C   UNL     1      -0.119  11.490  20.881  0.00  0.00    +0.000 A 
ENDBRANCH   9  12
ENDBRANCH   5   7
BRANCH   1  18
ATOM     18  C   UNL     1       5.156   5.336  16.224  0.00  0.00    +0.000 C 
BRANCH  18  19
ATOM     19  O   UNL     1       6.540   5.409  16.564  0.00  0.00    +0.000 OA
BRANCH  19  23
ATOM     20  C   UNL     1       8.042   8.479  17.813  0.00  0.00    +0.000 C 
ATOM     21  C   UNL     1       7.541   7.066  17.661  0.00  0.00    +0.000 C 
ATOM     22  C   UNL     1       7.747   6.102  18.804  0.00  0.00    +0.000 C 
ATOM     23  N   UNL     1       6.944   6.753  16.551  0.00  0.00    +0.000 NA
ENDBRANCH  19  23
ENDBRANCH  18  19
ENDBRANCH   1  18
TORSDOF 5
ENDMDL
MODEL 4
REMARK VINA RESULT:      -8.0      2.565      4.395
REMARK  Name = 
REMARK  7 active torsions:
REMARK  status: ('A' for Active; 'I' for Inactive)
REMARK    1  A    between atoms: C_1  and  C_2
REMARK    2  A    between atoms: C_2  and  C_3
REMARK    3  A    between atoms: N_4  and  O_5
REMARK    4  A    between atoms: O_5  and  C_6
REMARK    5  A    between atoms: C_6  and  C_7
REMARK    6  A    between atoms: C_11  and  C_12
REMARK    7  A    between atoms: C_14  and  C_15
REMARK                            x       y       z     vdW  Elec       q    Type
REMARK                         _______ _______ _______ _____ _____    ______ ____
ROOT
ATOM      1  C   UNL     1       5.053   5.754  17.151  0.00  0.00    +0.000 A 
ATOM      2  C   UNL     1       4.447   4.504  16.977  0.00  0.00    +0.000 A 
ATOM      3  C   UNL     1       3.149   4.285  17.430  0.00  0.00    +0.000 A 
ATOM      4  C   UNL     1       2.439   5.317  18.049  0.00  0.00    +0.000 A 
ATOM      5  C   UNL     1       3.016   6.583  18.225  0.00  0.00    +0.000 A 
ATOM      6  C   UNL     1       4.332   6.780  17.782  0.00  0.00    +0.000 A 
ENDROOT
BRANCH   5   7
ATOM      7  C   UNL     1       2.250   7.669  18.821  0.00  0.00    +0.000 A 
ATOM      8  C   UNL     1       1.721   7.910  20.065  0.00  0.00    +0.000 A 
ATOM      9  C   UNL     1       1.042   9.150  19.949  0.00  0.00    +0.000 A 
ATOM     10  N   UNL     1       1.158   9.629  18.701  0.00  0.00    +0.000 NA
ATOM     11  O   UNL     1       1.918   8.710  18.006  0.00  0.00    +0.000 OA
BRANCH   9  12
ATOM     12  C   UNL     1       0.295   9.855  20.987  0.00  0.00    +0.000 A 
ATOM     13  C   UNL     1      -0.202  11.145  20.751  0.00  0.00    +0.000 A 
ATOM     14  C   UNL     1      -0.909  11.825  21.743  0.00  0.00    +0.000 A 
ATOM     15  C   UNL     1      -1.122  11.225  22.982  0.00  0.00    +0.000 A 
ATOM     16  C   UNL     1      -0.633   9.944  23.230  0.00  0.00    +0.000 A 
ATOM     17  C   UNL     1       0.071   9.260  22.237  0.00  0.00    +0.000 A 
ENDBRANCH   9  12
ENDBRANCH   5   7
BRANCH   1  18
ATOM     18  C   UNL     1       6.453   6.016  16.660  0.00  0.00    +0.000 C 
BRANCH  18  19
ATOM     19  O   UNL     1       6.895   4.882  15.916  0.00  0.00    +0.000 OA
BRANCH  19  23
ATOM     20  C   UNL     1       7.766   5.173  12.395  0.00  0.00    +0.000 C 
ATOM     21  C   UNL     1       7.117   4.801  13.703  0.00  0.00    +0.000 C 
ATOM     22  C   UNL     1       5.952   3.842  13.683  0.00  0.00    +0.000 C 
ATOM     23  N   UNL     1       7.605   5.322  14.789  0.00  0.00    +0.000 NA
ENDBRANCH  19  23
ENDBRANCH  18  19
ENDBRANCH   1  18
TORSDOF 5
ENDMDL
MODEL 5
REMARK VINA RESULT:      -8.0      2.339      3.674
REMARK  Name = 
REMARK  7 active torsions:
REMARK  status: ('A' for Active; 'I' for Inactive)
REMARK    1  A    between atoms: C_1  and  C_2
REMARK    2  A    between atoms: C_2  and  C_3
REMARK    3  A    between atoms: N_4  and  O_5
REMARK    4  A    between atoms: O_5  and  C_6
REMARK    5  A    between atoms: C_6  and  C_7
REMARK    6  A    between atoms: C_11  and  C_12
REMARK    7  A    between atoms: C_14  and  C_15
REMARK                            x       y       z     vdW  Elec       q    Type
REMARK                         _______ _______ _______ _____ _____    ______ ____
ROOT
ATOM      1  C   UNL     1       4.987   5.194  16.297  0.00  0.00    +0.000 A 
ATOM      2  C   UNL     1       4.625   3.887  16.642  0.00  0.00    +0.000 A 
ATOM      3  C   UNL     1       3.650   3.661  17.610  0.00  0.00    +0.000 A 
ATOM      4  C   UNL     1       3.018   4.740  18.234  0.00  0.00    +0.000 A 
ATOM      5  C   UNL     1       3.351   6.060  17.899  0.00  0.00    +0.000 A 
ATOM      6  C   UNL     1       4.351   6.270  16.938  0.00  0.00    +0.000 A 
ENDROOT
BRANCH   5   7
ATOM      7  C   UNL     1       2.649   7.179  18.514  0.00  0.00    +0.000 A 
ATOM      8  C   UNL     1       2.098   7.412  19.750  0.00  0.00    +0.000 A 
ATOM      9  C   UNL     1       1.518   8.704  19.662  0.00  0.00    +0.000 A 
ATOM     10  N   UNL     1       1.712   9.219  18.438  0.00  0.00    +0.000 NA
ATOM     11  O   UNL     1       2.424   8.271  17.731  0.00  0.00    +0.000 OA
BRANCH   9  12
ATOM     12  C   UNL     1       0.792   9.425  20.703  0.00  0.00    +0.000 A 
ATOM     13  C   UNL     1       0.490   8.798  21.921  0.00  0.00    +0.000 A 
ATOM     14  C   UNL     1      -0.211   9.482  22.915  0.00  0.00    +0.000 A 
ATOM     15  C   UNL     1      -0.622  10.795  22.700  0.00  0.00    +0.000 A 
ATOM     16  C   UNL     1      -0.329  11.430  21.494  0.00  0.00    +0.000 A 
ATOM     17  C   UNL     1       0.377  10.749  20.500  0.00  0.00    +0.000 A 
ENDBRANCH   9  12
ENDBRANCH   5   7
BRANCH   1  18
ATOM     18  C   UNL     1       6.033   5.462  15.246  0.00  0.00    +0.000 C 
BRANCH  18  19
ATOM     19  O   UNL     1       7.164   6.066  15.871  0.00  0.00    +0.000 OA
BRANCH  19  23
ATOM     20  C   UNL     1       7.957   5.793  19.412  0.00  0.00    +0.000 C 
ATOM     21  C   UNL     1       7.678   6.306  18.023  0.00  0.00    +0.000 C 
ATOM     22  C   UNL     1       7.749   7.794  17.776  0.00  0.00    +0.000 C 
ATOM     23  N   UNL     1       7.399   5.434  17.101  0.00  0.00    +0.000 NA
ENDBRANCH  19  23
ENDBRANCH  18  19
ENDBRANCH   1  18
TORSDOF 5
ENDMDL
MODEL 6
REMARK VINA RESULT:      -7.9      0.623      1.305
REMARK  Name = 
REMARK  7 active torsions:
REMARK  status: ('A' for Active; 'I' for Inactive)
REMARK    1  A    between atoms: C_1  and  C_2
REMARK    2  A    between atoms: C_2  and  C_3
REMARK    3  A    between atoms: N_4  and  O_5
REMARK    4  A    between atoms: O_5  and  C_6
REMARK    5  A    between atoms: C_6  and  C_7
REMARK    6  A    between atoms: C_11  and  C_12
REMARK    7  A    between atoms: C_14  and  C_15
REMARK                            x       y       z     vdW  Elec       q    Type
REMARK                         _______ _______ _______ _____ _____    ______ ____
ROOT
ATOM      1  C   UNL     1       3.213   4.112  17.327  0.00  0.00    +0.000 A 
ATOM      2  C   UNL     1       4.529   4.316  16.898  0.00  0.00    +0.000 A 
ATOM      3  C   UNL     1       5.124   5.569  17.027  0.00  0.00    +0.000 A 
ATOM      4  C   UNL     1       4.413   6.626  17.599  0.00  0.00    +0.000 A 
ATOM      5  C   UNL     1       3.097   6.448  18.050  0.00  0.00    +0.000 A 
ATOM      6  C   UNL     1       2.506   5.186  17.893  0.00  0.00    +0.000 A 
ENDROOT
BRANCH   5   7
ATOM      7  C   UNL     1       2.382   7.541  18.696  0.00  0.00    +0.000 A 
ATOM      8  C   UNL     1       1.796   7.719  19.925  0.00  0.00    +0.000 A 
ATOM      9  C   UNL     1       1.224   9.017  19.882  0.00  0.00    +0.000 A 
ATOM     10  N   UNL     1       1.455   9.587  18.689  0.00  0.00    +0.000 NA
ATOM     11  O   UNL     1       2.184   8.669  17.960  0.00  0.00    +0.000 OA
BRANCH   9  12
ATOM     12  C   UNL     1       0.470   9.692  20.935  0.00  0.00    +0.000 A 
ATOM     13  C   UNL     1      -0.089  10.957  20.706  0.00  0.00    +0.000 A 
ATOM     14  C   UNL     1      -0.804  11.608  21.712  0.00  0.00    +0.000 A 
ATOM     15  C   UNL     1      -0.960  11.005  22.958  0.00  0.00    +0.000 A 
ATOM     16  C   UNL     1      -0.408   9.748  23.198  0.00  0.00    +0.000 A 
ATOM     17  C   UNL     1       0.302   9.092  22.191  0.00  0.00    +0.000 A 
ENDBRANCH   9  12
ENDBRANCH   5   7
BRANCH   1  18
ATOM     18  C   UNL     1       2.554   2.763  17.206  0.00  0.00    +0.000 C 
BRANCH  18  19
ATOM     19  O   UNL     1       2.880   1.991  18.360  0.00  0.00    +0.000 OA
BRANCH  19  23
ATOM     20  C   UNL     1       1.398   2.709  21.604  0.00  0.00    +0.000 C 
ATOM     21  C   UNL     1       2.358   2.499  20.462  0.00  0.00    +0.000 C 
ATOM     22  C   UNL     1       3.833   2.701  20.714  0.00  0.00    +0.000 C 
ATOM     23  N   UNL     1       1.863   2.143  19.315  0.00  0.00    +0.000 NA
ENDBRANCH  19  23
ENDBRANCH  18  19
ENDBRANCH   1  18
TORSDOF 5
ENDMDL
MODEL 7
REMARK VINA RESULT:      -7.8      1.980      2.188
REMARK  Name = 
REMARK  7 active torsions:
REMARK  status: ('A' for Active; 'I' for Inactive)
REMARK    1  A    between atoms: C_1  and  C_2
REMARK    2  A    between atoms: C_2  and  C_3
REMARK    3  A    between atoms: N_4  and  O_5
REMARK    4  A    between atoms: O_5  and  C_6
REMARK    5  A    between atoms: C_6  and  C_7
REMARK    6  A    between atoms: C_11  and  C_12
REMARK    7  A    between atoms: C_14  and  C_15
REMARK                            x       y       z     vdW  Elec       q    Type
REMARK                         _______ _______ _______ _____ _____    ______ ____
ROOT
ATOM      1  C   UNL     1       3.442   4.024  17.368  0.00  0.00    +0.000 A 
ATOM      2  C   UNL     1       4.770   4.215  16.971  0.00  0.00    +0.000 A 
ATOM      3  C   UNL     1       5.328   5.491  16.978  0.00  0.00    +0.000 A 
ATOM      4  C   UNL     1       4.567   6.586  17.395  0.00  0.00    +0.000 A 
ATOM      5  C   UNL     1       3.238   6.423  17.811  0.00  0.00    +0.000 A 
ATOM      6  C   UNL     1       2.685   5.134  17.777  0.00  0.00    +0.000 A 
ENDROOT
BRANCH   5   7
ATOM      7  C   UNL     1       2.470   7.561  18.298  0.00  0.00    +0.000 A 
ATOM      8  C   UNL     1       1.952   8.694  17.722  0.00  0.00    +0.000 A 
ATOM      9  C   UNL     1       1.351   9.414  18.787  0.00  0.00    +0.000 A 
ATOM     10  N   UNL     1       1.499   8.746  19.942  0.00  0.00    +0.000 NA
ATOM     11  O   UNL     1       2.187   7.590  19.630  0.00  0.00    +0.000 OA
BRANCH   9  12
ATOM     12  C   UNL     1       0.666  10.701  18.715  0.00  0.00    +0.000 A 
ATOM     13  C   UNL     1      -0.714  10.758  18.472  0.00  0.00    +0.000 A 
ATOM     14  C   UNL     1      -1.370  11.987  18.395  0.00  0.00    +0.000 A 
ATOM     15  C   UNL     1      -0.654  13.171  18.554  0.00  0.00    +0.000 A 
ATOM     16  C   UNL     1       0.718  13.128  18.796  0.00  0.00    +0.000 A 
ATOM     17  C   UNL     1       1.376  11.899  18.879  0.00  0.00    +0.000 A 
ENDBRANCH   9  12
ENDBRANCH   5   7
BRANCH   1  18
ATOM     18  C   UNL     1       2.821   2.651  17.377  0.00  0.00    +0.000 C 
BRANCH  18  19
ATOM     19  O   UNL     1       1.682   2.671  18.237  0.00  0.00    +0.000 OA
BRANCH  19  23
ATOM     20  C   UNL     1       1.909   2.442  21.862  0.00  0.00    +0.000 C 
ATOM     21  C   UNL     1       1.611   2.882  20.451  0.00  0.00    +0.000 C 
ATOM     22  C   UNL     1       0.848   4.167  20.243  0.00  0.00    +0.000 C 
ATOM     23  N   UNL     1       2.039   2.130  19.481  0.00  0.00    +0.000 NA
ENDBRANCH  19  23
ENDBRANCH  18  19
ENDBRANCH   1  18
TORSDOF 5
ENDMDL
MODEL 8
REMARK VINA RESULT:      -7.7      2.280      3.899
REMARK  Name = 
REMARK  7 active torsions:
REMARK  status: ('A' for Active; 'I' for Inactive)
REMARK    1  A    between atoms: C_1  and  C_2
REMARK    2  A    between atoms: C_2  and  C_3
REMARK    3  A    between atoms: N_4  and  O_5
REMARK    4  A    between atoms: O_5  and  C_6
REMARK    5  A    between atoms: C_6  and  C_7
REMARK    6  A    between atoms: C_11  and  C_12
REMARK    7  A    between atoms: C_14  and  C_15
REMARK                            x       y       z     vdW  Elec       q    Type
REMARK                         _______ _______ _______ _____ _____    ______ ____
ROOT
ATOM      1  C   UNL     1       5.140   4.711  18.319  0.00  0.00    +0.000 A 
ATOM      2  C   UNL     1       4.389   3.605  17.903  0.00  0.00    +0.000 A 
ATOM      3  C   UNL     1       2.999   3.636  17.969  0.00  0.00    +0.000 A 
ATOM      4  C   UNL     1       2.344   4.778  18.439  0.00  0.00    +0.000 A 
ATOM      5  C   UNL     1       3.070   5.905  18.850  0.00  0.00    +0.000 A 
ATOM      6  C   UNL     1       4.471   5.849  18.797  0.00  0.00    +0.000 A 
ENDROOT
BRANCH   5   7
ATOM      7  C   UNL     1       2.380   7.111  19.286  0.00  0.00    +0.000 A 
ATOM      8  C   UNL     1       1.772   7.509  20.452  0.00  0.00    +0.000 A 
ATOM      9  C   UNL     1       1.248   8.799  20.178  0.00  0.00    +0.000 A 
ATOM     10  N   UNL     1       1.527   9.157  18.915  0.00  0.00    +0.000 NA
ATOM     11  O   UNL     1       2.240   8.108  18.369  0.00  0.00    +0.000 OA
BRANCH   9  12
ATOM     12  C   UNL     1       0.495   9.662  21.083  0.00  0.00    +0.000 A 
ATOM     13  C   UNL     1       0.298  11.016  20.773  0.00  0.00    +0.000 A 
ATOM     14  C   UNL     1      -0.415  11.846  21.639  0.00  0.00    +0.000 A 
ATOM     15  C   UNL     1      -0.932  11.333  22.826  0.00  0.00    +0.000 A 
ATOM     16  C   UNL     1      -0.743   9.990  23.147  0.00  0.00    +0.000 A 
ATOM     17  C   UNL     1      -0.035   9.157  22.279  0.00  0.00    +0.000 A 
ENDBRANCH   9  12
ENDBRANCH   5   7
BRANCH   1  18
ATOM     18  C   UNL     1       6.645   4.702  18.247  0.00  0.00    +0.000 C 
BRANCH  18  19
ATOM     19  O   UNL     1       7.052   5.485  17.125  0.00  0.00    +0.000 OA
BRANCH  19  23
ATOM     20  C   UNL     1       6.497   4.086  13.812  0.00  0.00    +0.000 C 
ATOM     21  C   UNL     1       6.415   4.907  15.073  0.00  0.00    +0.000 C 
ATOM     22  C   UNL     1       5.360   5.983  15.164  0.00  0.00    +0.000 C 
ATOM     23  N   UNL     1       7.255   4.637  16.026  0.00  0.00    +0.000 NA
ENDBRANCH  19  23
ENDBRANCH  18  19
ENDBRANCH   1  18
TORSDOF 5
ENDMDL
MODEL 9
REMARK VINA RESULT:      -7.7      2.880      8.273
REMARK  Name = 
REMARK  7 active torsions:
REMARK  status: ('A' for Active; 'I' for Inactive)
REMARK    1  A    between atoms: C_1  and  C_2
REMARK    2  A    between atoms: C_2  and  C_3
REMARK    3  A    between atoms: N_4  and  O_5
REMARK    4  A    between atoms: O_5  and  C_6
REMARK    5  A    between atoms: C_6  and  C_7
REMARK    6  A    between atoms: C_11  and  C_12
REMARK    7  A    between atoms: C_14  and  C_15
REMARK                            x       y       z     vdW  Elec       q    Type
REMARK                         _______ _______ _______ _____ _____    ______ ____
ROOT
ATOM      1  C   UNL     1       1.861   5.706  20.289  0.00  0.00    +0.000 A 
ATOM      2  C   UNL     1       1.320   4.478  20.687  0.00  0.00    +0.000 A 
ATOM      3  C   UNL     1       1.712   3.300  20.055  0.00  0.00    +0.000 A 
ATOM      4  C   UNL     1       2.660   3.338  19.029  0.00  0.00    +0.000 A 
ATOM      5  C   UNL     1       3.229   4.552  18.619  0.00  0.00    +0.000 A 
ATOM      6  C   UNL     1       2.806   5.730  19.251  0.00  0.00    +0.000 A 
ENDROOT
BRANCH   5   7
ATOM      7  C   UNL     1       4.257   4.576  17.587  0.00  0.00    +0.000 A 
ATOM      8  C   UNL     1       4.260   4.419  16.223  0.00  0.00    +0.000 A 
ATOM      9  C   UNL     1       5.624   4.512  15.840  0.00  0.00    +0.000 A 
ATOM     10  N   UNL     1       6.397   4.715  16.918  0.00  0.00    +0.000 NA
ATOM     11  O   UNL     1       5.541   4.764  18.000  0.00  0.00    +0.000 OA
BRANCH   9  12
ATOM     12  C   UNL     1       6.179   4.400  14.494  0.00  0.00    +0.000 A 
ATOM     13  C   UNL     1       7.321   5.130  14.135  0.00  0.00    +0.000 A 
ATOM     14  C   UNL     1       7.849   5.032  12.847  0.00  0.00    +0.000 A 
ATOM     15  C   UNL     1       7.238   4.208  11.905  0.00  0.00    +0.000 A 
ATOM     16  C   UNL     1       6.103   3.477  12.249  0.00  0.00    +0.000 A 
ATOM     17  C   UNL     1       5.576   3.570  13.539  0.00  0.00    +0.000 A 
ENDBRANCH   9  12
ENDBRANCH   5   7
BRANCH   1  18
ATOM     18  C   UNL     1       1.458   6.990  20.965  0.00  0.00    +0.000 C 
BRANCH  18  19
ATOM     19  O   UNL     1       1.976   8.085  20.211  0.00  0.00    +0.000 OA
BRANCH  19  23
ATOM     20  C   UNL     1       0.007  10.755  18.718  0.00  0.00    +0.000 C 
ATOM     21  C   UNL     1       0.998   9.648  18.965  0.00  0.00    +0.000 C 
ATOM     22  C   UNL     1       1.933   9.255  17.847  0.00  0.00    +0.000 C 
ATOM     23  N   UNL     1       1.003   9.093  20.140  0.00  0.00    +0.000 NA
ENDBRANCH  19  23
ENDBRANCH  18  19
ENDBRANCH   1  18
TORSDOF 5
ENDMDL
