MODEL 1
REMARK VINA RESULT:      -8.3      0.000      0.000
REMARK  Name = 
REMARK  5 active torsions:
REMARK  status: ('A' for Active; 'I' for Inactive)
REMARK    1  A    between atoms: C_1  and  C_2
REMARK    2  A    between atoms: C_2  and  C_18
REMARK    3  A    between atoms: N_3  and  N_4
REMARK    4  A    between atoms: N_7  and  C_8
REMARK    5  A    between atoms: C_21  and  C_22
REMARK                            x       y       z     vdW  Elec       q    Type
REMARK                         _______ _______ _______ _____ _____    ______ ____
ROOT
ATOM      1  N   UNL     1       1.910   7.281  20.782  0.00  0.00    +0.000 N 
ATOM      2  C   UNL     1       1.150   8.420  20.936  0.00  0.00    +0.000 C 
ATOM      3  O   UNL     1       0.563   8.594  22.000  0.00  0.00    +0.000 OA
ATOM      4  N   UNL     1       1.136   9.232  19.824  0.00  0.00    +0.000 N 
ATOM      5  H   UNL     1       1.918   6.679  21.593  0.00  0.00    +0.000 HD
ATOM      6  H   UNL     1       1.544   8.772  19.022  0.00  0.00    +0.000 HD
ENDROOT
BRANCH   4   7
ATOM      7  C   UNL     1       0.450  10.462  19.679  0.00  0.00    +0.000 A 
ATOM      8  C   UNL     1       0.789  11.544  20.504  0.00  0.00    +0.000 A 
ATOM      9  C   UNL     1       0.089  12.743  20.449  0.00  0.00    +0.000 A 
ATOM     10  C   UNL     1      -0.962  12.886  19.555  0.00  0.00    +0.000 A 
ATOM     11  C   UNL     1      -1.303  11.849  18.679  0.00  0.00    +0.000 A 
ATOM     12  C   UNL     1      -2.363  12.045  17.779  0.00  0.00    +0.000 A 
ATOM     13  C   UNL     1      -2.739  11.049  16.885  0.00  0.00    +0.000 A 
ATOM     14  C   UNL     1      -2.053   9.841  16.879  0.00  0.00    +0.000 A 
ATOM     15  C   UNL     1      -0.998   9.626  17.776  0.00  0.00    +0.000 A 
ATOM     16  C   UNL     1      -0.591  10.616  18.709  0.00  0.00    +0.000 A 
ENDBRANCH   4   7
BRANCH   1  19
ATOM     17  C   UNL     1       2.528   4.556  20.173  0.00  0.00    +0.000 C 
ATOM     18  C   UNL     1       2.930   5.781  19.368  0.00  0.00    +0.000 C 
ATOM     19  N   UNL     1       2.626   7.016  19.661  0.00  0.00    +0.000 NA
BRANCH  18  20
ATOM     20  C   UNL     1       3.747   5.540  18.125  0.00  0.00    +0.000 A 
ATOM     21  C   UNL     1       4.327   6.594  17.409  0.00  0.00    +0.000 A 
ATOM     22  C   UNL     1       5.076   6.337  16.257  0.00  0.00    +0.000 A 
ATOM     23  C   UNL     1       5.258   5.030  15.802  0.00  0.00    +0.000 A 
ATOM     24  C   UNL     1       6.056   4.753  14.560  0.00  0.00    +0.000 C 
ATOM     25  C   UNL     1       4.681   3.976  16.517  0.00  0.00    +0.000 A 
ATOM     26  C   UNL     1       3.932   4.228  17.668  0.00  0.00    +0.000 A 
ENDBRANCH  18  20
ENDBRANCH   1  19
TORSDOF 3
ENDMDL
MODEL 2
REMARK VINA RESULT:      -8.1      0.680      1.195
REMARK  Name = 
REMARK  5 active torsions:
REMARK  status: ('A' for Active; 'I' for Inactive)
REMARK    1  A    between atoms: C_1  and  C_2
REMARK    2  A    between atoms: C_2  and  C_18
REMARK    3  A    between atoms: N_3  and  N_4
REMARK    4  A    between atoms: N_7  and  C_8
REMARK    5  A    between atoms: C_21  and  C_22
REMARK                            x       y       z     vdW  Elec       q    Type
REMARK                         _______ _______ _______ _____ _____    ______ ____
ROOT
ATOM      1  N   UNL     1       1.506   7.510  21.165  0.00  0.00    +0.000 N 
ATOM      2  C   UNL     1       0.641   8.577  21.275  0.00  0.00    +0.000 C 
ATOM      3  O   UNL     1       0.052   8.748  22.339  0.00  0.00    +0.000 OA
ATOM      4  N   UNL     1       0.535   9.325  20.124  0.00  0.00    +0.000 N 
ATOM      5  H   UNL     1       1.582   6.954  22.006  0.00  0.00    +0.000 HD
ATOM      6  H   UNL     1       0.976   8.866  19.340  0.00  0.00    +0.000 HD
ENDROOT
BRANCH   4   7
ATOM      7  C   UNL     1      -0.269  10.475  19.929  0.00  0.00    +0.000 A 
ATOM      8  C   UNL     1      -0.195  11.534  20.845  0.00  0.00    +0.000 A 
ATOM      9  C   UNL     1      -1.022  12.644  20.735  0.00  0.00    +0.000 A 
ATOM     10  C   UNL     1      -1.936  12.722  19.695  0.00  0.00    +0.000 A 
ATOM     11  C   UNL     1      -2.011  11.710  18.731  0.00  0.00    +0.000 A 
ATOM     12  C   UNL     1      -2.941  11.838  17.686  0.00  0.00    +0.000 A 
ATOM     13  C   UNL     1      -3.052  10.864  16.700  0.00  0.00    +0.000 A 
ATOM     14  C   UNL     1      -2.228   9.747  16.748  0.00  0.00    +0.000 A 
ATOM     15  C   UNL     1      -1.301   9.599  17.788  0.00  0.00    +0.000 A 
ATOM     16  C   UNL     1      -1.165  10.568  18.816  0.00  0.00    +0.000 A 
ENDBRANCH   4   7
BRANCH   1  19
ATOM     17  C   UNL     1       2.097   4.790  20.510  0.00  0.00    +0.000 C 
ATOM     18  C   UNL     1       2.523   6.026  19.733  0.00  0.00    +0.000 C 
ATOM     19  N   UNL     1       2.231   7.258  20.047  0.00  0.00    +0.000 NA
BRANCH  18  20
ATOM     20  C   UNL     1       3.351   5.798  18.495  0.00  0.00    +0.000 A 
ATOM     21  C   UNL     1       3.604   4.512  18.005  0.00  0.00    +0.000 A 
ATOM     22  C   UNL     1       4.381   4.334  16.857  0.00  0.00    +0.000 A 
ATOM     23  C   UNL     1       4.916   5.433  16.180  0.00  0.00    +0.000 A 
ATOM     24  C   UNL     1       5.757   5.243  14.951  0.00  0.00    +0.000 C 
ATOM     25  C   UNL     1       4.662   6.719  16.668  0.00  0.00    +0.000 A 
ATOM     26  C   UNL     1       3.888   6.900  17.815  0.00  0.00    +0.000 A 
ENDBRANCH  18  20
ENDBRANCH   1  19
TORSDOF 3
ENDMDL
MODEL 3
REMARK VINA RESULT:      -8.0      1.010      2.518
REMARK  Name = 
REMARK  5 active torsions:
REMARK  status: ('A' for Active; 'I' for Inactive)
REMARK    1  A    between atoms: C_1  and  C_2
REMARK    2  A    between atoms: C_2  and  C_18
REMARK    3  A    between atoms: N_3  and  N_4
REMARK    4  A    between atoms: N_7  and  C_8
REMARK    5  A    between atoms: C_21  and  C_22
REMARK                            x       y       z     vdW  Elec       q    Type
REMARK                         _______ _______ _______ _____ _____    ______ ____
ROOT
ATOM      1  N   UNL     1       1.867   7.702  20.739  0.00  0.00    +0.000 N 
ATOM      2  C   UNL     1       0.960   8.738  20.685  0.00  0.00    +0.000 C 
ATOM      3  O   UNL     1       0.375   9.059  21.716  0.00  0.00    +0.000 OA
ATOM      4  N   UNL     1       0.814   9.282  19.430  0.00  0.00    +0.000 N 
ATOM      5  H   UNL     1       1.974   7.295  21.658  0.00  0.00    +0.000 HD
ATOM      6  H   UNL     1       1.266   8.718  18.724  0.00  0.00    +0.000 HD
ENDROOT
BRANCH   4   7
ATOM      7  C   UNL     1      -0.038  10.352  19.061  0.00  0.00    +0.000 A 
ATOM      8  C   UNL     1      -1.343  10.078  18.624  0.00  0.00    +0.000 A 
ATOM      9  C   UNL     1      -2.184  11.089  18.179  0.00  0.00    +0.000 A 
ATOM     10  C   UNL     1      -1.738  12.402  18.172  0.00  0.00    +0.000 A 
ATOM     11  C   UNL     1      -0.461  12.727  18.645  0.00  0.00    +0.000 A 
ATOM     12  C   UNL     1      -0.058  14.073  18.634  0.00  0.00    +0.000 A 
ATOM     13  C   UNL     1       1.198  14.449  19.097  0.00  0.00    +0.000 A 
ATOM     14  C   UNL     1       2.068  13.479  19.580  0.00  0.00    +0.000 A 
ATOM     15  C   UNL     1       1.684  12.132  19.589  0.00  0.00    +0.000 A 
ATOM     16  C   UNL     1       0.414  11.709  19.118  0.00  0.00    +0.000 A 
ENDBRANCH   4   7
BRANCH   1  19
ATOM     17  C   UNL     1       1.989   4.906  20.153  0.00  0.00    +0.000 C 
ATOM     18  C   UNL     1       2.672   6.026  19.385  0.00  0.00    +0.000 C 
ATOM     19  N   UNL     1       2.592   7.298  19.666  0.00  0.00    +0.000 NA
BRANCH  18  20
ATOM     20  C   UNL     1       3.508   5.625  18.198  0.00  0.00    +0.000 A 
ATOM     21  C   UNL     1       3.611   4.291  17.786  0.00  0.00    +0.000 A 
ATOM     22  C   UNL     1       4.400   3.950  16.684  0.00  0.00    +0.000 A 
ATOM     23  C   UNL     1       5.097   4.932  15.976  0.00  0.00    +0.000 A 
ATOM     24  C   UNL     1       5.950   4.567  14.796  0.00  0.00    +0.000 C 
ATOM     25  C   UNL     1       4.994   6.265  16.385  0.00  0.00    +0.000 A 
ATOM     26  C   UNL     1       4.208   6.609  17.485  0.00  0.00    +0.000 A 
ENDBRANCH  18  20
ENDBRANCH   1  19
TORSDOF 3
ENDMDL
MODEL 4
REMARK VINA RESULT:      -7.9      1.998      3.131
REMARK  Name = 
REMARK  5 active torsions:
REMARK  status: ('A' for Active; 'I' for Inactive)
REMARK    1  A    between atoms: C_1  and  C_2
REMARK    2  A    between atoms: C_2  and  C_18
REMARK    3  A    between atoms: N_3  and  N_4
REMARK    4  A    between atoms: N_7  and  C_8
REMARK    5  A    between atoms: C_21  and  C_22
REMARK                            x       y       z     vdW  Elec       q    Type
REMARK                         _______ _______ _______ _____ _____    ______ ____
ROOT
ATOM      1  N   UNL     1       2.593   9.062  17.983  0.00  0.00    +0.000 N 
ATOM      2  C   UNL     1       1.751  10.138  18.169  0.00  0.00    +0.000 C 
ATOM      3  O   UNL     1       2.157  11.258  17.874  0.00  0.00    +0.000 OA
ATOM      4  N   UNL     1       0.527   9.798  18.700  0.00  0.00    +0.000 N 
ATOM      5  H   UNL     1       3.495   9.307  17.599  0.00  0.00    +0.000 HD
ATOM      6  H   UNL     1       0.515   8.842  19.026  0.00  0.00    +0.000 HD
ENDROOT
BRANCH   4   7
ATOM      7  C   UNL     1      -0.542  10.677  19.002  0.00  0.00    +0.000 A 
ATOM      8  C   UNL     1      -0.457  11.505  20.131  0.00  0.00    +0.000 A 
ATOM      9  C   UNL     1      -1.514  12.324  20.509  0.00  0.00    +0.000 A 
ATOM     10  C   UNL     1      -2.677  12.338  19.754  0.00  0.00    +0.000 A 
ATOM     11  C   UNL     1      -2.786  11.565  18.592  0.00  0.00    +0.000 A 
ATOM     12  C   UNL     1      -3.977  11.624  17.850  0.00  0.00    +0.000 A 
ATOM     13  C   UNL     1      -4.135  10.879  16.687  0.00  0.00    +0.000 A 
ATOM     14  C   UNL     1      -3.097  10.066  16.250  0.00  0.00    +0.000 A 
ATOM     15  C   UNL     1      -1.906   9.989  16.983  0.00  0.00    +0.000 A 
ATOM     16  C   UNL     1      -1.711  10.728  18.179  0.00  0.00    +0.000 A 
ENDBRANCH   4   7
BRANCH   1  19
ATOM     17  C   UNL     1       4.428   6.964  17.347  0.00  0.00    +0.000 C 
ATOM     18  C   UNL     1       3.042   6.807  17.951  0.00  0.00    +0.000 C 
ATOM     19  N   UNL     1       2.226   7.783  18.242  0.00  0.00    +0.000 NA
BRANCH  18  20
ATOM     20  C   UNL     1       2.579   5.402  18.235  0.00  0.00    +0.000 A 
ATOM     21  C   UNL     1       2.871   4.341  17.370  0.00  0.00    +0.000 A 
ATOM     22  C   UNL     1       2.423   3.049  17.658  0.00  0.00    +0.000 A 
ATOM     23  C   UNL     1       1.678   2.795  18.812  0.00  0.00    +0.000 A 
ATOM     24  C   UNL     1       1.189   1.409  19.121  0.00  0.00    +0.000 C 
ATOM     25  C   UNL     1       1.387   3.853  19.679  0.00  0.00    +0.000 A 
ATOM     26  C   UNL     1       1.832   5.145  19.393  0.00  0.00    +0.000 A 
ENDBRANCH  18  20
ENDBRANCH   1  19
TORSDOF 3
ENDMDL
MODEL 5
REMARK VINA RESULT:      -7.8      1.553      7.900
REMARK  Name = 
REMARK  5 active torsions:
REMARK  status: ('A' for Active; 'I' for Inactive)
REMARK    1  A    between atoms: C_1  and  C_2
REMARK    2  A    between atoms: C_2  and  C_18
REMARK    3  A    between atoms: N_3  and  N_4
REMARK    4  A    between atoms: N_7  and  C_8
REMARK    5  A    between atoms: C_21  and  C_22
REMARK                            x       y       z     vdW  Elec       q    Type
REMARK                         _______ _______ _______ _____ _____    ______ ____
ROOT
ATOM      1  N   UNL     1       1.589   7.074  21.218  0.00  0.00    +0.000 N 
ATOM      2  C   UNL     1       2.052   5.965  20.543  0.00  0.00    +0.000 C 
ATOM      3  O   UNL     1       2.164   4.908  21.158  0.00  0.00    +0.000 OA
ATOM      4  N   UNL     1       2.356   6.207  19.222  0.00  0.00    +0.000 N 
ATOM      5  H   UNL     1       1.370   6.902  22.189  0.00  0.00    +0.000 HD
ATOM      6  H   UNL     1       2.354   7.196  19.015  0.00  0.00    +0.000 HD
ENDROOT
BRANCH   4   7
ATOM      7  C   UNL     1       2.850   5.273  18.279  0.00  0.00    +0.000 A 
ATOM      8  C   UNL     1       2.109   4.115  18.001  0.00  0.00    +0.000 A 
ATOM      9  C   UNL     1       2.593   3.135  17.143  0.00  0.00    +0.000 A 
ATOM     10  C   UNL     1       3.828   3.303  16.534  0.00  0.00    +0.000 A 
ATOM     11  C   UNL     1       4.578   4.466  16.745  0.00  0.00    +0.000 A 
ATOM     12  C   UNL     1       5.816   4.599  16.094  0.00  0.00    +0.000 A 
ATOM     13  C   UNL     1       6.598   5.735  16.266  0.00  0.00    +0.000 A 
ATOM     14  C   UNL     1       6.147   6.757  17.091  0.00  0.00    +0.000 A 
ATOM     15  C   UNL     1       4.918   6.637  17.754  0.00  0.00    +0.000 A 
ATOM     16  C   UNL     1       4.097   5.488  17.610  0.00  0.00    +0.000 A 
ENDBRANCH   4   7
BRANCH   1  19
ATOM     17  C   UNL     1      -0.406   8.819  22.288  0.00  0.00    +0.000 C 
ATOM     18  C   UNL     1       0.482   9.085  21.084  0.00  0.00    +0.000 C 
ATOM     19  N   UNL     1       1.395   8.275  20.620  0.00  0.00    +0.000 NA
BRANCH  18  20
ATOM     20  C   UNL     1       0.287  10.398  20.371  0.00  0.00    +0.000 A 
ATOM     21  C   UNL     1      -0.630  10.537  19.323  0.00  0.00    +0.000 A 
ATOM     22  C   UNL     1      -0.784  11.768  18.678  0.00  0.00    +0.000 A 
ATOM     23  C   UNL     1      -0.029  12.876  19.067  0.00  0.00    +0.000 A 
ATOM     24  C   UNL     1      -0.188  14.197  18.371  0.00  0.00    +0.000 C 
ATOM     25  C   UNL     1       0.887  12.739  20.115  0.00  0.00    +0.000 A 
ATOM     26  C   UNL     1       1.044  11.511  20.761  0.00  0.00    +0.000 A 
ENDBRANCH  18  20
ENDBRANCH   1  19
TORSDOF 3
ENDMDL
MODEL 6
REMARK VINA RESULT:      -7.8      1.529      7.820
REMARK  Name = 
REMARK  5 active torsions:
REMARK  status: ('A' for Active; 'I' for Inactive)
REMARK    1  A    between atoms: C_1  and  C_2
REMARK    2  A    between atoms: C_2  and  C_18
REMARK    3  A    between atoms: N_3  and  N_4
REMARK    4  A    between atoms: N_7  and  C_8
REMARK    5  A    between atoms: C_21  and  C_22
REMARK                            x       y       z     vdW  Elec       q    Type
REMARK                         _______ _______ _______ _____ _____    ______ ____
ROOT
ATOM      1  N   UNL     1       1.590   7.039  21.305  0.00  0.00    +0.000 N 
ATOM      2  C   UNL     1       2.001   5.906  20.636  0.00  0.00    +0.000 C 
ATOM      3  O   UNL     1       2.098   4.856  21.266  0.00  0.00    +0.000 OA
ATOM      4  N   UNL     1       2.278   6.118  19.305  0.00  0.00    +0.000 N 
ATOM      5  H   UNL     1       1.392   6.890  22.285  0.00  0.00    +0.000 HD
ATOM      6  H   UNL     1       2.300   7.103  19.082  0.00  0.00    +0.000 HD
ENDROOT
BRANCH   4   7
ATOM      7  C   UNL     1       2.718   5.155  18.364  0.00  0.00    +0.000 A 
ATOM      8  C   UNL     1       1.993   3.965  18.204  0.00  0.00    +0.000 A 
ATOM      9  C   UNL     1       2.432   2.960  17.351  0.00  0.00    +0.000 A 
ATOM     10  C   UNL     1       3.604   3.132  16.630  0.00  0.00    +0.000 A 
ATOM     11  C   UNL     1       4.333   4.324  16.723  0.00  0.00    +0.000 A 
ATOM     12  C   UNL     1       5.506   4.461  15.962  0.00  0.00    +0.000 A 
ATOM     13  C   UNL     1       6.264   5.625  16.015  0.00  0.00    +0.000 A 
ATOM     14  C   UNL     1       5.853   6.672  16.830  0.00  0.00    +0.000 A 
ATOM     15  C   UNL     1       4.690   6.549  17.602  0.00  0.00    +0.000 A 
ATOM     16  C   UNL     1       3.896   5.372  17.581  0.00  0.00    +0.000 A 
ENDBRANCH   4   7
BRANCH   1  19
ATOM     17  C   UNL     1      -0.397   8.818  22.335  0.00  0.00    +0.000 C 
ATOM     18  C   UNL     1       0.508   9.061  21.138  0.00  0.00    +0.000 C 
ATOM     19  N   UNL     1       1.416   8.237  20.693  0.00  0.00    +0.000 NA
BRANCH  18  20
ATOM     20  C   UNL     1       0.336  10.369  20.410  0.00  0.00    +0.000 A 
ATOM     21  C   UNL     1       0.987  11.536  20.827  0.00  0.00    +0.000 A 
ATOM     22  C   UNL     1       0.802  12.735  20.133  0.00  0.00    +0.000 A 
ATOM     23  C   UNL     1      -0.032  12.790  19.014  0.00  0.00    +0.000 A 
ATOM     24  C   UNL     1      -0.237  14.078  18.272  0.00  0.00    +0.000 C 
ATOM     25  C   UNL     1      -0.681  11.624  18.594  0.00  0.00    +0.000 A 
ATOM     26  C   UNL     1      -0.500  10.425  19.286  0.00  0.00    +0.000 A 
ENDBRANCH  18  20
ENDBRANCH   1  19
TORSDOF 3
ENDMDL
MODEL 7
REMARK VINA RESULT:      -7.7      1.971      3.404
REMARK  Name = 
REMARK  5 active torsions:
REMARK  status: ('A' for Active; 'I' for Inactive)
REMARK    1  A    between atoms: C_1  and  C_2
REMARK    2  A    between atoms: C_2  and  C_18
REMARK    3  A    between atoms: N_3  and  N_4
REMARK    4  A    between atoms: N_7  and  C_8
REMARK    5  A    between atoms: C_21  and  C_22
REMARK                            x       y       z     vdW  Elec       q    Type
REMARK                         _______ _______ _______ _____ _____    ______ ____
ROOT
ATOM      1  N   UNL     1       2.634   8.765  17.981  0.00  0.00    +0.000 N 
ATOM      2  C   UNL     1       1.773   9.841  18.007  0.00  0.00    +0.000 C 
ATOM      3  O   UNL     1       2.016  10.805  17.285  0.00  0.00    +0.000 OA
ATOM      4  N   UNL     1       0.727   9.693  18.890  0.00  0.00    +0.000 N 
ATOM      5  H   UNL     1       3.407   8.873  17.339  0.00  0.00    +0.000 HD
ATOM      6  H   UNL     1       0.861   8.896  19.496  0.00  0.00    +0.000 HD
ENDROOT
BRANCH   4   7
ATOM      7  C   UNL     1      -0.313  10.622  19.139  0.00  0.00    +0.000 A 
ATOM      8  C   UNL     1      -0.196  11.520  20.209  0.00  0.00    +0.000 A 
ATOM      9  C   UNL     1      -1.226  12.393  20.537  0.00  0.00    +0.000 A 
ATOM     10  C   UNL     1      -2.393  12.392  19.790  0.00  0.00    +0.000 A 
ATOM     11  C   UNL     1      -2.534  11.545  18.683  0.00  0.00    +0.000 A 
ATOM     12  C   UNL     1      -3.729  11.590  17.946  0.00  0.00    +0.000 A 
ATOM     13  C   UNL     1      -3.918  10.774  16.836  0.00  0.00    +0.000 A 
ATOM     14  C   UNL     1      -2.907   9.903  16.448  0.00  0.00    +0.000 A 
ATOM     15  C   UNL     1      -1.713   9.840  17.178  0.00  0.00    +0.000 A 
ATOM     16  C   UNL     1      -1.487  10.651  18.321  0.00  0.00    +0.000 A 
ENDBRANCH   4   7
BRANCH   1  19
ATOM     17  C   UNL     1       4.362   6.531  17.541  0.00  0.00    +0.000 C 
ATOM     18  C   UNL     1       3.202   6.604  18.521  0.00  0.00    +0.000 C 
ATOM     19  N   UNL     1       2.433   7.641  18.711  0.00  0.00    +0.000 NA
BRANCH  18  20
ATOM     20  C   UNL     1       2.925   5.370  19.340  0.00  0.00    +0.000 A 
ATOM     21  C   UNL     1       3.674   4.198  19.182  0.00  0.00    +0.000 A 
ATOM     22  C   UNL     1       3.388   3.067  19.953  0.00  0.00    +0.000 A 
ATOM     23  C   UNL     1       2.354   3.087  20.891  0.00  0.00    +0.000 A 
ATOM     24  C   UNL     1       2.041   1.872  21.715  0.00  0.00    +0.000 C 
ATOM     25  C   UNL     1       1.606   4.258  21.051  0.00  0.00    +0.000 A 
ATOM     26  C   UNL     1       1.888   5.388  20.282  0.00  0.00    +0.000 A 
ENDBRANCH  18  20
ENDBRANCH   1  19
TORSDOF 3
ENDMDL
MODEL 8
REMARK VINA RESULT:      -7.5      4.703      6.940
REMARK  Name = 
REMARK  5 active torsions:
REMARK  status: ('A' for Active; 'I' for Inactive)
REMARK    1  A    between atoms: C_1  and  C_2
REMARK    2  A    between atoms: C_2  and  C_18
REMARK    3  A    between atoms: N_3  and  N_4
REMARK    4  A    between atoms: N_7  and  C_8
REMARK    5  A    between atoms: C_21  and  C_22
REMARK                            x       y       z     vdW  Elec       q    Type
REMARK                         _______ _______ _______ _____ _____    ______ ____
ROOT
ATOM      1  N   UNL     1       7.729   4.993  17.884  0.00  0.00    +0.000 N 
ATOM      2  C   UNL     1       6.858   4.856  18.943  0.00  0.00    +0.000 C 
ATOM      3  O   UNL     1       7.157   5.370  20.018  0.00  0.00    +0.000 OA
ATOM      4  N   UNL     1       5.737   4.115  18.647  0.00  0.00    +0.000 N 
ATOM      5  H   UNL     1       8.557   5.532  18.098  0.00  0.00    +0.000 HD
ATOM      6  H   UNL     1       5.824   3.650  17.754  0.00  0.00    +0.000 HD
ENDROOT
BRANCH   4   7
ATOM      7  C   UNL     1       4.669   3.802  19.523  0.00  0.00    +0.000 A 
ATOM      8  C   UNL     1       4.622   2.539  20.131  0.00  0.00    +0.000 A 
ATOM      9  C   UNL     1       3.552   2.163  20.934  0.00  0.00    +0.000 A 
ATOM     10  C   UNL     1       2.510   3.051  21.154  0.00  0.00    +0.000 A 
ATOM     11  C   UNL     1       2.540   4.340  20.606  0.00  0.00    +0.000 A 
ATOM     12  C   UNL     1       1.471   5.211  20.868  0.00  0.00    +0.000 A 
ATOM     13  C   UNL     1       1.454   6.502  20.352  0.00  0.00    +0.000 A 
ATOM     14  C   UNL     1       2.513   6.938  19.566  0.00  0.00    +0.000 A 
ATOM     15  C   UNL     1       3.584   6.078  19.288  0.00  0.00    +0.000 A 
ATOM     16  C   UNL     1       3.632   4.751  19.790  0.00  0.00    +0.000 A 
ENDBRANCH   4   7
BRANCH   1  19
ATOM     17  C   UNL     1       6.022   6.485  16.141  0.00  0.00    +0.000 C 
ATOM     18  C   UNL     1       6.689   5.153  15.839  0.00  0.00    +0.000 C 
ATOM     19  N   UNL     1       7.474   4.496  16.648  0.00  0.00    +0.000 NA
BRANCH  18  20
ATOM     20  C   UNL     1       6.417   4.548  14.486  0.00  0.00    +0.000 A 
ATOM     21  C   UNL     1       7.359   4.602  13.452  0.00  0.00    +0.000 A 
ATOM     22  C   UNL     1       7.074   4.036  12.206  0.00  0.00    +0.000 A 
ATOM     23  C   UNL     1       5.849   3.407  11.973  0.00  0.00    +0.000 A 
ATOM     24  C   UNL     1       5.538   2.804  10.633  0.00  0.00    +0.000 C 
ATOM     25  C   UNL     1       4.908   3.350  13.005  0.00  0.00    +0.000 A 
ATOM     26  C   UNL     1       5.189   3.915  14.250  0.00  0.00    +0.000 A 
ENDBRANCH  18  20
ENDBRANCH   1  19
TORSDOF 3
ENDMDL
MODEL 9
REMARK VINA RESULT:      -7.4      2.328      8.269
REMARK  Name = 
REMARK  5 active torsions:
REMARK  status: ('A' for Active; 'I' for Inactive)
REMARK    1  A    between atoms: C_1  and  C_2
REMARK    2  A    between atoms: C_2  and  C_18
REMARK    3  A    between atoms: N_3  and  N_4
REMARK    4  A    between atoms: N_7  and  C_8
REMARK    5  A    between atoms: C_21  and  C_22
REMARK                            x       y       z     vdW  Elec       q    Type
REMARK                         _______ _______ _______ _____ _____    ______ ____
ROOT
ATOM      1  N   UNL     1       2.850   8.444  17.788  0.00  0.00    +0.000 N 
ATOM      2  C   UNL     1       3.294   7.144  17.890  0.00  0.00    +0.000 C 
ATOM      3  O   UNL     1       4.505   6.936  17.883  0.00  0.00    +0.000 OA
ATOM      4  N   UNL     1       2.281   6.216  17.967  0.00  0.00    +0.000 N 
ATOM      5  H   UNL     1       3.590   9.129  17.724  0.00  0.00    +0.000 HD
ATOM      6  H   UNL     1       1.382   6.629  17.762  0.00  0.00    +0.000 HD
ENDROOT
BRANCH   4   7
ATOM      7  C   UNL     1       2.422   4.811  18.078  0.00  0.00    +0.000 A 
ATOM      8  C   UNL     1       2.675   4.049  16.928  0.00  0.00    +0.000 A 
ATOM      9  C   UNL     1       2.742   2.662  16.979  0.00  0.00    +0.000 A 
ATOM     10  C   UNL     1       2.566   2.009  18.189  0.00  0.00    +0.000 A 
ATOM     11  C   UNL     1       2.359   2.732  19.370  0.00  0.00    +0.000 A 
ATOM     12  C   UNL     1       2.202   2.029  20.575  0.00  0.00    +0.000 A 
ATOM     13  C   UNL     1       1.999   2.699  21.776  0.00  0.00    +0.000 A 
ATOM     14  C   UNL     1       1.953   4.088  21.785  0.00  0.00    +0.000 A 
ATOM     15  C   UNL     1       2.099   4.804  20.590  0.00  0.00    +0.000 A 
ATOM     16  C   UNL     1       2.299   4.154  19.343  0.00  0.00    +0.000 A 
ENDBRANCH   4   7
BRANCH   1  19
ATOM     17  C   UNL     1       2.158  11.176  18.270  0.00  0.00    +0.000 C 
ATOM     18  C   UNL     1       1.195  10.020  18.053  0.00  0.00    +0.000 C 
ATOM     19  N   UNL     1       1.536   8.781  17.824  0.00  0.00    +0.000 NA
BRANCH  18  20
ATOM     20  C   UNL     1      -0.276  10.340  18.107  0.00  0.00    +0.000 A 
ATOM     21  C   UNL     1      -1.216   9.612  17.368  0.00  0.00    +0.000 A 
ATOM     22  C   UNL     1      -2.573   9.937  17.435  0.00  0.00    +0.000 A 
ATOM     23  C   UNL     1      -3.015  10.991  18.239  0.00  0.00    +0.000 A 
ATOM     24  C   UNL     1      -4.471  11.346  18.308  0.00  0.00    +0.000 C 
ATOM     25  C   UNL     1      -2.077  11.718  18.980  0.00  0.00    +0.000 A 
ATOM     26  C   UNL     1      -0.721  11.396  18.914  0.00  0.00    +0.000 A 
ENDBRANCH  18  20
ENDBRANCH   1  19
TORSDOF 3
ENDMDL
