MODEL 1
REMARK VINA RESULT:      -7.9      0.000      0.000
REMARK  Name = 
REMARK  4 active torsions:
REMARK  status: ('A' for Active; 'I' for Inactive)
REMARK    1  A    between atoms: C_1  and  O_2
REMARK    2  A    between atoms: O_2  and  C_3
REMARK    3  A    between atoms: C_9  and  C_10
REMARK    4  A    between atoms: C_17  and  N_18
REMARK                            x       y       z     vdW  Elec       q    Type
REMARK                         _______ _______ _______ _____ _____    ______ ____
ROOT
ATOM      1  C   UNL     1       6.048   5.215  16.431  0.00  0.00    +0.000 A 
ATOM      2  C   UNL     1       5.512   6.504  16.448  0.00  0.00    +0.000 A 
ATOM      3  C   UNL     1       4.299   6.760  17.090  0.00  0.00    +0.000 A 
ATOM      4  C   UNL     1       3.606   5.727  17.726  0.00  0.00    +0.000 A 
ATOM      5  C   UNL     1       4.136   4.379  17.699  0.00  0.00    +0.000 A 
ATOM      6  C   UNL     1       5.372   4.166  17.067  0.00  0.00    +0.000 A 
ATOM      7  C   UNL     1       3.363   3.172  18.375  0.00  0.00    +0.000 C 
ATOM      8  C   UNL     1       3.412   1.899  17.499  0.00  0.00    +0.000 C 
ATOM      9  C   UNL     1       3.942   2.834  19.822  0.00  0.00    +0.000 C 
ATOM     10  C   UNL     1       3.018   2.756  21.062  0.00  0.00    +0.000 C 
ATOM     11  C   UNL     1       1.989   3.549  21.457  0.00  0.00    +0.000 C 
ATOM     12  C   UNL     1       1.382   4.776  20.738  0.00  0.00    +0.000 C 
ATOM     13  C   UNL     1       2.088   4.909  19.411  0.00  0.00    +0.000 C 
ATOM     14  C   UNL     1       2.307   6.098  18.506  0.00  0.00    +0.000 C 
ATOM     15  C   UNL     1       1.908   3.687  18.468  0.00  0.00    +0.000 C 
ENDROOT
BRANCH  15  16
ATOM     16  N   UNL     1       0.819   2.746  18.774  0.00  0.00    +0.000 NA
ATOM     17  H   UNL     1       0.176   3.145  19.455  0.00  0.00    +0.000 HD
ATOM     18  H   UNL     1       1.195   1.908  19.213  0.00  0.00    +0.000 HD
ENDBRANCH  15  16
BRANCH   1  20
ATOM     19  C   UNL     1       7.233   4.791  14.429  0.00  0.00    +0.000 C 
ATOM     20  O   UNL     1       7.237   4.868  15.851  0.00  0.00    +0.000 OA
ENDBRANCH   1  20
TORSDOF 2
ENDMDL
MODEL 2
REMARK VINA RESULT:      -7.6      0.952      1.047
REMARK  Name = 
REMARK  4 active torsions:
REMARK  status: ('A' for Active; 'I' for Inactive)
REMARK    1  A    between atoms: C_1  and  O_2
REMARK    2  A    between atoms: O_2  and  C_3
REMARK    3  A    between atoms: C_9  and  C_10
REMARK    4  A    between atoms: C_17  and  N_18
REMARK                            x       y       z     vdW  Elec       q    Type
REMARK                         _______ _______ _______ _____ _____    ______ ____
ROOT
ATOM      1  C   UNL     1       6.071   5.348  17.157  0.00  0.00    +0.000 A 
ATOM      2  C   UNL     1       5.339   6.521  16.972  0.00  0.00    +0.000 A 
ATOM      3  C   UNL     1       3.988   6.578  17.319  0.00  0.00    +0.000 A 
ATOM      4  C   UNL     1       3.352   5.458  17.857  0.00  0.00    +0.000 A 
ATOM      5  C   UNL     1       4.090   4.223  18.035  0.00  0.00    +0.000 A 
ATOM      6  C   UNL     1       5.453   4.214  17.700  0.00  0.00    +0.000 A 
ATOM      7  C   UNL     1       3.396   2.919  18.608  0.00  0.00    +0.000 C 
ATOM      8  C   UNL     1       3.849   1.650  17.850  0.00  0.00    +0.000 C 
ATOM      9  C   UNL     1       3.684   2.729  20.165  0.00  0.00    +0.000 C 
ATOM     10  C   UNL     1       2.532   2.525  21.179  0.00  0.00    +0.000 C 
ATOM     11  C   UNL     1       1.324   3.135  21.290  0.00  0.00    +0.000 C 
ATOM     12  C   UNL     1       0.699   4.216  20.376  0.00  0.00    +0.000 C 
ATOM     13  C   UNL     1       1.652   4.433  19.227  0.00  0.00    +0.000 C 
ATOM     14  C   UNL     1       1.867   5.616  18.313  0.00  0.00    +0.000 C 
ATOM     15  C   UNL     1       1.892   3.172  18.351  0.00  0.00    +0.000 C 
ENDROOT
BRANCH  15  16
ATOM     16  N   UNL     1       0.934   2.063  18.477  0.00  0.00    +0.000 NA
ATOM     17  H   UNL     1       0.190   2.299  19.131  0.00  0.00    +0.000 HD
ATOM     18  H   UNL     1       1.395   1.247  18.873  0.00  0.00    +0.000 HD
ENDBRANCH  15  16
BRANCH   1  20
ATOM     19  C   UNL     1       8.163   4.474  17.829  0.00  0.00    +0.000 C 
ATOM     20  O   UNL     1       7.400   5.198  16.870  0.00  0.00    +0.000 OA
ENDBRANCH   1  20
TORSDOF 2
ENDMDL
MODEL 3
REMARK VINA RESULT:      -7.1      2.797      5.541
REMARK  Name = 
REMARK  4 active torsions:
REMARK  status: ('A' for Active; 'I' for Inactive)
REMARK    1  A    between atoms: C_1  and  O_2
REMARK    2  A    between atoms: O_2  and  C_3
REMARK    3  A    between atoms: C_9  and  C_10
REMARK    4  A    between atoms: C_17  and  N_18
REMARK                            x       y       z     vdW  Elec       q    Type
REMARK                         _______ _______ _______ _____ _____    ______ ____
ROOT
ATOM      1  C   UNL     1       1.642   3.196  19.435  0.00  0.00    +0.000 A 
ATOM      2  C   UNL     1       1.773   2.121  18.555  0.00  0.00    +0.000 A 
ATOM      3  C   UNL     1       2.704   2.164  17.515  0.00  0.00    +0.000 A 
ATOM      4  C   UNL     1       3.517   3.286  17.344  0.00  0.00    +0.000 A 
ATOM      5  C   UNL     1       3.379   4.421  18.234  0.00  0.00    +0.000 A 
ATOM      6  C   UNL     1       2.452   4.329  19.284  0.00  0.00    +0.000 A 
ATOM      7  C   UNL     1       4.256   5.728  18.051  0.00  0.00    +0.000 C 
ATOM      8  C   UNL     1       3.422   7.012  18.268  0.00  0.00    +0.000 C 
ATOM      9  C   UNL     1       5.508   5.745  19.038  0.00  0.00    +0.000 C 
ATOM     10  C   UNL     1       6.947   5.965  18.511  0.00  0.00    +0.000 C 
ATOM     11  C   UNL     1       7.582   5.468  17.418  0.00  0.00    +0.000 C 
ATOM     12  C   UNL     1       7.022   4.542  16.313  0.00  0.00    +0.000 C 
ATOM     13  C   UNL     1       5.555   4.340  16.602  0.00  0.00    +0.000 C 
ATOM     14  C   UNL     1       4.602   3.231  16.223  0.00  0.00    +0.000 C 
ATOM     15  C   UNL     1       4.715   5.648  16.576  0.00  0.00    +0.000 C 
ENDROOT
BRANCH  15  16
ATOM     16  N   UNL     1       5.311   6.827  15.932  0.00  0.00    +0.000 NA
ATOM     17  H   UNL     1       6.188   7.081  16.381  0.00  0.00    +0.000 HD
ATOM     18  H   UNL     1       4.702   7.634  16.050  0.00  0.00    +0.000 HD
ENDBRANCH  15  16
BRANCH   1  20
ATOM     19  C   UNL     1       1.308   2.812  21.745  0.00  0.00    +0.000 C 
ATOM     20  O   UNL     1       0.778   3.241  20.495  0.00  0.00    +0.000 OA
ENDBRANCH   1  20
TORSDOF 2
ENDMDL
MODEL 4
REMARK VINA RESULT:      -7.1      1.617      2.692
REMARK  Name = 
REMARK  4 active torsions:
REMARK  status: ('A' for Active; 'I' for Inactive)
REMARK    1  A    between atoms: C_1  and  O_2
REMARK    2  A    between atoms: O_2  and  C_3
REMARK    3  A    between atoms: C_9  and  C_10
REMARK    4  A    between atoms: C_17  and  N_18
REMARK                            x       y       z     vdW  Elec       q    Type
REMARK                         _______ _______ _______ _____ _____    ______ ____
ROOT
ATOM      1  C   UNL     1       6.122   5.402  15.969  0.00  0.00    +0.000 A 
ATOM      2  C   UNL     1       7.054   4.760  16.785  0.00  0.00    +0.000 A 
ATOM      3  C   UNL     1       6.699   4.323  18.062  0.00  0.00    +0.000 A 
ATOM      4  C   UNL     1       5.402   4.524  18.541  0.00  0.00    +0.000 A 
ATOM      5  C   UNL     1       4.427   5.210  17.717  0.00  0.00    +0.000 A 
ATOM      6  C   UNL     1       4.814   5.610  16.428  0.00  0.00    +0.000 A 
ATOM      7  C   UNL     1       2.957   5.492  18.236  0.00  0.00    +0.000 C 
ATOM      8  C   UNL     1       2.473   6.907  17.844  0.00  0.00    +0.000 C 
ATOM      9  C   UNL     1       1.918   4.413  17.688  0.00  0.00    +0.000 C 
ATOM     10  C   UNL     1       0.987   3.631  18.646  0.00  0.00    +0.000 C 
ATOM     11  C   UNL     1       1.230   3.055  19.852  0.00  0.00    +0.000 C 
ATOM     12  C   UNL     1       2.539   3.051  20.675  0.00  0.00    +0.000 C 
ATOM     13  C   UNL     1       3.533   3.912  19.936  0.00  0.00    +0.000 C 
ATOM     14  C   UNL     1       5.043   3.927  19.937  0.00  0.00    +0.000 C 
ATOM     15  C   UNL     1       3.095   5.395  19.773  0.00  0.00    +0.000 C 
ENDROOT
BRANCH  15  16
ATOM     16  N   UNL     1       2.009   5.882  20.636  0.00  0.00    +0.000 NA
ATOM     17  H   UNL     1       2.355   6.567  21.303  0.00  0.00    +0.000 HD
ATOM     18  H   UNL     1       1.640   5.117  21.198  0.00  0.00    +0.000 HD
ENDBRANCH  15  16
BRANCH   1  20
ATOM     19  C   UNL     1       6.985   4.910  13.823  0.00  0.00    +0.000 C 
ATOM     20  O   UNL     1       6.365   5.846  14.699  0.00  0.00    +0.000 OA
ENDBRANCH   1  20
TORSDOF 2
ENDMDL
MODEL 5
REMARK VINA RESULT:      -7.0      1.885      3.246
REMARK  Name = 
REMARK  4 active torsions:
REMARK  status: ('A' for Active; 'I' for Inactive)
REMARK    1  A    between atoms: C_1  and  O_2
REMARK    2  A    between atoms: O_2  and  C_3
REMARK    3  A    between atoms: C_9  and  C_10
REMARK    4  A    between atoms: C_17  and  N_18
REMARK                            x       y       z     vdW  Elec       q    Type
REMARK                         _______ _______ _______ _____ _____    ______ ____
ROOT
ATOM      1  C   UNL     1       6.484   6.574  17.574  0.00  0.00    +0.000 A 
ATOM      2  C   UNL     1       7.296   5.510  17.969  0.00  0.00    +0.000 A 
ATOM      3  C   UNL     1       6.758   4.423  18.660  0.00  0.00    +0.000 A 
ATOM      4  C   UNL     1       5.396   4.388  18.967  0.00  0.00    +0.000 A 
ATOM      5  C   UNL     1       4.541   5.495  18.587  0.00  0.00    +0.000 A 
ATOM      6  C   UNL     1       5.114   6.556  17.868  0.00  0.00    +0.000 A 
ATOM      7  C   UNL     1       2.999   5.512  18.948  0.00  0.00    +0.000 C 
ATOM      8  C   UNL     1       2.536   6.911  19.416  0.00  0.00    +0.000 C 
ATOM      9  C   UNL     1       2.096   5.046  17.719  0.00  0.00    +0.000 C 
ATOM     10  C   UNL     1       1.052   3.913  17.868  0.00  0.00    +0.000 C 
ATOM     11  C   UNL     1       1.120   2.717  18.508  0.00  0.00    +0.000 C 
ATOM     12  C   UNL     1       2.281   2.134  19.346  0.00  0.00    +0.000 C 
ATOM     13  C   UNL     1       3.351   3.196  19.425  0.00  0.00    +0.000 C 
ATOM     14  C   UNL     1       4.840   3.103  19.656  0.00  0.00    +0.000 C 
ATOM     15  C   UNL     1       2.895   4.509  20.120  0.00  0.00    +0.000 C 
ENDROOT
BRANCH  15  16
ATOM     16  N   UNL     1       1.669   4.458  20.932  0.00  0.00    +0.000 NA
ATOM     17  H   UNL     1       1.527   5.335  21.429  0.00  0.00    +0.000 HD
ATOM     18  H   UNL     1       1.759   3.748  21.655  0.00  0.00    +0.000 HD
ENDBRANCH  15  16
BRANCH   1  20
ATOM     19  C   UNL     1       7.785   8.549  17.574  0.00  0.00    +0.000 C 
ATOM     20  O   UNL     1       6.910   7.670  16.875  0.00  0.00    +0.000 OA
ENDBRANCH   1  20
TORSDOF 2
ENDMDL
MODEL 6
REMARK VINA RESULT:      -6.9      1.224      1.495
REMARK  Name = 
REMARK  4 active torsions:
REMARK  status: ('A' for Active; 'I' for Inactive)
REMARK    1  A    between atoms: C_1  and  O_2
REMARK    2  A    between atoms: O_2  and  C_3
REMARK    3  A    between atoms: C_9  and  C_10
REMARK    4  A    between atoms: C_17  and  N_18
REMARK                            x       y       z     vdW  Elec       q    Type
REMARK                         _______ _______ _______ _____ _____    ______ ____
ROOT
ATOM      1  C   UNL     1       4.836   6.597  17.042  0.00  0.00    +0.000 A 
ATOM      2  C   UNL     1       3.850   7.519  17.394  0.00  0.00    +0.000 A 
ATOM      3  C   UNL     1       2.723   7.116  18.112  0.00  0.00    +0.000 A 
ATOM      4  C   UNL     1       2.567   5.780  18.487  0.00  0.00    +0.000 A 
ATOM      5  C   UNL     1       3.569   4.803  18.110  0.00  0.00    +0.000 A 
ATOM      6  C   UNL     1       4.702   5.252  17.413  0.00  0.00    +0.000 A 
ATOM      7  C   UNL     1       3.413   3.271  18.483  0.00  0.00    +0.000 C 
ATOM      8  C   UNL     1       3.840   2.351  17.316  0.00  0.00    +0.000 C 
ATOM      9  C   UNL     1       4.253   2.889  19.784  0.00  0.00    +0.000 C 
ATOM     10  C   UNL     1       3.593   2.176  20.989  0.00  0.00    +0.000 C 
ATOM     11  C   UNL     1       2.395   2.376  21.597  0.00  0.00    +0.000 C 
ATOM     12  C   UNL     1       1.277   3.378  21.224  0.00  0.00    +0.000 C 
ATOM     13  C   UNL     1       1.706   4.071  19.954  0.00  0.00    +0.000 C 
ATOM     14  C   UNL     1       1.334   5.413  19.370  0.00  0.00    +0.000 C 
ATOM     15  C   UNL     1       1.896   3.118  18.741  0.00  0.00    +0.000 C 
ENDROOT
BRANCH  15  16
ATOM     16  N   UNL     1       1.302   1.776  18.830  0.00  0.00    +0.000 NA
ATOM     17  H   UNL     1       1.327   1.431  19.787  0.00  0.00    +0.000 HD
ATOM     18  H   UNL     1       1.854   1.113  18.289  0.00  0.00    +0.000 HD
ENDBRANCH  15  16
BRANCH   1  20
ATOM     19  C   UNL     1       7.176   6.303  16.866  0.00  0.00    +0.000 C 
ATOM     20  O   UNL     1       5.984   6.896  16.361  0.00  0.00    +0.000 OA
ENDBRANCH   1  20
TORSDOF 2
ENDMDL
MODEL 7
REMARK VINA RESULT:      -6.9      2.228      3.949
REMARK  Name = 
REMARK  4 active torsions:
REMARK  status: ('A' for Active; 'I' for Inactive)
REMARK    1  A    between atoms: C_1  and  O_2
REMARK    2  A    between atoms: O_2  and  C_3
REMARK    3  A    between atoms: C_9  and  C_10
REMARK    4  A    between atoms: C_17  and  N_18
REMARK                            x       y       z     vdW  Elec       q    Type
REMARK                         _______ _______ _______ _____ _____    ______ ____
ROOT
ATOM      1  C   UNL     1       2.970   7.967  17.618  0.00  0.00    +0.000 A 
ATOM      2  C   UNL     1       4.194   7.688  17.008  0.00  0.00    +0.000 A 
ATOM      3  C   UNL     1       4.802   6.443  17.171  0.00  0.00    +0.000 A 
ATOM      4  C   UNL     1       4.191   5.457  17.949  0.00  0.00    +0.000 A 
ATOM      5  C   UNL     1       2.932   5.735  18.609  0.00  0.00    +0.000 A 
ATOM      6  C   UNL     1       2.338   6.989  18.398  0.00  0.00    +0.000 A 
ATOM      7  C   UNL     1       2.224   4.657  19.529  0.00  0.00    +0.000 C 
ATOM      8  C   UNL     1       1.632   5.296  20.807  0.00  0.00    +0.000 C 
ATOM      9  C   UNL     1       1.070   3.879  18.752  0.00  0.00    +0.000 C 
ATOM     10  C   UNL     1       1.033   2.332  18.700  0.00  0.00    +0.000 C 
ATOM     11  C   UNL     1       2.025   1.423  18.514  0.00  0.00    +0.000 C 
ATOM     12  C   UNL     1       3.542   1.669  18.341  0.00  0.00    +0.000 C 
ATOM     13  C   UNL     1       3.776   3.150  18.512  0.00  0.00    +0.000 C 
ATOM     14  C   UNL     1       4.875   4.056  18.012  0.00  0.00    +0.000 C 
ATOM     15  C   UNL     1       3.377   3.700  19.910  0.00  0.00    +0.000 C 
ENDROOT
BRANCH  15  16
ATOM     16  N   UNL     1       3.188   2.726  20.996  0.00  0.00    +0.000 NA
ATOM     17  H   UNL     1       2.639   3.128  21.752  0.00  0.00    +0.000 HD
ATOM     18  H   UNL     1       4.087   2.487  21.410  0.00  0.00    +0.000 HD
ENDBRANCH  15  16
BRANCH   1  20
ATOM     19  C   UNL     1       1.375   9.440  18.556  0.00  0.00    +0.000 C 
ATOM     20  O   UNL     1       2.284   9.144  17.501  0.00  0.00    +0.000 OA
ENDBRANCH   1  20
TORSDOF 2
ENDMDL
MODEL 8
REMARK VINA RESULT:      -6.8      2.898      4.786
REMARK  Name = 
REMARK  4 active torsions:
REMARK  status: ('A' for Active; 'I' for Inactive)
REMARK    1  A    between atoms: C_1  and  O_2
REMARK    2  A    between atoms: O_2  and  C_3
REMARK    3  A    between atoms: C_9  and  C_10
REMARK    4  A    between atoms: C_17  and  N_18
REMARK                            x       y       z     vdW  Elec       q    Type
REMARK                         _______ _______ _______ _____ _____    ______ ____
ROOT
ATOM      1  C   UNL     1       1.535   8.281  19.850  0.00  0.00    +0.000 A 
ATOM      2  C   UNL     1       2.227   8.673  18.703  0.00  0.00    +0.000 A 
ATOM      3  C   UNL     1       2.968   7.747  17.967  0.00  0.00    +0.000 A 
ATOM      4  C   UNL     1       3.026   6.411  18.371  0.00  0.00    +0.000 A 
ATOM      5  C   UNL     1       2.334   5.990  19.573  0.00  0.00    +0.000 A 
ATOM      6  C   UNL     1       1.577   6.944  20.269  0.00  0.00    +0.000 A 
ATOM      7  C   UNL     1       2.405   4.492  20.086  0.00  0.00    +0.000 C 
ATOM      8  C   UNL     1       2.563   4.421  21.622  0.00  0.00    +0.000 C 
ATOM      9  C   UNL     1       1.119   3.655  19.653  0.00  0.00    +0.000 C 
ATOM     10  C   UNL     1       1.249   2.306  18.906  0.00  0.00    +0.000 C 
ATOM     11  C   UNL     1       2.066   1.925  17.890  0.00  0.00    +0.000 C 
ATOM     12  C   UNL     1       3.178   2.738  17.187  0.00  0.00    +0.000 C 
ATOM     13  C   UNL     1       3.285   4.060  17.905  0.00  0.00    +0.000 C 
ATOM     14  C   UNL     1       3.792   5.409  17.453  0.00  0.00    +0.000 C 
ATOM     15  C   UNL     1       3.679   3.940  19.404  0.00  0.00    +0.000 C 
ENDROOT
BRANCH  15  16
ATOM     16  N   UNL     1       4.255   2.665  19.857  0.00  0.00    +0.000 NA
ATOM     17  H   UNL     1       3.722   2.282  20.634  0.00  0.00    +0.000 HD
ATOM     18  H   UNL     1       5.194   2.816  20.219  0.00  0.00    +0.000 HD
ENDBRANCH  15  16
BRANCH   1  20
ATOM     19  C   UNL     1       1.058   9.098  22.017  0.00  0.00    +0.000 C 
ATOM     20  O   UNL     1       0.766   9.105  20.623  0.00  0.00    +0.000 OA
ENDBRANCH   1  20
TORSDOF 2
ENDMDL
MODEL 9
REMARK VINA RESULT:      -6.7      2.979      5.398
REMARK  Name = 
REMARK  4 active torsions:
REMARK  status: ('A' for Active; 'I' for Inactive)
REMARK    1  A    between atoms: C_1  and  O_2
REMARK    2  A    between atoms: O_2  and  C_3
REMARK    3  A    between atoms: C_9  and  C_10
REMARK    4  A    between atoms: C_17  and  N_18
REMARK                            x       y       z     vdW  Elec       q    Type
REMARK                         _______ _______ _______ _____ _____    ______ ____
ROOT
ATOM      1  C   UNL     1       2.516   4.785  20.772  0.00  0.00    +0.000 A 
ATOM      2  C   UNL     1       1.730   5.892  20.447  0.00  0.00    +0.000 A 
ATOM      3  C   UNL     1       2.111   6.757  19.421  0.00  0.00    +0.000 A 
ATOM      4  C   UNL     1       3.286   6.525  18.703  0.00  0.00    +0.000 A 
ATOM      5  C   UNL     1       4.127   5.394  19.041  0.00  0.00    +0.000 A 
ATOM      6  C   UNL     1       3.696   4.531  20.060  0.00  0.00    +0.000 A 
ATOM      7  C   UNL     1       5.486   5.116  18.276  0.00  0.00    +0.000 C 
ATOM      8  C   UNL     1       6.608   4.678  19.245  0.00  0.00    +0.000 C 
ATOM      9  C   UNL     1       5.313   4.009  17.141  0.00  0.00    +0.000 C 
ATOM     10  C   UNL     1       5.757   4.273  15.682  0.00  0.00    +0.000 C 
ATOM     11  C   UNL     1       5.616   5.369  14.892  0.00  0.00    +0.000 C 
ATOM     12  C   UNL     1       4.990   6.739  15.243  0.00  0.00    +0.000 C 
ATOM     13  C   UNL     1       4.627   6.702  16.707  0.00  0.00    +0.000 C 
ATOM     14  C   UNL     1       3.604   7.474  17.506  0.00  0.00    +0.000 C 
ATOM     15  C   UNL     1       5.837   6.490  17.659  0.00  0.00    +0.000 C 
ENDROOT
BRANCH  15  16
ATOM     16  N   UNL     1       7.182   6.722  17.111  0.00  0.00    +0.000 NA
ATOM     17  H   UNL     1       7.490   7.674  17.297  0.00  0.00    +0.000 HD
ATOM     18  H   UNL     1       7.166   6.635  16.097  0.00  0.00    +0.000 HD
ENDBRANCH  15  16
BRANCH   1  20
ATOM     19  C   UNL     1       1.450   2.746  21.320  0.00  0.00    +0.000 C 
ATOM     20  O   UNL     1       2.218   3.868  21.742  0.00  0.00    +0.000 OA
ENDBRANCH   1  20
TORSDOF 2
ENDMDL
