MODEL 1
REMARK VINA RESULT:      -7.1      0.000      0.000
REMARK  Name = 
REMARK  8 active torsions:
REMARK  status: ('A' for Active; 'I' for Inactive)
REMARK    1  A    between atoms: O_1  and  C_2
REMARK    2  A    between atoms: C_2  and  C_3
REMARK    3  A    between atoms: C_3  and  N_4
REMARK    4  A    between atoms: N_4  and  C_5
REMARK    5  A    between atoms: N_4  and  C_8
REMARK    6  A    between atoms: C_5  and  C_6
REMARK    7  A    between atoms: C_6  and  O_7
REMARK    8  A    between atoms: N_16  and  C_17
REMARK                            x       y       z     vdW  Elec       q    Type
REMARK                         _______ _______ _______ _____ _____    ______ ____
ROOT
ATOM      1  C   UNL     1       5.515   4.935  18.493  0.00  0.00    +0.000 A 
ATOM      2  C   UNL     1       5.296   3.556  18.567  0.00  0.00    +0.000 A 
ATOM      3  C   UNL     1       4.126   3.039  19.141  0.00  0.00    +0.000 A 
ATOM      4  C   UNL     1       3.120   3.856  19.640  0.00  0.00    +0.000 A 
ATOM      5  N   UNL     1       2.019   3.289  20.130  0.00  0.00    +0.000 NA
ATOM      6  C   UNL     1       1.068   4.116  20.573  0.00  0.00    +0.000 A 
ATOM      7  N   UNL     1       1.118   5.449  20.567  0.00  0.00    +0.000 NA
ATOM      8  C   UNL     1       2.231   6.020  20.074  0.00  0.00    +0.000 A 
ATOM      9  N   UNL     1       2.313   7.441  20.012  0.00  0.00    +0.000 N 
ATOM     10  C   UNL     1       3.309   5.245  19.590  0.00  0.00    +0.000 A 
ATOM     11  C   UNL     1       4.520   5.756  19.053  0.00  0.00    +0.000 A 
ATOM     12  H   UNL     1       2.579   7.705  19.068  0.00  0.00    +0.000 HD
ENDROOT
BRANCH   9  13
ATOM     13  C   UNL     1       1.413   8.389  20.563  0.00  0.00    +0.000 A 
ATOM     14  C   UNL     1       1.275   8.590  21.943  0.00  0.00    +0.000 A 
ATOM     15  C   UNL     1       0.399   9.550  22.458  0.00  0.00    +0.000 A 
ATOM     16  C   UNL     1      -0.326  10.364  21.595  0.00  0.00    +0.000 A 
ATOM     17  C   UNL     1      -0.155  10.221  20.221  0.00  0.00    +0.000 A 
ATOM     18 BR   UNL     1      -1.107  11.352  19.042  0.00  0.00    +0.000 Br
ATOM     19  C   UNL     1       0.714   9.254  19.705  0.00  0.00    +0.000 A 
ENDBRANCH   9  13
BRANCH   1  20
ATOM     20  N   UNL     1       6.653   5.438  17.822  0.00  0.00    +0.000 N 
BRANCH  20  21
ATOM     21  C   UNL     1       7.610   6.169  18.691  0.00  0.00    +0.000 C 
BRANCH  21  22
ATOM     22  C   UNL     1       8.062   7.540  18.178  0.00  0.00    +0.000 C 
BRANCH  22  23
ATOM     23  O   UNL     1       7.256   7.983  17.085  0.00  0.00    +0.000 OA
ATOM     24  H   UNL     1       7.802   8.592  16.557  0.00  0.00    +0.000 HD
ENDBRANCH  22  23
ENDBRANCH  21  22
ENDBRANCH  20  21
BRANCH  20  25
ATOM     25  C   UNL     1       7.223   4.503  16.818  0.00  0.00    +0.000 C 
BRANCH  25  26
ATOM     26  C   UNL     1       6.715   4.772  15.391  0.00  0.00    +0.000 C 
BRANCH  26  27
ATOM     27  O   UNL     1       6.147   6.069  15.238  0.00  0.00    +0.000 OA
ATOM     28  H   UNL     1       6.705   6.509  14.560  0.00  0.00    +0.000 HD
ENDBRANCH  26  27
ENDBRANCH  25  26
ENDBRANCH  20  25
ENDBRANCH   1  20
TORSDOF 8
ENDMDL
MODEL 2
REMARK VINA RESULT:      -7.1      1.082      1.158
REMARK  Name = 
REMARK  8 active torsions:
REMARK  status: ('A' for Active; 'I' for Inactive)
REMARK    1  A    between atoms: O_1  and  C_2
REMARK    2  A    between atoms: C_2  and  C_3
REMARK    3  A    between atoms: C_3  and  N_4
REMARK    4  A    between atoms: N_4  and  C_5
REMARK    5  A    between atoms: N_4  and  C_8
REMARK    6  A    between atoms: C_5  and  C_6
REMARK    7  A    between atoms: C_6  and  O_7
REMARK    8  A    between atoms: N_16  and  C_17
REMARK                            x       y       z     vdW  Elec       q    Type
REMARK                         _______ _______ _______ _____ _____    ______ ____
ROOT
ATOM      1  C   UNL     1       5.274   4.350  18.161  0.00  0.00    +0.000 A 
ATOM      2  C   UNL     1       4.982   2.999  18.368  0.00  0.00    +0.000 A 
ATOM      3  C   UNL     1       3.849   2.606  19.095  0.00  0.00    +0.000 A 
ATOM      4  C   UNL     1       2.951   3.524  19.623  0.00  0.00    +0.000 A 
ATOM      5  N   UNL     1       1.875   3.071  20.264  0.00  0.00    +0.000 NA
ATOM      6  C   UNL     1       1.026   3.991  20.730  0.00  0.00    +0.000 A 
ATOM      7  N   UNL     1       1.155   5.314  20.612  0.00  0.00    +0.000 NA
ATOM      8  C   UNL     1       2.242   5.770  19.966  0.00  0.00    +0.000 A 
ATOM      9  N   UNL     1       2.402   7.174  19.781  0.00  0.00    +0.000 N 
ATOM     10  C   UNL     1       3.216   4.890  19.442  0.00  0.00    +0.000 A 
ATOM     11  C   UNL     1       4.393   5.276  18.748  0.00  0.00    +0.000 A 
ATOM     12  H   UNL     1       2.585   7.348  18.797  0.00  0.00    +0.000 HD
ENDROOT
BRANCH   9  13
ATOM     13  C   UNL     1       1.622   8.218  20.340  0.00  0.00    +0.000 A 
ATOM     14  C   UNL     1       1.468   8.393  21.722  0.00  0.00    +0.000 A 
ATOM     15  C   UNL     1       0.715   9.448  22.245  0.00  0.00    +0.000 A 
ATOM     16  C   UNL     1       0.137  10.381  21.392  0.00  0.00    +0.000 A 
ATOM     17  C   UNL     1       0.332  10.258  20.019  0.00  0.00    +0.000 A 
ATOM     18 BR   UNL     1      -0.417  11.547  18.855  0.00  0.00    +0.000 Br
ATOM     19  C   UNL     1       1.078   9.198  19.494  0.00  0.00    +0.000 A 
ENDBRANCH   9  13
BRANCH   1  20
ATOM     20  N   UNL     1       6.364   4.724  17.343  0.00  0.00    +0.000 N 
BRANCH  20  21
ATOM     21  C   UNL     1       7.669   4.800  18.047  0.00  0.00    +0.000 C 
BRANCH  21  22
ATOM     22  C   UNL     1       7.819   5.947  19.050  0.00  0.00    +0.000 C 
BRANCH  22  23
ATOM     23  O   UNL     1       7.911   5.463  20.391  0.00  0.00    +0.000 OA
ATOM     24  H   UNL     1       7.417   6.087  20.953  0.00  0.00    +0.000 HD
ENDBRANCH  22  23
ENDBRANCH  21  22
ENDBRANCH  20  21
BRANCH  20  25
ATOM     25  C   UNL     1       6.353   4.091  15.998  0.00  0.00    +0.000 C 
BRANCH  25  26
ATOM     26  C   UNL     1       6.435   5.114  14.852  0.00  0.00    +0.000 C 
BRANCH  26  27
ATOM     27  O   UNL     1       7.769   5.523  14.567  0.00  0.00    +0.000 OA
ATOM     28  H   UNL     1       8.262   4.687  14.421  0.00  0.00    +0.000 HD
ENDBRANCH  26  27
ENDBRANCH  25  26
ENDBRANCH  20  25
ENDBRANCH   1  20
TORSDOF 8
ENDMDL
MODEL 3
REMARK VINA RESULT:      -7.0      1.295      1.395
REMARK  Name = 
REMARK  8 active torsions:
REMARK  status: ('A' for Active; 'I' for Inactive)
REMARK    1  A    between atoms: O_1  and  C_2
REMARK    2  A    between atoms: C_2  and  C_3
REMARK    3  A    between atoms: C_3  and  N_4
REMARK    4  A    between atoms: N_4  and  C_5
REMARK    5  A    between atoms: N_4  and  C_8
REMARK    6  A    between atoms: C_5  and  C_6
REMARK    7  A    between atoms: C_6  and  O_7
REMARK    8  A    between atoms: N_16  and  C_17
REMARK                            x       y       z     vdW  Elec       q    Type
REMARK                         _______ _______ _______ _____ _____    ______ ____
ROOT
ATOM      1  C   UNL     1       4.834   5.239  17.339  0.00  0.00    +0.000 A 
ATOM      2  C   UNL     1       4.692   3.852  17.444  0.00  0.00    +0.000 A 
ATOM      3  C   UNL     1       3.744   3.284  18.308  0.00  0.00    +0.000 A 
ATOM      4  C   UNL     1       2.888   4.058  19.080  0.00  0.00    +0.000 A 
ATOM      5  N   UNL     1       1.984   3.444  19.843  0.00  0.00    +0.000 NA
ATOM      6  C   UNL     1       1.165   4.229  20.547  0.00  0.00    +0.000 A 
ATOM      7  N   UNL     1       1.165   5.563  20.554  0.00  0.00    +0.000 NA
ATOM      8  C   UNL     1       2.078   6.182  19.785  0.00  0.00    +0.000 A 
ATOM      9  N   UNL     1       2.091   7.605  19.731  0.00  0.00    +0.000 N 
ATOM     10  C   UNL     1       3.007   5.453  19.008  0.00  0.00    +0.000 A 
ATOM     11  C   UNL     1       4.005   6.016  18.168  0.00  0.00    +0.000 A 
ATOM     12  H   UNL     1       2.077   7.888  18.755  0.00  0.00    +0.000 HD
ENDROOT
BRANCH   9  13
ATOM     13  C   UNL     1       1.346   8.512  20.527  0.00  0.00    +0.000 A 
ATOM     14  C   UNL     1       1.445   8.552  21.925  0.00  0.00    +0.000 A 
ATOM     15  C   UNL     1       0.719   9.476  22.682  0.00  0.00    +0.000 A 
ATOM     16  C   UNL     1      -0.091  10.411  22.050  0.00  0.00    +0.000 A 
ATOM     17  C   UNL     1      -0.154  10.426  20.659  0.00  0.00    +0.000 A 
ATOM     18 BR   UNL     1      -1.222  11.723  19.790  0.00  0.00    +0.000 Br
ATOM     19  C   UNL     1       0.565   9.497  19.901  0.00  0.00    +0.000 A 
ENDBRANCH   9  13
BRANCH   1  20
ATOM     20  N   UNL     1       5.724   5.792  16.392  0.00  0.00    +0.000 N 
BRANCH  20  21
ATOM     21  C   UNL     1       7.074   6.109  16.922  0.00  0.00    +0.000 C 
BRANCH  21  22
ATOM     22  C   UNL     1       7.534   5.270  18.118  0.00  0.00    +0.000 C 
BRANCH  22  23
ATOM     23  O   UNL     1       8.238   4.099  17.699  0.00  0.00    +0.000 OA
ATOM     24  H   UNL     1       8.923   3.924  18.368  0.00  0.00    +0.000 HD
ENDBRANCH  22  23
ENDBRANCH  21  22
ENDBRANCH  20  21
BRANCH  20  25
ATOM     25  C   UNL     1       5.653   5.152  15.052  0.00  0.00    +0.000 C 
BRANCH  25  26
ATOM     26  C   UNL     1       7.021   4.660  14.549  0.00  0.00    +0.000 C 
BRANCH  26  27
ATOM     27  O   UNL     1       7.628   5.556  13.624  0.00  0.00    +0.000 OA
ATOM     28  H   UNL     1       7.419   5.185  12.740  0.00  0.00    +0.000 HD
ENDBRANCH  26  27
ENDBRANCH  25  26
ENDBRANCH  20  25
ENDBRANCH   1  20
TORSDOF 8
ENDMDL
MODEL 4
REMARK VINA RESULT:      -6.9      0.829      1.970
REMARK  Name = 
REMARK  8 active torsions:
REMARK  status: ('A' for Active; 'I' for Inactive)
REMARK    1  A    between atoms: O_1  and  C_2
REMARK    2  A    between atoms: C_2  and  C_3
REMARK    3  A    between atoms: C_3  and  N_4
REMARK    4  A    between atoms: N_4  and  C_5
REMARK    5  A    between atoms: N_4  and  C_8
REMARK    6  A    between atoms: C_5  and  C_6
REMARK    7  A    between atoms: C_6  and  O_7
REMARK    8  A    between atoms: N_16  and  C_17
REMARK                            x       y       z     vdW  Elec       q    Type
REMARK                         _______ _______ _______ _____ _____    ______ ____
ROOT
ATOM      1  C   UNL     1       5.461   4.953  18.311  0.00  0.00    +0.000 A 
ATOM      2  C   UNL     1       5.278   3.574  18.448  0.00  0.00    +0.000 A 
ATOM      3  C   UNL     1       4.157   3.055  19.112  0.00  0.00    +0.000 A 
ATOM      4  C   UNL     1       3.166   3.870  19.643  0.00  0.00    +0.000 A 
ATOM      5  N   UNL     1       2.110   3.299  20.220  0.00  0.00    +0.000 NA
ATOM      6  C   UNL     1       1.170   4.122  20.691  0.00  0.00    +0.000 A 
ATOM      7  N   UNL     1       1.190   5.455  20.636  0.00  0.00    +0.000 NA
ATOM      8  C   UNL     1       2.257   6.030  20.055  0.00  0.00    +0.000 A 
ATOM      9  N   UNL     1       2.303   7.449  19.937  0.00  0.00    +0.000 N 
ATOM     10  C   UNL     1       3.320   5.259  19.532  0.00  0.00    +0.000 A 
ATOM     11  C   UNL     1       4.485   5.775  18.902  0.00  0.00    +0.000 A 
ATOM     12  H   UNL     1       2.505   7.684  18.969  0.00  0.00    +0.000 HD
ENDROOT
BRANCH   9  13
ATOM     13  C   UNL     1       1.418   8.398  20.509  0.00  0.00    +0.000 A 
ATOM     14  C   UNL     1       1.295   8.582  21.893  0.00  0.00    +0.000 A 
ATOM     15  C   UNL     1       0.434   9.544  22.428  0.00  0.00    +0.000 A 
ATOM     16  C   UNL     1      -0.291  10.377  21.583  0.00  0.00    +0.000 A 
ATOM     17  C   UNL     1      -0.134  10.250  20.206  0.00  0.00    +0.000 A 
ATOM     18 BR   UNL     1      -1.087  11.406  19.051  0.00  0.00    +0.000 Br
ATOM     19  C   UNL     1       0.720   9.281  19.669  0.00  0.00    +0.000 A 
ENDBRANCH   9  13
BRANCH   1  20
ATOM     20  N   UNL     1       6.544   5.454  17.554  0.00  0.00    +0.000 N 
BRANCH  20  21
ATOM     21  C   UNL     1       6.997   4.562  16.457  0.00  0.00    +0.000 C 
BRANCH  21  22
ATOM     22  C   UNL     1       6.253   4.712  15.126  0.00  0.00    +0.000 C 
BRANCH  22  23
ATOM     23  O   UNL     1       6.431   3.565  14.293  0.00  0.00    +0.000 OA
ATOM     24  H   UNL     1       6.475   3.885  13.374  0.00  0.00    +0.000 HD
ENDBRANCH  22  23
ENDBRANCH  21  22
ENDBRANCH  20  21
BRANCH  20  25
ATOM     25  C   UNL     1       6.447   6.907  17.253  0.00  0.00    +0.000 C 
BRANCH  25  26
ATOM     26  C   UNL     1       7.682   7.699  17.718  0.00  0.00    +0.000 C 
BRANCH  26  27
ATOM     27  O   UNL     1       8.345   7.097  18.825  0.00  0.00    +0.000 OA
ATOM     28  H   UNL     1       8.062   6.157  18.805  0.00  0.00    +0.000 HD
ENDBRANCH  26  27
ENDBRANCH  25  26
ENDBRANCH  20  25
ENDBRANCH   1  20
TORSDOF 8
ENDMDL
MODEL 5
REMARK VINA RESULT:      -6.9      1.463      2.383
REMARK  Name = 
REMARK  8 active torsions:
REMARK  status: ('A' for Active; 'I' for Inactive)
REMARK    1  A    between atoms: O_1  and  C_2
REMARK    2  A    between atoms: C_2  and  C_3
REMARK    3  A    between atoms: C_3  and  N_4
REMARK    4  A    between atoms: N_4  and  C_5
REMARK    5  A    between atoms: N_4  and  C_8
REMARK    6  A    between atoms: C_5  and  C_6
REMARK    7  A    between atoms: C_6  and  O_7
REMARK    8  A    between atoms: N_16  and  C_17
REMARK                            x       y       z     vdW  Elec       q    Type
REMARK                         _______ _______ _______ _____ _____    ______ ____
ROOT
ATOM      1  C   UNL     1       5.348   4.296  18.136  0.00  0.00    +0.000 A 
ATOM      2  C   UNL     1       5.088   3.000  18.589  0.00  0.00    +0.000 A 
ATOM      3  C   UNL     1       3.968   2.723  19.387  0.00  0.00    +0.000 A 
ATOM      4  C   UNL     1       3.053   3.703  19.747  0.00  0.00    +0.000 A 
ATOM      5  N   UNL     1       1.991   3.352  20.471  0.00  0.00    +0.000 NA
ATOM      6  C   UNL     1       1.125   4.324  20.769  0.00  0.00    +0.000 A 
ATOM      7  N   UNL     1       1.223   5.605  20.410  0.00  0.00    +0.000 NA
ATOM      8  C   UNL     1       2.295   5.958  19.681  0.00  0.00    +0.000 A 
ATOM      9  N   UNL     1       2.422   7.307  19.240  0.00  0.00    +0.000 N 
ATOM     10  C   UNL     1       3.286   5.018  19.317  0.00  0.00    +0.000 A 
ATOM     11  C   UNL     1       4.450   5.296  18.552  0.00  0.00    +0.000 A 
ATOM     12  H   UNL     1       2.595   7.302  18.239  0.00  0.00    +0.000 HD
ENDROOT
BRANCH   9  13
ATOM     13  C   UNL     1       1.622   8.420  19.606  0.00  0.00    +0.000 A 
ATOM     14  C   UNL     1       1.172   9.367  18.678  0.00  0.00    +0.000 A 
ATOM     15  C   UNL     1       0.361  10.440  19.063  0.00  0.00    +0.000 A 
ATOM     16  C   UNL     1      -0.054  10.559  20.384  0.00  0.00    +0.000 A 
ATOM     17  C   UNL     1       0.333   9.592  21.308  0.00  0.00    +0.000 A 
ATOM     18 BR   UNL     1      -0.261   9.726  23.099  0.00  0.00    +0.000 Br
ATOM     19  C   UNL     1       1.152   8.524  20.925  0.00  0.00    +0.000 A 
ENDBRANCH   9  13
BRANCH   1  20
ATOM     20  N   UNL     1       6.424   4.537  17.252  0.00  0.00    +0.000 N 
BRANCH  20  21
ATOM     21  C   UNL     1       6.119   5.482  16.148  0.00  0.00    +0.000 C 
BRANCH  21  22
ATOM     22  C   UNL     1       6.559   5.036  14.750  0.00  0.00    +0.000 C 
BRANCH  22  23
ATOM     23  O   UNL     1       7.837   5.573  14.406  0.00  0.00    +0.000 OA
ATOM     24  H   UNL     1       7.912   5.534  13.436  0.00  0.00    +0.000 HD
ENDBRANCH  22  23
ENDBRANCH  21  22
ENDBRANCH  20  21
BRANCH  20  25
ATOM     25  C   UNL     1       7.738   4.686  17.930  0.00  0.00    +0.000 C 
BRANCH  25  26
ATOM     26  C   UNL     1       7.777   5.872  18.911  0.00  0.00    +0.000 C 
BRANCH  26  27
ATOM     27  O   UNL     1       7.973   5.469  20.262  0.00  0.00    +0.000 OA
ATOM     28  H   UNL     1       8.889   5.118  20.289  0.00  0.00    +0.000 HD
ENDBRANCH  26  27
ENDBRANCH  25  26
ENDBRANCH  20  25
ENDBRANCH   1  20
TORSDOF 8
ENDMDL
MODEL 6
REMARK VINA RESULT:      -6.8      1.259      2.327
REMARK  Name = 
REMARK  8 active torsions:
REMARK  status: ('A' for Active; 'I' for Inactive)
REMARK    1  A    between atoms: O_1  and  C_2
REMARK    2  A    between atoms: C_2  and  C_3
REMARK    3  A    between atoms: C_3  and  N_4
REMARK    4  A    between atoms: N_4  and  C_5
REMARK    5  A    between atoms: N_4  and  C_8
REMARK    6  A    between atoms: C_5  and  C_6
REMARK    7  A    between atoms: C_6  and  O_7
REMARK    8  A    between atoms: N_16  and  C_17
REMARK                            x       y       z     vdW  Elec       q    Type
REMARK                         _______ _______ _______ _____ _____    ______ ____
ROOT
ATOM      1  C   UNL     1       5.726   5.186  18.430  0.00  0.00    +0.000 A 
ATOM      2  C   UNL     1       5.593   3.850  18.817  0.00  0.00    +0.000 A 
ATOM      3  C   UNL     1       4.445   3.401  19.488  0.00  0.00    +0.000 A 
ATOM      4  C   UNL     1       3.380   4.244  19.779  0.00  0.00    +0.000 A 
ATOM      5  N   UNL     1       2.306   3.732  20.379  0.00  0.00    +0.000 NA
ATOM      6  C   UNL     1       1.296   4.574  20.614  0.00  0.00    +0.000 A 
ATOM      7  N   UNL     1       1.263   5.871  20.303  0.00  0.00    +0.000 NA
ATOM      8  C   UNL     1       2.348   6.386  19.699  0.00  0.00    +0.000 A 
ATOM      9  N   UNL     1       2.342   7.757  19.313  0.00  0.00    +0.000 N 
ATOM     10  C   UNL     1       3.482   5.593  19.413  0.00  0.00    +0.000 A 
ATOM     11  C   UNL     1       4.671   6.047  18.780  0.00  0.00    +0.000 A 
ATOM     12  H   UNL     1       2.612   7.816  18.335  0.00  0.00    +0.000 HD
ENDROOT
BRANCH   9  13
ATOM     13  C   UNL     1       1.373   8.744  19.626  0.00  0.00    +0.000 A 
ATOM     14  C   UNL     1       0.733   9.516  18.647  0.00  0.00    +0.000 A 
ATOM     15  C   UNL     1      -0.239  10.463  18.983  0.00  0.00    +0.000 A 
ATOM     16  C   UNL     1      -0.624  10.625  20.309  0.00  0.00    +0.000 A 
ATOM     17  C   UNL     1      -0.044   9.823  21.287  0.00  0.00    +0.000 A 
ATOM     18 BR   UNL     1      -0.592  10.010  23.088  0.00  0.00    +0.000 Br
ATOM     19  C   UNL     1       0.935   8.882  20.953  0.00  0.00    +0.000 A 
ENDBRANCH   9  13
BRANCH   1  20
ATOM     20  N   UNL     1       6.844   5.597  17.670  0.00  0.00    +0.000 N 
BRANCH  20  21
ATOM     21  C   UNL     1       7.357   4.576  16.721  0.00  0.00    +0.000 C 
BRANCH  21  22
ATOM     22  C   UNL     1       6.828   4.675  15.287  0.00  0.00    +0.000 C 
BRANCH  22  23
ATOM     23  O   UNL     1       7.750   5.355  14.433  0.00  0.00    +0.000 OA
ATOM     24  H   UNL     1       8.072   4.704  13.785  0.00  0.00    +0.000 HD
ENDBRANCH  22  23
ENDBRANCH  21  22
ENDBRANCH  20  21
BRANCH  20  25
ATOM     25  C   UNL     1       6.758   6.998  17.179  0.00  0.00    +0.000 C 
BRANCH  25  26
ATOM     26  C   UNL     1       7.871   7.900  17.740  0.00  0.00    +0.000 C 
BRANCH  26  27
ATOM     27  O   UNL     1       8.492   7.360  18.901  0.00  0.00    +0.000 OA
ATOM     28  H   UNL     1       8.513   8.102  19.544  0.00  0.00    +0.000 HD
ENDBRANCH  26  27
ENDBRANCH  25  26
ENDBRANCH  20  25
ENDBRANCH   1  20
TORSDOF 8
ENDMDL
MODEL 7
REMARK VINA RESULT:      -6.7      4.369      6.895
REMARK  Name = 
REMARK  8 active torsions:
REMARK  status: ('A' for Active; 'I' for Inactive)
REMARK    1  A    between atoms: O_1  and  C_2
REMARK    2  A    between atoms: C_2  and  C_3
REMARK    3  A    between atoms: C_3  and  N_4
REMARK    4  A    between atoms: N_4  and  C_5
REMARK    5  A    between atoms: N_4  and  C_8
REMARK    6  A    between atoms: C_5  and  C_6
REMARK    7  A    between atoms: C_6  and  O_7
REMARK    8  A    between atoms: N_16  and  C_17
REMARK                            x       y       z     vdW  Elec       q    Type
REMARK                         _______ _______ _______ _____ _____    ______ ____
ROOT
ATOM      1  C   UNL     1       6.028   3.676  12.645  0.00  0.00    +0.000 A 
ATOM      2  C   UNL     1       7.206   4.429  12.640  0.00  0.00    +0.000 A 
ATOM      3  C   UNL     1       7.627   5.121  13.785  0.00  0.00    +0.000 A 
ATOM      4  C   UNL     1       6.920   5.077  14.980  0.00  0.00    +0.000 A 
ATOM      5  N   UNL     1       7.409   5.725  16.036  0.00  0.00    +0.000 NA
ATOM      6  C   UNL     1       6.710   5.632  17.170  0.00  0.00    +0.000 A 
ATOM      7  N   UNL     1       5.575   4.951  17.342  0.00  0.00    +0.000 NA
ATOM      8  C   UNL     1       5.082   4.299  16.275  0.00  0.00    +0.000 A 
ATOM      9  N   UNL     1       3.894   3.526  16.422  0.00  0.00    +0.000 N 
ATOM     10  C   UNL     1       5.730   4.337  15.020  0.00  0.00    +0.000 A 
ATOM     11  C   UNL     1       5.286   3.683  13.839  0.00  0.00    +0.000 A 
ATOM     12  H   UNL     1       4.070   2.596  16.054  0.00  0.00    +0.000 HD
ENDROOT
BRANCH   9  13
ATOM     13  C   UNL     1       3.028   3.467  17.544  0.00  0.00    +0.000 A 
ATOM     14  C   UNL     1       2.448   2.273  17.991  0.00  0.00    +0.000 A 
ATOM     15  C   UNL     1       1.620   2.240  19.117  0.00  0.00    +0.000 A 
ATOM     16  C   UNL     1       1.392   3.401  19.848  0.00  0.00    +0.000 A 
ATOM     17  C   UNL     1       2.011   4.584  19.454  0.00  0.00    +0.000 A 
ATOM     18 BR   UNL     1       1.738   6.158  20.467  0.00  0.00    +0.000 Br
ATOM     19  C   UNL     1       2.832   4.620  18.322  0.00  0.00    +0.000 A 
ENDBRANCH   9  13
BRANCH   1  20
ATOM     20  N   UNL     1       5.673   2.907  11.513  0.00  0.00    +0.000 N 
BRANCH  20  21
ATOM     21  C   UNL     1       6.483   1.677  11.321  0.00  0.00    +0.000 C 
BRANCH  21  22
ATOM     22  C   UNL     1       5.693   0.399  11.024  0.00  0.00    +0.000 C 
BRANCH  22  23
ATOM     23  O   UNL     1       6.459  -0.771  11.312  0.00  0.00    +0.000 OA
ATOM     24  H   UNL     1       7.187  -0.801  10.665  0.00  0.00    +0.000 HD
ENDBRANCH  22  23
ENDBRANCH  21  22
ENDBRANCH  20  21
BRANCH  20  25
ATOM     25  C   UNL     1       4.207   2.796  11.297  0.00  0.00    +0.000 C 
BRANCH  25  26
ATOM     26  C   UNL     1       3.637   3.944  10.445  0.00  0.00    +0.000 C 
BRANCH  26  27
ATOM     27  O   UNL     1       2.900   3.485   9.317  0.00  0.00    +0.000 OA
ATOM     28  H   UNL     1       3.401   2.706   8.990  0.00  0.00    +0.000 HD
ENDBRANCH  26  27
ENDBRANCH  25  26
ENDBRANCH  20  25
ENDBRANCH   1  20
TORSDOF 8
ENDMDL
MODEL 8
REMARK VINA RESULT:      -6.7      1.117      1.500
REMARK  Name = 
REMARK  8 active torsions:
REMARK  status: ('A' for Active; 'I' for Inactive)
REMARK    1  A    between atoms: O_1  and  C_2
REMARK    2  A    between atoms: C_2  and  C_3
REMARK    3  A    between atoms: C_3  and  N_4
REMARK    4  A    between atoms: N_4  and  C_5
REMARK    5  A    between atoms: N_4  and  C_8
REMARK    6  A    between atoms: C_5  and  C_6
REMARK    7  A    between atoms: C_6  and  O_7
REMARK    8  A    between atoms: N_16  and  C_17
REMARK                            x       y       z     vdW  Elec       q    Type
REMARK                         _______ _______ _______ _____ _____    ______ ____
ROOT
ATOM      1  C   UNL     1       5.527   4.894  18.286  0.00  0.00    +0.000 A 
ATOM      2  C   UNL     1       5.356   3.568  18.692  0.00  0.00    +0.000 A 
ATOM      3  C   UNL     1       4.226   3.175  19.425  0.00  0.00    +0.000 A 
ATOM      4  C   UNL     1       3.216   4.065  19.764  0.00  0.00    +0.000 A 
ATOM      5  N   UNL     1       2.153   3.606  20.423  0.00  0.00    +0.000 NA
ATOM      6  C   UNL     1       1.195   4.493  20.703  0.00  0.00    +0.000 A 
ATOM      7  N   UNL     1       1.202   5.788  20.382  0.00  0.00    +0.000 NA
ATOM      8  C   UNL     1       2.275   6.251  19.717  0.00  0.00    +0.000 A 
ATOM      9  N   UNL     1       2.309   7.618  19.319  0.00  0.00    +0.000 N 
ATOM     10  C   UNL     1       3.357   5.406  19.380  0.00  0.00    +0.000 A 
ATOM     11  C   UNL     1       4.529   5.803  18.682  0.00  0.00    +0.000 A 
ATOM     12  H   UNL     1       2.529   7.657  18.328  0.00  0.00    +0.000 HD
ENDROOT
BRANCH   9  13
ATOM     13  C   UNL     1       1.401   8.649  19.673  0.00  0.00    +0.000 A 
ATOM     14  C   UNL     1       0.809   9.495  18.726  0.00  0.00    +0.000 A 
ATOM     15  C   UNL     1      -0.103  10.486  19.101  0.00  0.00    +0.000 A 
ATOM     16  C   UNL     1      -0.477  10.619  20.433  0.00  0.00    +0.000 A 
ATOM     17  C   UNL     1       0.054   9.747  21.378  0.00  0.00    +0.000 A 
ATOM     18 BR   UNL     1      -0.482   9.896  23.187  0.00  0.00    +0.000 Br
ATOM     19  C   UNL     1       0.974   8.761  21.005  0.00  0.00    +0.000 A 
ENDBRANCH   9  13
BRANCH   1  20
ATOM     20  N   UNL     1       6.621   5.250  17.464  0.00  0.00    +0.000 N 
BRANCH  20  21
ATOM     21  C   UNL     1       7.770   5.848  18.188  0.00  0.00    +0.000 C 
BRANCH  21  22
ATOM     22  C   UNL     1       7.885   7.374  18.111  0.00  0.00    +0.000 C 
BRANCH  22  23
ATOM     23  O   UNL     1       7.411   7.873  16.859  0.00  0.00    +0.000 OA
ATOM     24  H   UNL     1       7.211   7.100  16.302  0.00  0.00    +0.000 HD
ENDBRANCH  22  23
ENDBRANCH  21  22
ENDBRANCH  20  21
BRANCH  20  25
ATOM     25  C   UNL     1       6.929   4.252  16.406  0.00  0.00    +0.000 C 
BRANCH  25  26
ATOM     26  C   UNL     1       6.829   4.834  14.985  0.00  0.00    +0.000 C 
BRANCH  26  27
ATOM     27  O   UNL     1       7.981   5.580  14.608  0.00  0.00    +0.000 OA
ATOM     28  H   UNL     1       8.729   5.130  15.057  0.00  0.00    +0.000 HD
ENDBRANCH  26  27
ENDBRANCH  25  26
ENDBRANCH  20  25
ENDBRANCH   1  20
TORSDOF 8
ENDMDL
MODEL 9
REMARK VINA RESULT:      -6.4      3.612      7.356
REMARK  Name = 
REMARK  8 active torsions:
REMARK  status: ('A' for Active; 'I' for Inactive)
REMARK    1  A    between atoms: O_1  and  C_2
REMARK    2  A    between atoms: C_2  and  C_3
REMARK    3  A    between atoms: C_3  and  N_4
REMARK    4  A    between atoms: N_4  and  C_5
REMARK    5  A    between atoms: N_4  and  C_8
REMARK    6  A    between atoms: C_5  and  C_6
REMARK    7  A    between atoms: C_6  and  O_7
REMARK    8  A    between atoms: N_16  and  C_17
REMARK                            x       y       z     vdW  Elec       q    Type
REMARK                         _______ _______ _______ _____ _____    ______ ____
ROOT
ATOM      1  C   UNL     1       1.943   6.933  19.900  0.00  0.00    +0.000 A 
ATOM      2  C   UNL     1       1.493   5.983  20.822  0.00  0.00    +0.000 A 
ATOM      3  C   UNL     1       1.873   4.637  20.719  0.00  0.00    +0.000 A 
ATOM      4  C   UNL     1       2.726   4.181  19.722  0.00  0.00    +0.000 A 
ATOM      5  N   UNL     1       3.076   2.896  19.718  0.00  0.00    +0.000 NA
ATOM      6  C   UNL     1       3.920   2.510  18.758  0.00  0.00    +0.000 A 
ATOM      7  N   UNL     1       4.444   3.289  17.810  0.00  0.00    +0.000 NA
ATOM      8  C   UNL     1       4.089   4.586  17.814  0.00  0.00    +0.000 A 
ATOM      9  N   UNL     1       4.655   5.464  16.845  0.00  0.00    +0.000 N 
ATOM     10  C   UNL     1       3.192   5.104  18.775  0.00  0.00    +0.000 A 
ATOM     11  C   UNL     1       2.760   6.455  18.859  0.00  0.00    +0.000 A 
ATOM     12  H   UNL     1       5.038   6.271  17.329  0.00  0.00    +0.000 HD
ENDROOT
BRANCH   9  13
ATOM     13  C   UNL     1       5.456   5.122  15.726  0.00  0.00    +0.000 A 
ATOM     14  C   UNL     1       6.850   5.272  15.718  0.00  0.00    +0.000 A 
ATOM     15  C   UNL     1       7.618   4.902  14.610  0.00  0.00    +0.000 A 
ATOM     16  C   UNL     1       7.008   4.328  13.500  0.00  0.00    +0.000 A 
ATOM     17  C   UNL     1       5.632   4.114  13.516  0.00  0.00    +0.000 A 
ATOM     18 BR   UNL     1       4.801   3.298  12.026  0.00  0.00    +0.000 Br
ATOM     19  C   UNL     1       4.862   4.493  14.620  0.00  0.00    +0.000 A 
ENDBRANCH   9  13
BRANCH   1  20
ATOM     20  N   UNL     1       1.631   8.299  20.078  0.00  0.00    +0.000 N 
BRANCH  20  21
ATOM     21  C   UNL     1       1.398   9.050  18.818  0.00  0.00    +0.000 C 
BRANCH  21  22
ATOM     22  C   UNL     1       1.098  10.544  18.979  0.00  0.00    +0.000 C 
BRANCH  22  23
ATOM     23  O   UNL     1       1.918  11.339  18.122  0.00  0.00    +0.000 OA
ATOM     24  H   UNL     1       1.738  12.271  18.340  0.00  0.00    +0.000 HD
ENDBRANCH  22  23
ENDBRANCH  21  22
ENDBRANCH  20  21
BRANCH  20  25
ATOM     25  C   UNL     1       0.701   8.563  21.208  0.00  0.00    +0.000 C 
BRANCH  25  26
ATOM     26  C   UNL     1       1.380   9.274  22.391  0.00  0.00    +0.000 C 
BRANCH  26  27
ATOM     27  O   UNL     1       0.450   9.860  23.295  0.00  0.00    +0.000 OA
ATOM     28  H   UNL     1       0.040  10.597  22.791  0.00  0.00    +0.000 HD
ENDBRANCH  26  27
ENDBRANCH  25  26
ENDBRANCH  20  25
ENDBRANCH   1  20
TORSDOF 8
ENDMDL
