MODEL 1
REMARK VINA RESULT:      -7.6      0.000      0.000
REMARK  Name = 
REMARK  2 active torsions:
REMARK  status: ('A' for Active; 'I' for Inactive)
REMARK    1  A    between atoms: N_20  and  C_21
REMARK    2  A    between atoms: C_21  and  C_22
REMARK                            x       y       z     vdW  Elec       q    Type
REMARK                         _______ _______ _______ _____ _____    ______ ____
ROOT
ATOM      1  N   UNL     1      -6.297  13.404  24.568  0.00  0.00    +0.000 N 
ATOM      2  C   UNL     1      -5.304  13.186  23.636  0.00  0.00    +0.000 A 
ATOM      3  N   UNL     1      -5.437  13.837  22.496  0.00  0.00    +0.000 NA
ATOM      4  C   UNL     1      -4.488  13.644  21.594  0.00  0.00    +0.000 A 
ATOM      5  N   UNL     1      -4.668  14.365  20.405  0.00  0.00    +0.000 N 
ATOM      6  C   UNL     1      -3.402  12.778  21.775  0.00  0.00    +0.000 A 
ATOM      7  C   UNL     1      -3.357  12.144  22.995  0.00  0.00    +0.000 A 
ATOM      8  N   UNL     1      -4.313  12.333  23.921  0.00  0.00    +0.000 NA
ATOM      9  N   UNL     1      -2.348  11.280  23.453  0.00  0.00    +0.000 N 
ATOM     10  C   UNL     1      -1.172  10.771  22.966  0.00  0.00    +0.000 C 
ATOM     11  O   UNL     1      -0.520  10.037  23.712  0.00  0.00    +0.000 OA
ATOM     12  C   UNL     1      -0.739  11.056  21.620  0.00  0.00    +0.000 A 
ATOM     13  C   UNL     1      -1.404  11.758  20.633  0.00  0.00    +0.000 A 
ATOM     14  C   UNL     1      -0.720  11.526  19.391  0.00  0.00    +0.000 A 
ATOM     15  C   UNL     1      -0.956  12.159  18.149  0.00  0.00    +0.000 A 
ATOM     16  C   UNL     1      -0.301  13.379  18.055  0.00  0.00    +0.000 A 
ATOM     17  C   UNL     1       0.984  13.463  18.574  0.00  0.00    +0.000 A 
ATOM     18  C   UNL     1       1.530  12.415  19.344  0.00  0.00    +0.000 A 
ATOM     19  C   UNL     1       0.587  11.520  19.874  0.00  0.00    +0.000 A 
ATOM     20  N   UNL     1       0.507  10.760  21.037  0.00  0.00    +0.000 N 
ATOM     21  C   UNL     1      -2.443  12.790  20.661  0.00  0.00    +0.000 C 
ATOM     22  H   UNL     1      -7.114  13.764  24.091  0.00  0.00    +0.000 HD
ATOM     23  H   UNL     1      -6.429  12.586  25.141  0.00  0.00    +0.000 HD
ATOM     24  H   UNL     1      -5.489  14.954  20.517  0.00  0.00    +0.000 HD
ATOM     25  H   UNL     1      -3.856  14.913  20.143  0.00  0.00    +0.000 HD
ATOM     26  H   UNL     1      -2.529  10.975  24.408  0.00  0.00    +0.000 HD
ENDROOT
BRANCH  20  27
ATOM     27  C   UNL     1       1.502   9.773  21.472  0.00  0.00    +0.000 C 
BRANCH  27  28
ATOM     28  C   UNL     1       1.733   8.604  20.543  0.00  0.00    +0.000 A 
ATOM     29  C   UNL     1       1.639   7.288  21.022  0.00  0.00    +0.000 A 
ATOM     30  C   UNL     1       1.833   6.193  20.171  0.00  0.00    +0.000 A 
ATOM     31  C   UNL     1       2.127   6.403  18.828  0.00  0.00    +0.000 A 
ATOM     32 CL   UNL     1       2.413   5.064  17.788  0.00  0.00    +0.000 Cl
ATOM     33  C   UNL     1       2.178   7.695  18.320  0.00  0.00    +0.000 A 
ATOM     34  C   UNL     1       1.957   8.783  19.171  0.00  0.00    +0.000 A 
ENDBRANCH  27  28
ENDBRANCH  20  27
TORSDOF 2
ENDMDL
MODEL 2
REMARK VINA RESULT:      -7.5      3.980      7.481
REMARK  Name = 
REMARK  2 active torsions:
REMARK  status: ('A' for Active; 'I' for Inactive)
REMARK    1  A    between atoms: N_20  and  C_21
REMARK    2  A    between atoms: C_21  and  C_22
REMARK                            x       y       z     vdW  Elec       q    Type
REMARK                         _______ _______ _______ _____ _____    ______ ____
ROOT
ATOM      1  N   UNL     1       4.607  16.803  18.578  0.00  0.00    +0.000 N 
ATOM      2  C   UNL     1       3.741  15.802  18.966  0.00  0.00    +0.000 A 
ATOM      3  N   UNL     1       3.795  14.693  18.253  0.00  0.00    +0.000 NA
ATOM      4  C   UNL     1       2.976  13.719  18.616  0.00  0.00    +0.000 A 
ATOM      5  N   UNL     1       3.078  12.559  17.837  0.00  0.00    +0.000 N 
ATOM      6  C   UNL     1       2.055  13.824  19.667  0.00  0.00    +0.000 A 
ATOM      7  C   UNL     1       2.075  15.022  20.345  0.00  0.00    +0.000 A 
ATOM      8  N   UNL     1       2.904  16.018  19.986  0.00  0.00    +0.000 NA
ATOM      9  N   UNL     1       1.305  15.360  21.470  0.00  0.00    +0.000 N 
ATOM     10  C   UNL     1       0.354  14.753  22.248  0.00  0.00    +0.000 C 
ATOM     11  O   UNL     1      -0.083  15.391  23.210  0.00  0.00    +0.000 OA
ATOM     12  C   UNL     1      -0.138  13.435  21.929  0.00  0.00    +0.000 A 
ATOM     13  C   UNL     1       0.161  12.646  20.836  0.00  0.00    +0.000 A 
ATOM     14  C   UNL     1      -0.783  11.565  20.799  0.00  0.00    +0.000 A 
ATOM     15  C   UNL     1      -0.767  10.437  19.948  0.00  0.00    +0.000 A 
ATOM     16  C   UNL     1       0.063   9.435  20.429  0.00  0.00    +0.000 A 
ATOM     17  C   UNL     1       0.058   9.195  21.797  0.00  0.00    +0.000 A 
ATOM     18  C   UNL     1      -0.608  10.062  22.687  0.00  0.00    +0.000 A 
ATOM     19  C   UNL     1      -0.887  11.337  22.170  0.00  0.00    +0.000 A 
ATOM     20  N   UNL     1      -0.970  12.615  22.713  0.00  0.00    +0.000 N 
ATOM     21  C   UNL     1       1.308  12.585  19.926  0.00  0.00    +0.000 C 
ATOM     22  H   UNL     1       4.892  16.632  17.622  0.00  0.00    +0.000 HD
ATOM     23  H   UNL     1       4.211  17.708  18.778  0.00  0.00    +0.000 HD
ATOM     24  H   UNL     1       3.834  12.694  17.171  0.00  0.00    +0.000 HD
ATOM     25  H   UNL     1       3.221  11.718  18.387  0.00  0.00    +0.000 HD
ATOM     26  H   UNL     1       1.536  16.293  21.807  0.00  0.00    +0.000 HD
ENDROOT
BRANCH  20  27
ATOM     27  C   UNL     1      -1.852  13.008  23.819  0.00  0.00    +0.000 C 
BRANCH  27  28
ATOM     28  C   UNL     1      -3.338  12.911  23.555  0.00  0.00    +0.000 A 
ATOM     29  C   UNL     1      -4.223  12.595  24.596  0.00  0.00    +0.000 A 
ATOM     30  C   UNL     1      -5.603  12.518  24.373  0.00  0.00    +0.000 A 
ATOM     31  C   UNL     1      -6.114  12.756  23.101  0.00  0.00    +0.000 A 
ATOM     32 CL   UNL     1      -7.803  12.616  22.809  0.00  0.00    +0.000 Cl
ATOM     33  C   UNL     1      -5.262  13.118  22.065  0.00  0.00    +0.000 A 
ATOM     34  C   UNL     1      -3.888  13.218  22.303  0.00  0.00    +0.000 A 
ENDBRANCH  27  28
ENDBRANCH  20  27
TORSDOF 2
ENDMDL
MODEL 3
REMARK VINA RESULT:      -7.4      4.519      8.380
REMARK  Name = 
REMARK  2 active torsions:
REMARK  status: ('A' for Active; 'I' for Inactive)
REMARK    1  A    between atoms: N_20  and  C_21
REMARK    2  A    between atoms: C_21  and  C_22
REMARK                            x       y       z     vdW  Elec       q    Type
REMARK                         _______ _______ _______ _____ _____    ______ ____
ROOT
ATOM      1  N   UNL     1       5.203   3.930  17.961  0.00  0.00    +0.000 N 
ATOM      2  C   UNL     1       4.301   4.798  18.540  0.00  0.00    +0.000 A 
ATOM      3  N   UNL     1       3.746   4.380  19.662  0.00  0.00    +0.000 NA
ATOM      4  C   UNL     1       2.883   5.204  20.234  0.00  0.00    +0.000 A 
ATOM      5  N   UNL     1       2.330   4.722  21.429  0.00  0.00    +0.000 N 
ATOM      6  C   UNL     1       2.514   6.445  19.699  0.00  0.00    +0.000 A 
ATOM      7  C   UNL     1       3.146   6.786  18.524  0.00  0.00    +0.000 A 
ATOM      8  N   UNL     1       4.026   5.958  17.934  0.00  0.00    +0.000 NA
ATOM      9  N   UNL     1       3.006   7.993  17.818  0.00  0.00    +0.000 N 
ATOM     10  C   UNL     1       2.296   9.156  17.960  0.00  0.00    +0.000 C 
ATOM     11  O   UNL     1       2.473  10.035  17.112  0.00  0.00    +0.000 OA
ATOM     12  C   UNL     1       1.354   9.326  19.039  0.00  0.00    +0.000 A 
ATOM     13  C   UNL     1       0.962   8.406  19.992  0.00  0.00    +0.000 A 
ATOM     14  C   UNL     1      -0.196   8.929  20.660  0.00  0.00    +0.000 A 
ATOM     15  C   UNL     1      -0.843   8.401  21.801  0.00  0.00    +0.000 A 
ATOM     16  C   UNL     1      -0.226   8.799  22.979  0.00  0.00    +0.000 A 
ATOM     17  C   UNL     1       0.226  10.110  23.057  0.00  0.00    +0.000 A 
ATOM     18  C   UNL     1       0.243  10.946  21.922  0.00  0.00    +0.000 A 
ATOM     19  C   UNL     1       0.175  10.272  20.693  0.00  0.00    +0.000 A 
ATOM     20  N   UNL     1       0.688  10.505  19.421  0.00  0.00    +0.000 N 
ATOM     21  C   UNL     1       1.597   7.211  20.554  0.00  0.00    +0.000 C 
ATOM     22  H   UNL     1       5.033   2.999  18.321  0.00  0.00    +0.000 HD
ATOM     23  H   UNL     1       5.201   4.036  16.959  0.00  0.00    +0.000 HD
ATOM     24  H   UNL     1       2.774   3.833  21.643  0.00  0.00    +0.000 HD
ATOM     25  H   UNL     1       2.419   5.372  22.202  0.00  0.00    +0.000 HD
ATOM     26  H   UNL     1       3.613   8.013  17.000  0.00  0.00    +0.000 HD
ENDROOT
BRANCH  20  27
ATOM     27  C   UNL     1       0.459  11.717  18.626  0.00  0.00    +0.000 C 
BRANCH  27  28
ATOM     28  C   UNL     1       1.345  12.900  18.942  0.00  0.00    +0.000 A 
ATOM     29  C   UNL     1       2.556  13.082  18.257  0.00  0.00    +0.000 A 
ATOM     30  C   UNL     1       3.381  14.181  18.525  0.00  0.00    +0.000 A 
ATOM     31  C   UNL     1       3.002  15.113  19.486  0.00  0.00    +0.000 A 
ATOM     32 CL   UNL     1       4.032  16.440  19.855  0.00  0.00    +0.000 Cl
ATOM     33  C   UNL     1       1.785  14.980  20.143  0.00  0.00    +0.000 A 
ATOM     34  C   UNL     1       0.955  13.894  19.851  0.00  0.00    +0.000 A 
ENDBRANCH  27  28
ENDBRANCH  20  27
TORSDOF 2
ENDMDL
MODEL 4
REMARK VINA RESULT:      -7.3      4.173      7.743
REMARK  Name = 
REMARK  2 active torsions:
REMARK  status: ('A' for Active; 'I' for Inactive)
REMARK    1  A    between atoms: N_20  and  C_21
REMARK    2  A    between atoms: C_21  and  C_22
REMARK                            x       y       z     vdW  Elec       q    Type
REMARK                         _______ _______ _______ _____ _____    ______ ____
ROOT
ATOM      1  N   UNL     1       5.106  16.733  18.560  0.00  0.00    +0.000 N 
ATOM      2  C   UNL     1       4.131  15.842  18.956  0.00  0.00    +0.000 A 
ATOM      3  N   UNL     1       4.040  14.738  18.238  0.00  0.00    +0.000 NA
ATOM      4  C   UNL     1       3.114  13.869  18.609  0.00  0.00    +0.000 A 
ATOM      5  N   UNL     1       3.064  12.709  17.824  0.00  0.00    +0.000 N 
ATOM      6  C   UNL     1       2.228  14.078  19.675  0.00  0.00    +0.000 A 
ATOM      7  C   UNL     1       2.403  15.260  20.357  0.00  0.00    +0.000 A 
ATOM      8  N   UNL     1       3.341  16.151  19.990  0.00  0.00    +0.000 NA
ATOM      9  N   UNL     1       1.696  15.683  21.495  0.00  0.00    +0.000 N 
ATOM     10  C   UNL     1       0.690  15.190  22.285  0.00  0.00    +0.000 C 
ATOM     11  O   UNL     1       0.347  15.871  23.255  0.00  0.00    +0.000 OA
ATOM     12  C   UNL     1       0.037  13.944  21.968  0.00  0.00    +0.000 A 
ATOM     13  C   UNL     1       0.223  13.131  20.867  0.00  0.00    +0.000 A 
ATOM     14  C   UNL     1      -0.846  12.173  20.839  0.00  0.00    +0.000 A 
ATOM     15  C   UNL     1      -0.979  11.056  19.983  0.00  0.00    +0.000 A 
ATOM     16  C   UNL     1      -0.269   9.958  20.447  0.00  0.00    +0.000 A 
ATOM     17  C   UNL     1      -0.284   9.713  21.814  0.00  0.00    +0.000 A 
ATOM     18  C   UNL     1      -0.827  10.648  22.718  0.00  0.00    +0.000 A 
ATOM     19  C   UNL     1      -0.957  11.951  22.211  0.00  0.00    +0.000 A 
ATOM     20  N   UNL     1      -0.877  13.226  22.761  0.00  0.00    +0.000 N 
ATOM     21  C   UNL     1       1.341  12.937  19.940  0.00  0.00    +0.000 C 
ATOM     22  H   UNL     1       5.355  16.534  17.599  0.00  0.00    +0.000 HD
ATOM     23  H   UNL     1       4.826  17.678  18.770  0.00  0.00    +0.000 HD
ATOM     24  H   UNL     1       3.821  12.756  17.147  0.00  0.00    +0.000 HD
ATOM     25  H   UNL     1       3.111  11.855  18.368  0.00  0.00    +0.000 HD
ATOM     26  H   UNL     1       2.043  16.579  21.833  0.00  0.00    +0.000 HD
ENDROOT
BRANCH  20  27
ATOM     27  C   UNL     1      -1.689  13.716  23.881  0.00  0.00    +0.000 C 
BRANCH  27  28
ATOM     28  C   UNL     1      -3.180  13.497  23.771  0.00  0.00    +0.000 A 
ATOM     29  C   UNL     1      -3.918  14.129  22.759  0.00  0.00    +0.000 A 
ATOM     30  C   UNL     1      -5.297  13.923  22.633  0.00  0.00    +0.000 A 
ATOM     31  C   UNL     1      -5.956  13.081  23.522  0.00  0.00    +0.000 A 
ATOM     32 CL   UNL     1      -7.657  12.860  23.403  0.00  0.00    +0.000 Cl
ATOM     33  C   UNL     1      -5.239  12.406  24.503  0.00  0.00    +0.000 A 
ATOM     34  C   UNL     1      -3.858  12.597  24.606  0.00  0.00    +0.000 A 
ENDBRANCH  27  28
ENDBRANCH  20  27
TORSDOF 2
ENDMDL
MODEL 5
REMARK VINA RESULT:      -7.3      3.071      3.672
REMARK  Name = 
REMARK  2 active torsions:
REMARK  status: ('A' for Active; 'I' for Inactive)
REMARK    1  A    between atoms: N_20  and  C_21
REMARK    2  A    between atoms: C_21  and  C_22
REMARK                            x       y       z     vdW  Elec       q    Type
REMARK                         _______ _______ _______ _____ _____    ______ ____
ROOT
ATOM      1  N   UNL     1      -1.466  15.830  26.432  0.00  0.00    +0.000 N 
ATOM      2  C   UNL     1      -0.965  15.613  25.166  0.00  0.00    +0.000 A 
ATOM      3  N   UNL     1      -0.189  16.567  24.688  0.00  0.00    +0.000 NA
ATOM      4  C   UNL     1       0.306  16.371  23.476  0.00  0.00    +0.000 A 
ATOM      5  N   UNL     1       1.133  17.405  23.017  0.00  0.00    +0.000 N 
ATOM      6  C   UNL     1       0.020  15.248  22.687  0.00  0.00    +0.000 A 
ATOM      7  C   UNL     1      -0.802  14.315  23.275  0.00  0.00    +0.000 A 
ATOM      8  N   UNL     1      -1.310  14.501  24.506  0.00  0.00    +0.000 NA
ATOM      9  N   UNL     1      -1.190  13.079  22.730  0.00  0.00    +0.000 N 
ATOM     10  C   UNL     1      -0.964  12.385  21.571  0.00  0.00    +0.000 C 
ATOM     11  O   UNL     1      -1.477  11.267  21.470  0.00  0.00    +0.000 OA
ATOM     12  C   UNL     1      -0.189  12.958  20.499  0.00  0.00    +0.000 A 
ATOM     13  C   UNL     1       0.350  14.227  20.410  0.00  0.00    +0.000 A 
ATOM     14  C   UNL     1       0.774  14.433  19.053  0.00  0.00    +0.000 A 
ATOM     15  C   UNL     1       1.514  15.522  18.539  0.00  0.00    +0.000 A 
ATOM     16  C   UNL     1       2.879  15.362  18.734  0.00  0.00    +0.000 A 
ATOM     17  C   UNL     1       3.411  14.092  18.550  0.00  0.00    +0.000 A 
ATOM     18  C   UNL     1       2.576  12.970  18.370  0.00  0.00    +0.000 A 
ATOM     19  C   UNL     1       1.249  13.149  18.790  0.00  0.00    +0.000 A 
ATOM     20  N   UNL     1       0.275  12.318  19.335  0.00  0.00    +0.000 N 
ATOM     21  C   UNL     1       0.746  15.222  21.410  0.00  0.00    +0.000 C 
ATOM     22  H   UNL     1      -1.416  16.821  26.635  0.00  0.00    +0.000 HD
ATOM     23  H   UNL     1      -2.367  15.391  26.535  0.00  0.00    +0.000 HD
ATOM     24  H   UNL     1       1.232  18.084  23.767  0.00  0.00    +0.000 HD
ATOM     25  H   UNL     1       2.039  17.080  22.695  0.00  0.00    +0.000 HD
ATOM     26  H   UNL     1      -1.771  12.555  23.382  0.00  0.00    +0.000 HD
ENDROOT
BRANCH  20  27
ATOM     27  C   UNL     1      -0.218  11.079  18.721  0.00  0.00    +0.000 C 
BRANCH  27  28
ATOM     28  C   UNL     1       0.652   9.855  18.895  0.00  0.00    +0.000 A 
ATOM     29  C   UNL     1       1.375   9.340  17.808  0.00  0.00    +0.000 A 
ATOM     30  C   UNL     1       2.199   8.218  17.956  0.00  0.00    +0.000 A 
ATOM     31  C   UNL     1       2.308   7.595  19.195  0.00  0.00    +0.000 A 
ATOM     32 CL   UNL     1       3.281   6.188  19.372  0.00  0.00    +0.000 Cl
ATOM     33  C   UNL     1       1.639   8.116  20.296  0.00  0.00    +0.000 A 
ATOM     34  C   UNL     1       0.839   9.253  20.147  0.00  0.00    +0.000 A 
ENDBRANCH  27  28
ENDBRANCH  20  27
TORSDOF 2
ENDMDL
MODEL 6
REMARK VINA RESULT:      -7.2      3.458      7.190
REMARK  Name = 
REMARK  2 active torsions:
REMARK  status: ('A' for Active; 'I' for Inactive)
REMARK    1  A    between atoms: N_20  and  C_21
REMARK    2  A    between atoms: C_21  and  C_22
REMARK                            x       y       z     vdW  Elec       q    Type
REMARK                         _______ _______ _______ _____ _____    ______ ____
ROOT
ATOM      1  N   UNL     1       2.120   7.621  18.196  0.00  0.00    +0.000 N 
ATOM      2  C   UNL     1       1.791   8.889  18.627  0.00  0.00    +0.000 A 
ATOM      3  N   UNL     1       2.245   9.880  17.882  0.00  0.00    +0.000 NA
ATOM      4  C   UNL     1       1.932  11.104  18.278  0.00  0.00    +0.000 A 
ATOM      5  N   UNL     1       2.425  12.121  17.450  0.00  0.00    +0.000 N 
ATOM      6  C   UNL     1       1.196  11.387  19.437  0.00  0.00    +0.000 A 
ATOM      7  C   UNL     1       0.774  10.285  20.145  0.00  0.00    +0.000 A 
ATOM      8  N   UNL     1       1.084   9.037  19.752  0.00  0.00    +0.000 NA
ATOM      9  N   UNL     1      -0.027  10.288  21.299  0.00  0.00    +0.000 N 
ATOM     10  C   UNL     1      -0.629  11.228  22.094  0.00  0.00    +0.000 C 
ATOM     11  O   UNL     1      -1.306  10.820  23.041  0.00  0.00    +0.000 OA
ATOM     12  C   UNL     1      -0.445  12.638  21.849  0.00  0.00    +0.000 A 
ATOM     13  C   UNL     1       0.364  13.250  20.912  0.00  0.00    +0.000 A 
ATOM     14  C   UNL     1       0.443  14.646  21.240  0.00  0.00    +0.000 A 
ATOM     15  C   UNL     1       1.033  15.677  20.475  0.00  0.00    +0.000 A 
ATOM     16  C   UNL     1       0.173  16.158  19.498  0.00  0.00    +0.000 A 
ATOM     17  C   UNL     1      -1.166  16.307  19.836  0.00  0.00    +0.000 A 
ATOM     18  C   UNL     1      -1.673  15.805  21.052  0.00  0.00    +0.000 A 
ATOM     19  C   UNL     1      -0.871  14.830  21.667  0.00  0.00    +0.000 A 
ATOM     20  N   UNL     1      -1.124  13.712  22.454  0.00  0.00    +0.000 N 
ATOM     21  C   UNL     1       0.914  12.817  19.624  0.00  0.00    +0.000 C 
ATOM     22  H   UNL     1       2.919   7.686  17.578  0.00  0.00    +0.000 HD
ATOM     23  H   UNL     1       2.203   6.993  18.980  0.00  0.00    +0.000 HD
ATOM     24  H   UNL     1       2.884  11.684  16.655  0.00  0.00    +0.000 HD
ATOM     25  H   UNL     1       1.710  12.773  17.146  0.00  0.00    +0.000 HD
ATOM     26  H   UNL     1      -0.232   9.340  21.608  0.00  0.00    +0.000 HD
ENDROOT
BRANCH  20  27
ATOM     27  C   UNL     1      -1.867  13.719  23.720  0.00  0.00    +0.000 C 
BRANCH  27  28
ATOM     28  C   UNL     1      -3.341  13.393  23.631  0.00  0.00    +0.000 A 
ATOM     29  C   UNL     1      -3.960  12.631  24.633  0.00  0.00    +0.000 A 
ATOM     30  C   UNL     1      -5.327  12.335  24.575  0.00  0.00    +0.000 A 
ATOM     31  C   UNL     1      -6.092  12.799  23.510  0.00  0.00    +0.000 A 
ATOM     32 CL   UNL     1      -7.762  12.399  23.407  0.00  0.00    +0.000 Cl
ATOM     33  C   UNL     1      -5.512  13.596  22.531  0.00  0.00    +0.000 A 
ATOM     34  C   UNL     1      -4.151  13.909  22.610  0.00  0.00    +0.000 A 
ENDBRANCH  27  28
ENDBRANCH  20  27
TORSDOF 2
ENDMDL
MODEL 7
REMARK VINA RESULT:      -7.2      4.076      8.307
REMARK  Name = 
REMARK  2 active torsions:
REMARK  status: ('A' for Active; 'I' for Inactive)
REMARK    1  A    between atoms: N_20  and  C_21
REMARK    2  A    between atoms: C_21  and  C_22
REMARK                            x       y       z     vdW  Elec       q    Type
REMARK                         _______ _______ _______ _____ _____    ______ ____
ROOT
ATOM      1  N   UNL     1       5.397   4.718  17.500  0.00  0.00    +0.000 N 
ATOM      2  C   UNL     1       4.446   5.441  18.188  0.00  0.00    +0.000 A 
ATOM      3  N   UNL     1       4.051   4.920  19.335  0.00  0.00    +0.000 NA
ATOM      4  C   UNL     1       3.143   5.605  20.011  0.00  0.00    +0.000 A 
ATOM      5  N   UNL     1       2.765   5.018  21.226  0.00  0.00    +0.000 N 
ATOM      6  C   UNL     1       2.572   6.803  19.561  0.00  0.00    +0.000 A 
ATOM      7  C   UNL     1       3.048   7.259  18.353  0.00  0.00    +0.000 A 
ATOM      8  N   UNL     1       3.971   6.573  17.657  0.00  0.00    +0.000 NA
ATOM      9  N   UNL     1       2.692   8.458  17.712  0.00  0.00    +0.000 N 
ATOM     10  C   UNL     1       1.854   9.513  17.962  0.00  0.00    +0.000 C 
ATOM     11  O   UNL     1       1.840  10.432  17.139  0.00  0.00    +0.000 OA
ATOM     12  C   UNL     1       0.997   9.524  19.122  0.00  0.00    +0.000 A 
ATOM     13  C   UNL     1       0.813   8.532  20.065  0.00  0.00    +0.000 A 
ATOM     14  C   UNL     1      -0.339   8.876  20.849  0.00  0.00    +0.000 A 
ATOM     15  C   UNL     1      -0.809   8.233  22.017  0.00  0.00    +0.000 A 
ATOM     16  C   UNL     1      -0.147   8.674  23.155  0.00  0.00    +0.000 A 
ATOM     17  C   UNL     1       0.138  10.029  23.250  0.00  0.00    +0.000 A 
ATOM     18  C   UNL     1      -0.054  10.894  22.153  0.00  0.00    +0.000 A 
ATOM     19  C   UNL     1      -0.143  10.255  20.907  0.00  0.00    +0.000 A 
ATOM     20  N   UNL     1       0.221  10.592  19.607  0.00  0.00    +0.000 N 
ATOM     21  C   UNL     1       1.643   7.414  20.521  0.00  0.00    +0.000 C 
ATOM     22  H   UNL     1       5.381   3.762  17.834  0.00  0.00    +0.000 HD
ATOM     23  H   UNL     1       5.293   4.853  16.507  0.00  0.00    +0.000 HD
ATOM     24  H   UNL     1       3.337   4.189  21.366  0.00  0.00    +0.000 HD
ATOM     25  H   UNL     1       2.838   5.650  22.016  0.00  0.00    +0.000 HD
ATOM     26  H   UNL     1       3.216   8.583  16.848  0.00  0.00    +0.000 HD
ENDROOT
BRANCH  20  27
ATOM     27  C   UNL     1      -0.232  11.788  18.886  0.00  0.00    +0.000 C 
BRANCH  27  28
ATOM     28  C   UNL     1      -1.697  11.830  18.517  0.00  0.00    +0.000 A 
ATOM     29  C   UNL     1      -2.125  11.380  17.259  0.00  0.00    +0.000 A 
ATOM     30  C   UNL     1      -3.481  11.397  16.908  0.00  0.00    +0.000 A 
ATOM     31  C   UNL     1      -4.426  11.867  17.814  0.00  0.00    +0.000 A 
ATOM     32 CL   UNL     1      -6.086  11.936  17.373  0.00  0.00    +0.000 Cl
ATOM     33  C   UNL     1      -4.031  12.274  19.083  0.00  0.00    +0.000 A 
ATOM     34  C   UNL     1      -2.679  12.229  19.435  0.00  0.00    +0.000 A 
ENDBRANCH  27  28
ENDBRANCH  20  27
TORSDOF 2
ENDMDL
MODEL 8
REMARK VINA RESULT:      -7.2      2.080      2.817
REMARK  Name = 
REMARK  2 active torsions:
REMARK  status: ('A' for Active; 'I' for Inactive)
REMARK    1  A    between atoms: N_20  and  C_21
REMARK    2  A    between atoms: C_21  and  C_22
REMARK                            x       y       z     vdW  Elec       q    Type
REMARK                         _______ _______ _______ _____ _____    ______ ____
ROOT
ATOM      1  N   UNL     1      -4.162  15.080  24.810  0.00  0.00    +0.000 N 
ATOM      2  C   UNL     1      -3.984  14.348  23.655  0.00  0.00    +0.000 A 
ATOM      3  N   UNL     1      -5.090  13.969  23.043  0.00  0.00    +0.000 NA
ATOM      4  C   UNL     1      -4.937  13.271  21.929  0.00  0.00    +0.000 A 
ATOM      5  N   UNL     1      -6.139  12.901  21.310  0.00  0.00    +0.000 N 
ATOM      6  C   UNL     1      -3.692  12.896  21.407  0.00  0.00    +0.000 A 
ATOM      7  C   UNL     1      -2.601  13.336  22.121  0.00  0.00    +0.000 A 
ATOM      8  N   UNL     1      -2.744  14.048  23.253  0.00  0.00    +0.000 NA
ATOM      9  N   UNL     1      -1.250  13.155  21.783  0.00  0.00    +0.000 N 
ATOM     10  C   UNL     1      -0.546  12.556  20.771  0.00  0.00    +0.000 C 
ATOM     11  O   UNL     1       0.685  12.640  20.810  0.00  0.00    +0.000 OA
ATOM     12  C   UNL     1      -1.220  11.826  19.726  0.00  0.00    +0.000 A 
ATOM     13  C   UNL     1      -2.567  11.545  19.604  0.00  0.00    +0.000 A 
ATOM     14  C   UNL     1      -2.720  10.554  18.576  0.00  0.00    +0.000 A 
ATOM     15  C   UNL     1      -3.926  10.081  18.011  0.00  0.00    +0.000 A 
ATOM     16  C   UNL     1      -4.390  10.914  17.002  0.00  0.00    +0.000 A 
ATOM     17  C   UNL     1      -3.453  11.456  16.133  0.00  0.00    +0.000 A 
ATOM     18  C   UNL     1      -2.070  11.331  16.379  0.00  0.00    +0.000 A 
ATOM     19  C   UNL     1      -1.734  11.010  17.703  0.00  0.00    +0.000 A 
ATOM     20  N   UNL     1      -0.665  11.311  18.540  0.00  0.00    +0.000 N 
ATOM     21  C   UNL     1      -3.778  12.189  20.121  0.00  0.00    +0.000 C 
ATOM     22  H   UNL     1      -5.099  14.916  25.156  0.00  0.00    +0.000 HD
ATOM     23  H   UNL     1      -3.405  14.913  25.454  0.00  0.00    +0.000 HD
ATOM     24  H   UNL     1      -6.903  13.318  21.836  0.00  0.00    +0.000 HD
ATOM     25  H   UNL     1      -6.182  13.163  20.331  0.00  0.00    +0.000 HD
ATOM     26  H   UNL     1      -0.637  13.613  22.456  0.00  0.00    +0.000 HD
ENDROOT
BRANCH  20  27
ATOM     27  C   UNL     1       0.745  11.027  18.247  0.00  0.00    +0.000 C 
BRANCH  27  28
ATOM     28  C   UNL     1       1.259   9.674  18.682  0.00  0.00    +0.000 A 
ATOM     29  C   UNL     1       1.994   8.875  17.792  0.00  0.00    +0.000 A 
ATOM     30  C   UNL     1       2.491   7.626  18.185  0.00  0.00    +0.000 A 
ATOM     31  C   UNL     1       2.256   7.161  19.475  0.00  0.00    +0.000 A 
ATOM     32 CL   UNL     1       2.823   5.608  19.949  0.00  0.00    +0.000 Cl
ATOM     33  C   UNL     1       1.573   7.954  20.388  0.00  0.00    +0.000 A 
ATOM     34  C   UNL     1       1.102   9.211  19.996  0.00  0.00    +0.000 A 
ENDBRANCH  27  28
ENDBRANCH  20  27
TORSDOF 2
ENDMDL
MODEL 9
REMARK VINA RESULT:      -7.1      3.055      4.854
REMARK  Name = 
REMARK  2 active torsions:
REMARK  status: ('A' for Active; 'I' for Inactive)
REMARK    1  A    between atoms: N_20  and  C_21
REMARK    2  A    between atoms: C_21  and  C_22
REMARK                            x       y       z     vdW  Elec       q    Type
REMARK                         _______ _______ _______ _____ _____    ______ ____
ROOT
ATOM      1  N   UNL     1      -4.471  10.783  14.608  0.00  0.00    +0.000 N 
ATOM      2  C   UNL     1      -3.760  10.816  15.788  0.00  0.00    +0.000 A 
ATOM      3  N   UNL     1      -4.291  11.540  16.755  0.00  0.00    +0.000 NA
ATOM      4  C   UNL     1      -3.624  11.576  17.898  0.00  0.00    +0.000 A 
ATOM      5  N   UNL     1      -4.234  12.347  18.897  0.00  0.00    +0.000 N 
ATOM      6  C   UNL     1      -2.398  10.932  18.108  0.00  0.00    +0.000 A 
ATOM      7  C   UNL     1      -1.927  10.208  17.036  0.00  0.00    +0.000 A 
ATOM      8  N   UNL     1      -2.596  10.161  15.871  0.00  0.00    +0.000 NA
ATOM      9  N   UNL     1      -0.762   9.422  17.003  0.00  0.00    +0.000 N 
ATOM     10  C   UNL     1       0.246   9.095  17.872  0.00  0.00    +0.000 C 
ATOM     11  O   UNL     1       1.113   8.317  17.466  0.00  0.00    +0.000 OA
ATOM     12  C   UNL     1       0.306   9.670  19.193  0.00  0.00    +0.000 A 
ATOM     13  C   UNL     1      -0.514  10.632  19.751  0.00  0.00    +0.000 A 
ATOM     14  C   UNL     1       0.107  11.093  20.961  0.00  0.00    +0.000 A 
ATOM     15  C   UNL     1      -0.443  11.960  21.933  0.00  0.00    +0.000 A 
ATOM     16  C   UNL     1      -1.249  11.283  22.837  0.00  0.00    +0.000 A 
ATOM     17  C   UNL     1      -0.823  10.035  23.271  0.00  0.00    +0.000 A 
ATOM     18  C   UNL     1       0.278   9.390  22.671  0.00  0.00    +0.000 A 
ATOM     19  C   UNL     1       0.626   9.877  21.401  0.00  0.00    +0.000 A 
ATOM     20  N   UNL     1       1.162   9.309  20.250  0.00  0.00    +0.000 N 
ATOM     21  C   UNL     1      -1.889  11.058  19.481  0.00  0.00    +0.000 C 
ATOM     22  H   UNL     1      -5.099  11.578  14.586  0.00  0.00    +0.000 HD
ATOM     23  H   UNL     1      -3.848  10.676  13.823  0.00  0.00    +0.000 HD
ATOM     24  H   UNL     1      -5.126  12.677  18.538  0.00  0.00    +0.000 HD
ATOM     25  H   UNL     1      -4.353  11.847  19.772  0.00  0.00    +0.000 HD
ATOM     26  H   UNL     1      -0.658   8.955  16.104  0.00  0.00    +0.000 HD
ENDROOT
BRANCH  20  27
ATOM     27  C   UNL     1       2.433   8.579  20.180  0.00  0.00    +0.000 C 
BRANCH  27  28
ATOM     28  C   UNL     1       2.334   7.080  20.009  0.00  0.00    +0.000 A 
ATOM     29  C   UNL     1       3.183   6.411  19.114  0.00  0.00    +0.000 A 
ATOM     30  C   UNL     1       3.115   5.022  18.956  0.00  0.00    +0.000 A 
ATOM     31  C   UNL     1       2.195   4.284  19.693  0.00  0.00    +0.000 A 
ATOM     32 CL   UNL     1       2.074   2.583  19.470  0.00  0.00    +0.000 Cl
ATOM     33  C   UNL     1       1.377   4.918  20.621  0.00  0.00    +0.000 A 
ATOM     34  C   UNL     1       1.469   6.303  20.791  0.00  0.00    +0.000 A 
ENDBRANCH  27  28
ENDBRANCH  20  27
TORSDOF 2
ENDMDL
