MODEL 1
REMARK VINA RESULT:      -7.7      0.000      0.000
REMARK  Name = 
REMARK  7 active torsions:
REMARK  status: ('A' for Active; 'I' for Inactive)
REMARK    1  A    between atoms: C_5  and  N_6
REMARK    2  A    between atoms: N_6  and  C_7
REMARK    3  A    between atoms: C_7  and  C_8
REMARK    4  A    between atoms: C_8  and  C_9
REMARK    5  A    between atoms: C_9  and  C_10
REMARK    6  A    between atoms: C_10  and  O_11
REMARK    7  A    between atoms: C_12  and  C_13
REMARK                            x       y       z     vdW  Elec       q    Type
REMARK                         _______ _______ _______ _____ _____    ______ ____
ROOT
ATOM      1  N   UNL     1       6.004   2.965  15.501  0.00  0.00    +0.000 N 
ATOM      2  C   UNL     1       6.417   4.195  15.824  0.00  0.00    +0.000 A 
ATOM      3  N   UNL     1       7.363   4.822  15.129  0.00  0.00    +0.000 NA
ATOM      4  N   UNL     1       7.476   5.999  15.754  0.00  0.00    +0.000 N 
ATOM      5  C   UNL     1       6.647   6.172  16.830  0.00  0.00    +0.000 A 
ATOM      6  C   UNL     1       5.905   4.997  16.883  0.00  0.00    +0.000 A 
ATOM      7  H   UNL     1       6.283   2.596  14.596  0.00  0.00    +0.000 HD
ATOM      8  H   UNL     1       5.121   2.620  15.866  0.00  0.00    +0.000 HD
ATOM      9  H   UNL     1       8.168   6.649  15.406  0.00  0.00    +0.000 HD
ENDROOT
BRANCH   6  10
ATOM     10  C   UNL     1       4.773   4.643  17.801  0.00  0.00    +0.000 A 
ATOM     11  N   UNL     1       3.809   3.827  17.415  0.00  0.00    +0.000 NA
ATOM     12  C   UNL     1       2.848   3.718  18.403  0.00  0.00    +0.000 A 
ATOM     13  C   UNL     1       1.675   2.931  18.338  0.00  0.00    +0.000 A 
ATOM     14  C   UNL     1       0.771   2.946  19.401  0.00  0.00    +0.000 A 
ATOM     15  C   UNL     1       1.010   3.732  20.524  0.00  0.00    +0.000 A 
ATOM     16  C   UNL     1       2.170   4.512  20.616  0.00  0.00    +0.000 A 
ATOM     17  C   UNL     1       3.079   4.480  19.548  0.00  0.00    +0.000 A 
ATOM     18  S   UNL     1       4.581   5.298  19.377  0.00  0.00    +0.000 S 
ENDBRANCH   6  10
BRANCH   5  19
ATOM     19  N   UNL     1       6.702   7.306  17.588  0.00  0.00    +0.000 N 
ATOM     20  H   UNL     1       5.955   7.999  17.521  0.00  0.00    +0.000 HD
BRANCH  19  21
ATOM     21  C   UNL     1       7.988   7.793  18.072  0.00  0.00    +0.000 C 
BRANCH  21  22
ATOM     22  C   UNL     1       8.179   9.287  17.827  0.00  0.00    +0.000 C 
BRANCH  22  23
ATOM     23  C   UNL     1       9.081   9.857  18.925  0.00  0.00    +0.000 C 
BRANCH  23  24
ATOM     24  C   UNL     1       9.459  11.309  18.687  0.00  0.00    +0.000 C 
BRANCH  24  25
ATOM     25  O   UNL     1      10.465  11.375  17.685  0.00  0.00    +0.000 OA
ATOM     26  H   UNL     1      10.443  10.540  17.185  0.00  0.00    +0.000 HD
ENDBRANCH  24  25
ENDBRANCH  23  24
ENDBRANCH  22  23
ENDBRANCH  21  22
ENDBRANCH  19  21
ENDBRANCH   5  19
TORSDOF 7
ENDMDL
MODEL 2
REMARK VINA RESULT:      -7.5      1.008      1.139
REMARK  Name = 
REMARK  7 active torsions:
REMARK  status: ('A' for Active; 'I' for Inactive)
REMARK    1  A    between atoms: C_5  and  N_6
REMARK    2  A    between atoms: N_6  and  C_7
REMARK    3  A    between atoms: C_7  and  C_8
REMARK    4  A    between atoms: C_8  and  C_9
REMARK    5  A    between atoms: C_9  and  C_10
REMARK    6  A    between atoms: C_10  and  O_11
REMARK    7  A    between atoms: C_12  and  C_13
REMARK                            x       y       z     vdW  Elec       q    Type
REMARK                         _______ _______ _______ _____ _____    ______ ____
ROOT
ATOM      1  N   UNL     1       5.950   3.057  15.768  0.00  0.00    +0.000 N 
ATOM      2  C   UNL     1       6.401   4.287  16.035  0.00  0.00    +0.000 A 
ATOM      3  N   UNL     1       7.328   4.873  15.282  0.00  0.00    +0.000 NA
ATOM      4  N   UNL     1       7.491   6.065  15.866  0.00  0.00    +0.000 N 
ATOM      5  C   UNL     1       6.713   6.287  16.971  0.00  0.00    +0.000 A 
ATOM      6  C   UNL     1       5.952   5.130  17.091  0.00  0.00    +0.000 A 
ATOM      7  H   UNL     1       6.181   2.656  14.863  0.00  0.00    +0.000 HD
ATOM      8  H   UNL     1       5.077   2.741  16.180  0.00  0.00    +0.000 HD
ATOM      9  H   UNL     1       8.180   6.690  15.470  0.00  0.00    +0.000 HD
ENDROOT
BRANCH   6  10
ATOM     10  C   UNL     1       4.854   4.827  18.067  0.00  0.00    +0.000 A 
ATOM     11  N   UNL     1       4.914   3.772  18.859  0.00  0.00    +0.000 NA
ATOM     12  C   UNL     1       3.756   3.665  19.606  0.00  0.00    +0.000 A 
ATOM     13  C   UNL     1       3.472   2.660  20.559  0.00  0.00    +0.000 A 
ATOM     14  C   UNL     1       2.240   2.656  21.216  0.00  0.00    +0.000 A 
ATOM     15  C   UNL     1       1.286   3.631  20.938  0.00  0.00    +0.000 A 
ATOM     16  C   UNL     1       1.549   4.642  20.006  0.00  0.00    +0.000 A 
ATOM     17  C   UNL     1       2.795   4.645  19.361  0.00  0.00    +0.000 A 
ATOM     18  S   UNL     1       3.413   5.752  18.200  0.00  0.00    +0.000 S 
ENDBRANCH   6  10
BRANCH   5  19
ATOM     19  N   UNL     1       6.824   7.441  17.692  0.00  0.00    +0.000 N 
ATOM     20  H   UNL     1       6.020   8.064  17.781  0.00  0.00    +0.000 HD
BRANCH  19  21
ATOM     21  C   UNL     1       8.134   8.052  17.886  0.00  0.00    +0.000 C 
BRANCH  21  22
ATOM     22  C   UNL     1       8.081   9.576  17.849  0.00  0.00    +0.000 C 
BRANCH  22  23
ATOM     23  C   UNL     1       9.083  10.131  18.863  0.00  0.00    +0.000 C 
BRANCH  23  24
ATOM     24  C   UNL     1       9.952  11.239  18.293  0.00  0.00    +0.000 C 
BRANCH  24  25
ATOM     25  O   UNL     1       9.122  12.278  17.791  0.00  0.00    +0.000 OA
ATOM     26  H   UNL     1       9.601  13.119  17.894  0.00  0.00    +0.000 HD
ENDBRANCH  24  25
ENDBRANCH  23  24
ENDBRANCH  22  23
ENDBRANCH  21  22
ENDBRANCH  19  21
ENDBRANCH   5  19
TORSDOF 7
ENDMDL
MODEL 3
REMARK VINA RESULT:      -7.4      3.483      5.031
REMARK  Name = 
REMARK  7 active torsions:
REMARK  status: ('A' for Active; 'I' for Inactive)
REMARK    1  A    between atoms: C_5  and  N_6
REMARK    2  A    between atoms: N_6  and  C_7
REMARK    3  A    between atoms: C_7  and  C_8
REMARK    4  A    between atoms: C_8  and  C_9
REMARK    5  A    between atoms: C_9  and  C_10
REMARK    6  A    between atoms: C_10  and  O_11
REMARK    7  A    between atoms: C_12  and  C_13
REMARK                            x       y       z     vdW  Elec       q    Type
REMARK                         _______ _______ _______ _____ _____    ______ ____
ROOT
ATOM      1  N   UNL     1       7.196   5.584  19.732  0.00  0.00    +0.000 N 
ATOM      2  C   UNL     1       7.044   5.789  18.419  0.00  0.00    +0.000 A 
ATOM      3  N   UNL     1       8.017   6.303  17.672  0.00  0.00    +0.000 NA
ATOM      4  N   UNL     1       7.481   6.336  16.447  0.00  0.00    +0.000 N 
ATOM      5  C   UNL     1       6.198   5.867  16.357  0.00  0.00    +0.000 A 
ATOM      6  C   UNL     1       5.889   5.465  17.651  0.00  0.00    +0.000 A 
ATOM      7  H   UNL     1       8.136   5.643  20.112  0.00  0.00    +0.000 HD
ATOM      8  H   UNL     1       6.560   4.961  20.220  0.00  0.00    +0.000 HD
ATOM      9  H   UNL     1       8.044   6.720  15.700  0.00  0.00    +0.000 HD
ENDROOT
BRANCH   6  10
ATOM     10  C   UNL     1       4.649   4.786  18.152  0.00  0.00    +0.000 A 
ATOM     11  N   UNL     1       4.004   5.235  19.213  0.00  0.00    +0.000 NA
ATOM     12  C   UNL     1       2.945   4.400  19.521  0.00  0.00    +0.000 A 
ATOM     13  C   UNL     1       2.036   4.571  20.590  0.00  0.00    +0.000 A 
ATOM     14  C   UNL     1       1.033   3.625  20.804  0.00  0.00    +0.000 A 
ATOM     15  C   UNL     1       0.920   2.512  19.976  0.00  0.00    +0.000 A 
ATOM     16  C   UNL     1       1.802   2.327  18.904  0.00  0.00    +0.000 A 
ATOM     17  C   UNL     1       2.798   3.290  18.689  0.00  0.00    +0.000 A 
ATOM     18  S   UNL     1       4.000   3.354  17.461  0.00  0.00    +0.000 S 
ENDBRANCH   6  10
BRANCH   5  19
ATOM     19  N   UNL     1       5.516   5.899  15.175  0.00  0.00    +0.000 N 
ATOM     20  H   UNL     1       4.872   6.666  14.979  0.00  0.00    +0.000 HD
BRANCH  19  21
ATOM     21  C   UNL     1       5.283   4.662  14.439  0.00  0.00    +0.000 C 
BRANCH  21  22
ATOM     22  C   UNL     1       6.571   4.049  13.898  0.00  0.00    +0.000 C 
BRANCH  22  23
ATOM     23  C   UNL     1       6.436   3.871  12.384  0.00  0.00    +0.000 C 
BRANCH  23  24
ATOM     24  C   UNL     1       5.502   2.736  12.001  0.00  0.00    +0.000 C 
BRANCH  24  25
ATOM     25  O   UNL     1       4.343   3.272  11.376  0.00  0.00    +0.000 OA
ATOM     26  H   UNL     1       4.590   3.546  10.475  0.00  0.00    +0.000 HD
ENDBRANCH  24  25
ENDBRANCH  23  24
ENDBRANCH  22  23
ENDBRANCH  21  22
ENDBRANCH  19  21
ENDBRANCH   5  19
TORSDOF 7
ENDMDL
MODEL 4
REMARK VINA RESULT:      -7.4      2.777      4.172
REMARK  Name = 
REMARK  7 active torsions:
REMARK  status: ('A' for Active; 'I' for Inactive)
REMARK    1  A    between atoms: C_5  and  N_6
REMARK    2  A    between atoms: N_6  and  C_7
REMARK    3  A    between atoms: C_7  and  C_8
REMARK    4  A    between atoms: C_8  and  C_9
REMARK    5  A    between atoms: C_9  and  C_10
REMARK    6  A    between atoms: C_10  and  O_11
REMARK    7  A    between atoms: C_12  and  C_13
REMARK                            x       y       z     vdW  Elec       q    Type
REMARK                         _______ _______ _______ _____ _____    ______ ____
ROOT
ATOM      1  N   UNL     1       7.542   5.624  19.994  0.00  0.00    +0.000 N 
ATOM      2  C   UNL     1       7.309   5.955  18.720  0.00  0.00    +0.000 A 
ATOM      3  N   UNL     1       8.232   6.553  17.971  0.00  0.00    +0.000 NA
ATOM      4  N   UNL     1       7.624   6.700  16.789  0.00  0.00    +0.000 N 
ATOM      5  C   UNL     1       6.340   6.226  16.730  0.00  0.00    +0.000 A 
ATOM      6  C   UNL     1       6.112   5.694  17.994  0.00  0.00    +0.000 A 
ATOM      7  H   UNL     1       8.503   5.657  20.322  0.00  0.00    +0.000 HD
ATOM      8  H   UNL     1       6.941   4.948  20.455  0.00  0.00    +0.000 HD
ATOM      9  H   UNL     1       8.138   7.162  16.052  0.00  0.00    +0.000 HD
ENDROOT
BRANCH   6  10
ATOM     10  C   UNL     1       4.909   4.953  18.498  0.00  0.00    +0.000 A 
ATOM     11  N   UNL     1       4.010   5.547  19.260  0.00  0.00    +0.000 NA
ATOM     12  C   UNL     1       3.043   4.642  19.657  0.00  0.00    +0.000 A 
ATOM     13  C   UNL     1       1.926   4.926  20.477  0.00  0.00    +0.000 A 
ATOM     14  C   UNL     1       1.048   3.900  20.829  0.00  0.00    +0.000 A 
ATOM     15  C   UNL     1       1.262   2.599  20.383  0.00  0.00    +0.000 A 
ATOM     16  C   UNL     1       2.355   2.296  19.562  0.00  0.00    +0.000 A 
ATOM     17  C   UNL     1       3.225   3.336  19.203  0.00  0.00    +0.000 A 
ATOM     18  S   UNL     1       4.623   3.286  18.203  0.00  0.00    +0.000 S 
ENDBRANCH   6  10
BRANCH   5  19
ATOM     19  N   UNL     1       5.589   6.365  15.599  0.00  0.00    +0.000 N 
ATOM     20  H   UNL     1       5.025   7.205  15.463  0.00  0.00    +0.000 HD
BRANCH  19  21
ATOM     21  C   UNL     1       5.165   5.182  14.859  0.00  0.00    +0.000 C 
BRANCH  21  22
ATOM     22  C   UNL     1       6.258   4.121  14.773  0.00  0.00    +0.000 C 
BRANCH  22  23
ATOM     23  C   UNL     1       6.657   3.940  13.306  0.00  0.00    +0.000 C 
BRANCH  23  24
ATOM     24  C   UNL     1       7.535   5.065  12.787  0.00  0.00    +0.000 C 
BRANCH  24  25
ATOM     25  O   UNL     1       8.211   5.677  13.878  0.00  0.00    +0.000 OA
ATOM     26  H   UNL     1       9.080   5.248  13.967  0.00  0.00    +0.000 HD
ENDBRANCH  24  25
ENDBRANCH  23  24
ENDBRANCH  22  23
ENDBRANCH  21  22
ENDBRANCH  19  21
ENDBRANCH   5  19
TORSDOF 7
ENDMDL
MODEL 5
REMARK VINA RESULT:      -7.3      3.725      5.790
REMARK  Name = 
REMARK  7 active torsions:
REMARK  status: ('A' for Active; 'I' for Inactive)
REMARK    1  A    between atoms: C_5  and  N_6
REMARK    2  A    between atoms: N_6  and  C_7
REMARK    3  A    between atoms: C_7  and  C_8
REMARK    4  A    between atoms: C_8  and  C_9
REMARK    5  A    between atoms: C_9  and  C_10
REMARK    6  A    between atoms: C_10  and  O_11
REMARK    7  A    between atoms: C_12  and  C_13
REMARK                            x       y       z     vdW  Elec       q    Type
REMARK                         _______ _______ _______ _____ _____    ______ ____
ROOT
ATOM      1  N   UNL     1       6.605   6.843  18.108  0.00  0.00    +0.000 N 
ATOM      2  C   UNL     1       6.675   6.053  17.030  0.00  0.00    +0.000 A 
ATOM      3  N   UNL     1       7.686   6.130  16.170  0.00  0.00    +0.000 NA
ATOM      4  N   UNL     1       7.392   5.192  15.263  0.00  0.00    +0.000 N 
ATOM      5  C   UNL     1       6.231   4.503  15.491  0.00  0.00    +0.000 A 
ATOM      6  C   UNL     1       5.745   5.033  16.680  0.00  0.00    +0.000 A 
ATOM      7  H   UNL     1       7.438   7.365  18.365  0.00  0.00    +0.000 HD
ATOM      8  H   UNL     1       5.986   6.594  18.873  0.00  0.00    +0.000 HD
ATOM      9  H   UNL     1       8.024   5.081  14.482  0.00  0.00    +0.000 HD
ENDROOT
BRANCH   6  10
ATOM     10  C   UNL     1       4.545   4.612  17.475  0.00  0.00    +0.000 A 
ATOM     11  N   UNL     1       4.309   5.111  18.675  0.00  0.00    +0.000 NA
ATOM     12  C   UNL     1       3.195   4.513  19.233  0.00  0.00    +0.000 A 
ATOM     13  C   UNL     1       2.648   4.800  20.505  0.00  0.00    +0.000 A 
ATOM     14  C   UNL     1       1.535   4.088  20.957  0.00  0.00    +0.000 A 
ATOM     15  C   UNL     1       0.961   3.095  20.168  0.00  0.00    +0.000 A 
ATOM     16  C   UNL     1       1.478   2.801  18.901  0.00  0.00    +0.000 A 
ATOM     17  C   UNL     1       2.588   3.531  18.450  0.00  0.00    +0.000 A 
ATOM     18  S   UNL     1       3.426   3.419  16.953  0.00  0.00    +0.000 S 
ENDBRANCH   6  10
BRANCH   5  19
ATOM     19  N   UNL     1       5.788   3.557  14.611  0.00  0.00    +0.000 N 
ATOM     20  H   UNL     1       6.045   2.578  14.745  0.00  0.00    +0.000 HD
BRANCH  19  21
ATOM     21  C   UNL     1       5.420   3.944  13.254  0.00  0.00    +0.000 C 
BRANCH  21  22
ATOM     22  C   UNL     1       6.313   3.301  12.199  0.00  0.00    +0.000 C 
BRANCH  22  23
ATOM     23  C   UNL     1       5.580   2.101  11.595  0.00  0.00    +0.000 C 
BRANCH  23  24
ATOM     24  C   UNL     1       6.518   1.104  10.935  0.00  0.00    +0.000 C 
BRANCH  24  25
ATOM     25  O   UNL     1       6.229  -0.203  11.414  0.00  0.00    +0.000 OA
ATOM     26  H   UNL     1       5.573  -0.601  10.815  0.00  0.00    +0.000 HD
ENDBRANCH  24  25
ENDBRANCH  23  24
ENDBRANCH  22  23
ENDBRANCH  21  22
ENDBRANCH  19  21
ENDBRANCH   5  19
TORSDOF 7
ENDMDL
MODEL 6
REMARK VINA RESULT:      -7.3      3.757      5.171
REMARK  Name = 
REMARK  7 active torsions:
REMARK  status: ('A' for Active; 'I' for Inactive)
REMARK    1  A    between atoms: C_5  and  N_6
REMARK    2  A    between atoms: N_6  and  C_7
REMARK    3  A    between atoms: C_7  and  C_8
REMARK    4  A    between atoms: C_8  and  C_9
REMARK    5  A    between atoms: C_9  and  C_10
REMARK    6  A    between atoms: C_10  and  O_11
REMARK    7  A    between atoms: C_12  and  C_13
REMARK                            x       y       z     vdW  Elec       q    Type
REMARK                         _______ _______ _______ _____ _____    ______ ____
ROOT
ATOM      1  N   UNL     1       1.942   3.421  18.787  0.00  0.00    +0.000 N 
ATOM      2  C   UNL     1       3.257   3.615  18.932  0.00  0.00    +0.000 A 
ATOM      3  N   UNL     1       4.120   2.602  18.932  0.00  0.00    +0.000 NA
ATOM      4  N   UNL     1       5.303   3.205  19.089  0.00  0.00    +0.000 N 
ATOM      5  C   UNL     1       5.256   4.569  19.193  0.00  0.00    +0.000 A 
ATOM      6  C   UNL     1       3.906   4.876  19.060  0.00  0.00    +0.000 A 
ATOM      7  H   UNL     1       1.632   2.504  18.477  0.00  0.00    +0.000 HD
ATOM      8  H   UNL     1       1.345   4.200  18.527  0.00  0.00    +0.000 HD
ATOM      9  H   UNL     1       6.124   2.617  19.142  0.00  0.00    +0.000 HD
ENDROOT
BRANCH   6  10
ATOM     10  C   UNL     1       3.251   6.224  19.003  0.00  0.00    +0.000 A 
ATOM     11  N   UNL     1       2.484   6.655  19.988  0.00  0.00    +0.000 NA
ATOM     12  C   UNL     1       1.937   7.884  19.669  0.00  0.00    +0.000 A 
ATOM     13  C   UNL     1       1.069   8.644  20.487  0.00  0.00    +0.000 A 
ATOM     14  C   UNL     1       0.562   9.857  20.018  0.00  0.00    +0.000 A 
ATOM     15  C   UNL     1       0.900  10.324  18.751  0.00  0.00    +0.000 A 
ATOM     16  C   UNL     1       1.765   9.594  17.928  0.00  0.00    +0.000 A 
ATOM     17  C   UNL     1       2.281   8.383  18.413  0.00  0.00    +0.000 A 
ATOM     18  S   UNL     1       3.368   7.286  17.659  0.00  0.00    +0.000 S 
ENDBRANCH   6  10
BRANCH   5  19
ATOM     19  N   UNL     1       6.387   5.300  19.413  0.00  0.00    +0.000 N 
ATOM     20  H   UNL     1       6.357   6.110  20.035  0.00  0.00    +0.000 HD
BRANCH  19  21
ATOM     21  C   UNL     1       7.461   5.289  18.427  0.00  0.00    +0.000 C 
BRANCH  21  22
ATOM     22  C   UNL     1       7.255   6.321  17.322  0.00  0.00    +0.000 C 
BRANCH  22  23
ATOM     23  C   UNL     1       6.460   5.676  16.185  0.00  0.00    +0.000 C 
BRANCH  23  24
ATOM     24  C   UNL     1       6.903   4.255  15.883  0.00  0.00    +0.000 C 
BRANCH  24  25
ATOM     25  O   UNL     1       5.829   3.361  16.143  0.00  0.00    +0.000 OA
ATOM     26  H   UNL     1       6.048   2.505  15.735  0.00  0.00    +0.000 HD
ENDBRANCH  24  25
ENDBRANCH  23  24
ENDBRANCH  22  23
ENDBRANCH  21  22
ENDBRANCH  19  21
ENDBRANCH   5  19
TORSDOF 7
ENDMDL
MODEL 7
REMARK VINA RESULT:      -7.2      3.859      5.398
REMARK  Name = 
REMARK  7 active torsions:
REMARK  status: ('A' for Active; 'I' for Inactive)
REMARK    1  A    between atoms: C_5  and  N_6
REMARK    2  A    between atoms: N_6  and  C_7
REMARK    3  A    between atoms: C_7  and  C_8
REMARK    4  A    between atoms: C_8  and  C_9
REMARK    5  A    between atoms: C_9  and  C_10
REMARK    6  A    between atoms: C_10  and  O_11
REMARK    7  A    between atoms: C_12  and  C_13
REMARK                            x       y       z     vdW  Elec       q    Type
REMARK                         _______ _______ _______ _____ _____    ______ ____
ROOT
ATOM      1  N   UNL     1       7.392   5.284  19.447  0.00  0.00    +0.000 N 
ATOM      2  C   UNL     1       7.222   4.866  18.188  0.00  0.00    +0.000 A 
ATOM      3  N   UNL     1       8.219   4.869  17.308  0.00  0.00    +0.000 NA
ATOM      4  N   UNL     1       7.653   4.380  16.199  0.00  0.00    +0.000 N 
ATOM      5  C   UNL     1       6.327   4.057  16.313  0.00  0.00    +0.000 A 
ATOM      6  C   UNL     1       6.018   4.340  17.639  0.00  0.00    +0.000 A 
ATOM      7  H   UNL     1       8.345   5.418  19.775  0.00  0.00    +0.000 HD
ATOM      8  H   UNL     1       6.713   5.030  20.157  0.00  0.00    +0.000 HD
ATOM      9  H   UNL     1       8.228   4.311  15.371  0.00  0.00    +0.000 HD
ENDROOT
BRANCH   6  10
ATOM     10  C   UNL     1       4.732   4.104  18.374  0.00  0.00    +0.000 A 
ATOM     11  N   UNL     1       4.717   3.510  19.553  0.00  0.00    +0.000 NA
ATOM     12  C   UNL     1       3.416   3.339  19.988  0.00  0.00    +0.000 A 
ATOM     13  C   UNL     1       3.020   2.742  21.207  0.00  0.00    +0.000 A 
ATOM     14  C   UNL     1       1.662   2.602  21.500  0.00  0.00    +0.000 A 
ATOM     15  C   UNL     1       0.694   3.043  20.602  0.00  0.00    +0.000 A 
ATOM     16  C   UNL     1       1.063   3.647  19.394  0.00  0.00    +0.000 A 
ATOM     17  C   UNL     1       2.429   3.795  19.115  0.00  0.00    +0.000 A 
ATOM     18  S   UNL     1       3.186   4.506  17.745  0.00  0.00    +0.000 S 
ENDBRANCH   6  10
BRANCH   5  19
ATOM     19  N   UNL     1       5.617   3.601  15.240  0.00  0.00    +0.000 N 
ATOM     20  H   UNL     1       5.415   2.604  15.151  0.00  0.00    +0.000 HD
BRANCH  19  21
ATOM     21  C   UNL     1       5.595   4.373  14.003  0.00  0.00    +0.000 C 
BRANCH  21  22
ATOM     22  C   UNL     1       6.350   3.687  12.870  0.00  0.00    +0.000 C 
BRANCH  22  23
ATOM     23  C   UNL     1       5.366   2.839  12.061  0.00  0.00    +0.000 C 
BRANCH  23  24
ATOM     24  C   UNL     1       4.383   3.674  11.259  0.00  0.00    +0.000 C 
BRANCH  24  25
ATOM     25  O   UNL     1       3.270   2.869  10.894  0.00  0.00    +0.000 OA
ATOM     26  H   UNL     1       2.678   2.811  11.665  0.00  0.00    +0.000 HD
ENDBRANCH  24  25
ENDBRANCH  23  24
ENDBRANCH  22  23
ENDBRANCH  21  22
ENDBRANCH  19  21
ENDBRANCH   5  19
TORSDOF 7
ENDMDL
MODEL 8
REMARK VINA RESULT:      -7.2      4.096      6.266
REMARK  Name = 
REMARK  7 active torsions:
REMARK  status: ('A' for Active; 'I' for Inactive)
REMARK    1  A    between atoms: C_5  and  N_6
REMARK    2  A    between atoms: N_6  and  C_7
REMARK    3  A    between atoms: C_7  and  C_8
REMARK    4  A    between atoms: C_8  and  C_9
REMARK    5  A    between atoms: C_9  and  C_10
REMARK    6  A    between atoms: C_10  and  O_11
REMARK    7  A    between atoms: C_12  and  C_13
REMARK                            x       y       z     vdW  Elec       q    Type
REMARK                         _______ _______ _______ _____ _____    ______ ____
ROOT
ATOM      1  N   UNL     1       5.610   6.798  15.637  0.00  0.00    +0.000 N 
ATOM      2  C   UNL     1       5.436   5.580  16.160  0.00  0.00    +0.000 A 
ATOM      3  N   UNL     1       6.179   4.542  15.783  0.00  0.00    +0.000 NA
ATOM      4  N   UNL     1       5.708   3.538  16.530  0.00  0.00    +0.000 N 
ATOM      5  C   UNL     1       4.687   3.870  17.380  0.00  0.00    +0.000 A 
ATOM      6  C   UNL     1       4.504   5.233  17.179  0.00  0.00    +0.000 A 
ATOM      7  H   UNL     1       6.452   6.961  15.092  0.00  0.00    +0.000 HD
ATOM      8  H   UNL     1       5.230   7.609  16.115  0.00  0.00    +0.000 HD
ATOM      9  H   UNL     1       6.116   2.623  16.395  0.00  0.00    +0.000 HD
ENDROOT
BRANCH   6  10
ATOM     10  C   UNL     1       3.581   6.172  17.898  0.00  0.00    +0.000 A 
ATOM     11  N   UNL     1       3.104   7.251  17.304  0.00  0.00    +0.000 NA
ATOM     12  C   UNL     1       2.344   7.991  18.190  0.00  0.00    +0.000 A 
ATOM     13  C   UNL     1       1.678   9.205  17.901  0.00  0.00    +0.000 A 
ATOM     14  C   UNL     1       0.974   9.865  18.910  0.00  0.00    +0.000 A 
ATOM     15  C   UNL     1       0.925   9.343  20.199  0.00  0.00    +0.000 A 
ATOM     16  C   UNL     1       1.568   8.137  20.506  0.00  0.00    +0.000 A 
ATOM     17  C   UNL     1       2.261   7.474  19.483  0.00  0.00    +0.000 A 
ATOM     18  S   UNL     1       3.120   5.987  19.541  0.00  0.00    +0.000 S 
ENDBRANCH   6  10
BRANCH   5  19
ATOM     19  N   UNL     1       4.079   2.926  18.156  0.00  0.00    +0.000 N 
ATOM     20  H   UNL     1       4.640   2.204  18.611  0.00  0.00    +0.000 HD
BRANCH  19  21
ATOM     21  C   UNL     1       2.673   2.605  17.941  0.00  0.00    +0.000 C 
BRANCH  21  22
ATOM     22  C   UNL     1       2.054   1.864  19.122  0.00  0.00    +0.000 C 
BRANCH  22  23
ATOM     23  C   UNL     1       1.109   2.813  19.862  0.00  0.00    +0.000 C 
BRANCH  23  24
ATOM     24  C   UNL     1       1.679   3.311  21.179  0.00  0.00    +0.000 C 
BRANCH  24  25
ATOM     25  O   UNL     1       1.466   2.329  22.185  0.00  0.00    +0.000 OA
ATOM     26  H   UNL     1       0.592   1.928  22.029  0.00  0.00    +0.000 HD
ENDBRANCH  24  25
ENDBRANCH  23  24
ENDBRANCH  22  23
ENDBRANCH  21  22
ENDBRANCH  19  21
ENDBRANCH   5  19
TORSDOF 7
ENDMDL
MODEL 9
REMARK VINA RESULT:      -7.1      3.292      4.836
REMARK  Name = 
REMARK  7 active torsions:
REMARK  status: ('A' for Active; 'I' for Inactive)
REMARK    1  A    between atoms: C_5  and  N_6
REMARK    2  A    between atoms: N_6  and  C_7
REMARK    3  A    between atoms: C_7  and  C_8
REMARK    4  A    between atoms: C_8  and  C_9
REMARK    5  A    between atoms: C_9  and  C_10
REMARK    6  A    between atoms: C_10  and  O_11
REMARK    7  A    between atoms: C_12  and  C_13
REMARK                            x       y       z     vdW  Elec       q    Type
REMARK                         _______ _______ _______ _____ _____    ______ ____
ROOT
ATOM      1  N   UNL     1       1.827   3.423  21.251  0.00  0.00    +0.000 N 
ATOM      2  C   UNL     1       2.995   3.292  20.613  0.00  0.00    +0.000 A 
ATOM      3  N   UNL     1       3.678   2.150  20.629  0.00  0.00    +0.000 NA
ATOM      4  N   UNL     1       4.755   2.425  19.885  0.00  0.00    +0.000 N 
ATOM      5  C   UNL     1       4.809   3.698  19.382  0.00  0.00    +0.000 A 
ATOM      6  C   UNL     1       3.632   4.291  19.825  0.00  0.00    +0.000 A 
ATOM      7  H   UNL     1       1.373   2.576  21.583  0.00  0.00    +0.000 HD
ATOM      8  H   UNL     1       1.207   4.191  21.013  0.00  0.00    +0.000 HD
ATOM      9  H   UNL     1       5.445   1.695  19.772  0.00  0.00    +0.000 HD
ENDROOT
BRANCH   6  10
ATOM     10  C   UNL     1       3.095   5.657  19.514  0.00  0.00    +0.000 A 
ATOM     11  N   UNL     1       2.408   6.342  20.409  0.00  0.00    +0.000 NA
ATOM     12  C   UNL     1       1.957   7.530  19.864  0.00  0.00    +0.000 A 
ATOM     13  C   UNL     1       1.191   8.513  20.532  0.00  0.00    +0.000 A 
ATOM     14  C   UNL     1       0.773   9.652  19.842  0.00  0.00    +0.000 A 
ATOM     15  C   UNL     1       1.101   9.828  18.500  0.00  0.00    +0.000 A 
ATOM     16  C   UNL     1       1.868   8.873  17.821  0.00  0.00    +0.000 A 
ATOM     17  C   UNL     1       2.294   7.738  18.527  0.00  0.00    +0.000 A 
ATOM     18  S   UNL     1       3.252   6.419  17.983  0.00  0.00    +0.000 S 
ENDBRANCH   6  10
BRANCH   5  19
ATOM     19  N   UNL     1       5.882   4.124  18.654  0.00  0.00    +0.000 N 
ATOM     20  H   UNL     1       6.401   3.460  18.077  0.00  0.00    +0.000 HD
BRANCH  19  21
ATOM     21  C   UNL     1       6.606   5.322  19.061  0.00  0.00    +0.000 C 
BRANCH  21  22
ATOM     22  C   UNL     1       7.728   5.687  18.093  0.00  0.00    +0.000 C 
BRANCH  22  23
ATOM     23  C   UNL     1       7.291   6.896  17.263  0.00  0.00    +0.000 C 
BRANCH  23  24
ATOM     24  C   UNL     1       7.806   8.213  17.817  0.00  0.00    +0.000 C 
BRANCH  24  25
ATOM     25  O   UNL     1       8.725   7.953  18.871  0.00  0.00    +0.000 OA
ATOM     26  H   UNL     1       8.225   7.574  19.615  0.00  0.00    +0.000 HD
ENDBRANCH  24  25
ENDBRANCH  23  24
ENDBRANCH  22  23
ENDBRANCH  21  22
ENDBRANCH  19  21
ENDBRANCH   5  19
TORSDOF 7
ENDMDL
