MODEL 1
REMARK VINA RESULT:      -8.2      0.000      0.000
REMARK  Name = 
REMARK  6 active torsions:
REMARK  status: ('A' for Active; 'I' for Inactive)
REMARK    1  A    between atoms: C_4  and  N_5
REMARK    2  A    between atoms: C_7  and  C_8
REMARK    3  A    between atoms: C_11  and  O_12
REMARK    4  A    between atoms: O_12  and  C_13
REMARK    5  A    between atoms: C_13  and  C_14
REMARK    6  A    between atoms: C_22  and  C_23
REMARK                            x       y       z     vdW  Elec       q    Type
REMARK                         _______ _______ _______ _____ _____    ______ ____
ROOT
ATOM      1  N   UNL     1       3.753   5.309  18.537  0.00  0.00    +0.000 N 
ATOM      2  N   UNL     1       2.632   6.052  18.792  0.00  0.00    +0.000 NA
ATOM      3  C   UNL     1       2.899   7.313  18.616  0.00  0.00    +0.000 C 
ATOM      4  C   UNL     1       4.333   7.557  18.161  0.00  0.00    +0.000 C 
ATOM      5  C   UNL     1       4.989   6.146  18.326  0.00  0.00    +0.000 C 
ENDROOT
BRANCH   5   6
ATOM      6  C   UNL     1       5.929   5.735  17.162  0.00  0.00    +0.000 A 
ATOM      7  C   UNL     1       7.301   5.843  17.217  0.00  0.00    +0.000 A 
ATOM      8  N   UNL     1       7.664   6.165  15.956  0.00  0.00    +0.000 N 
ATOM      9  C   UNL     1       6.937   5.344  15.132  0.00  0.00    +0.000 A 
ATOM     10  C   UNL     1       7.235   4.871  13.850  0.00  0.00    +0.000 A 
ATOM     11  C   UNL     1       6.311   4.011  13.275  0.00  0.00    +0.000 A 
ATOM     12  C   UNL     1       5.105   3.748  13.916  0.00  0.00    +0.000 A 
ATOM     13  C   UNL     1       4.785   4.321  15.178  0.00  0.00    +0.000 A 
ATOM     14  C   UNL     1       5.755   5.097  15.854  0.00  0.00    +0.000 A 
ATOM     15  H   UNL     1       8.028   7.064  15.644  0.00  0.00    +0.000 HD
ENDBRANCH   5   6
BRANCH   1  19
ATOM     16  C   UNL     1       3.507   1.068  18.764  0.00  0.00    +0.000 A 
ATOM     17  C   UNL     1       4.434   1.777  19.511  0.00  0.00    +0.000 A 
ATOM     18  C   UNL     1       4.507   3.162  19.409  0.00  0.00    +0.000 A 
ATOM     19  C   UNL     1       3.649   3.927  18.569  0.00  0.00    +0.000 A 
ATOM     20  C   UNL     1       2.740   3.190  17.804  0.00  0.00    +0.000 A 
ATOM     21  C   UNL     1       2.657   1.792  17.897  0.00  0.00    +0.000 A 
ENDBRANCH   1  19
BRANCH   3  22
ATOM     22  C   UNL     1       1.836   8.372  18.809  0.00  0.00    +0.000 A 
ATOM     23  C   UNL     1       1.334   8.603  20.098  0.00  0.00    +0.000 A 
ATOM     24  C   UNL     1       0.309   9.557  20.340  0.00  0.00    +0.000 A 
ATOM     25  C   UNL     1      -0.231  10.316  19.302  0.00  0.00    +0.000 A 
ATOM     26  C   UNL     1       0.261  10.096  18.012  0.00  0.00    +0.000 A 
ATOM     27  C   UNL     1       1.285   9.131  17.766  0.00  0.00    +0.000 A 
BRANCH  25  28
ATOM     28  O   UNL     1      -1.246  11.170  19.667  0.00  0.00    +0.000 OA
BRANCH  28  29
ATOM     29  C   UNL     1      -1.732  12.107  18.708  0.00  0.00    +0.000 C 
BRANCH  29  30
ATOM     30  C   UNL     1      -3.032  11.726  17.998  0.00  0.00    +0.000 C 
ATOM     31  N   UNL     1      -4.196  11.753  18.569  0.00  0.00    +0.000 NA
ATOM     32  C   UNL     1      -5.103  11.202  17.556  0.00  0.00    +0.000 C 
ATOM     33  C   UNL     1      -4.286  11.100  16.295  0.00  0.00    +0.000 C 
ATOM     34  O   UNL     1      -2.943  11.280  16.724  0.00  0.00    +0.000 OA
ENDBRANCH  29  30
ENDBRANCH  28  29
ENDBRANCH  25  28
ENDBRANCH   3  22
TORSDOF 6
ENDMDL
MODEL 2
REMARK VINA RESULT:      -8.1      3.389     10.455
REMARK  Name = 
REMARK  6 active torsions:
REMARK  status: ('A' for Active; 'I' for Inactive)
REMARK    1  A    between atoms: C_4  and  N_5
REMARK    2  A    between atoms: C_7  and  C_8
REMARK    3  A    between atoms: C_11  and  O_12
REMARK    4  A    between atoms: O_12  and  C_13
REMARK    5  A    between atoms: C_13  and  C_14
REMARK    6  A    between atoms: C_22  and  C_23
REMARK                            x       y       z     vdW  Elec       q    Type
REMARK                         _______ _______ _______ _____ _____    ______ ____
ROOT
ATOM      1  N   UNL     1      -0.748  10.955  18.164  0.00  0.00    +0.000 N 
ATOM      2  N   UNL     1      -0.167   9.718  18.091  0.00  0.00    +0.000 NA
ATOM      3  C   UNL     1       0.997   9.752  18.672  0.00  0.00    +0.000 C 
ATOM      4  C   UNL     1       1.324  11.116  19.264  0.00  0.00    +0.000 C 
ATOM      5  C   UNL     1       0.175  12.018  18.702  0.00  0.00    +0.000 C 
ENDROOT
BRANCH   5   6
ATOM      6  C   UNL     1      -0.420  13.016  19.730  0.00  0.00    +0.000 A 
ATOM      7  C   UNL     1      -0.625  14.352  19.464  0.00  0.00    +0.000 A 
ATOM      8  N   UNL     1      -0.375  14.971  20.638  0.00  0.00    +0.000 N 
ATOM      9  C   UNL     1      -0.998  14.221  21.602  0.00  0.00    +0.000 A 
ATOM     10  C   UNL     1      -1.508  14.606  22.847  0.00  0.00    +0.000 A 
ATOM     11  C   UNL     1      -2.128  13.618  23.596  0.00  0.00    +0.000 A 
ATOM     12  C   UNL     1      -2.122  12.298  23.158  0.00  0.00    +0.000 A 
ATOM     13  C   UNL     1      -1.510  11.916  21.932  0.00  0.00    +0.000 A 
ATOM     14  C   UNL     1      -0.983  12.914  21.079  0.00  0.00    +0.000 A 
ATOM     15  H   UNL     1       0.423  15.569  20.847  0.00  0.00    +0.000 HD
ENDBRANCH   5   6
BRANCH   1  19
ATOM     16  C   UNL     1      -4.755  11.489  16.838  0.00  0.00    +0.000 A 
ATOM     17  C   UNL     1      -4.404  11.682  18.164  0.00  0.00    +0.000 A 
ATOM     18  C   UNL     1      -3.090  11.486  18.578  0.00  0.00    +0.000 A 
ATOM     19  C   UNL     1      -2.044  11.103  17.692  0.00  0.00    +0.000 A 
ATOM     20  C   UNL     1      -2.425  10.886  16.365  0.00  0.00    +0.000 A 
ATOM     21  C   UNL     1      -3.748  11.079  15.934  0.00  0.00    +0.000 A 
ENDBRANCH   1  19
BRANCH   3  22
ATOM     22  C   UNL     1       1.862   8.514  18.761  0.00  0.00    +0.000 A 
ATOM     23  C   UNL     1       2.695   8.188  17.679  0.00  0.00    +0.000 A 
ATOM     24  C   UNL     1       3.504   7.021  17.684  0.00  0.00    +0.000 A 
ATOM     25  C   UNL     1       3.514   6.155  18.778  0.00  0.00    +0.000 A 
ATOM     26  C   UNL     1       2.689   6.468  19.863  0.00  0.00    +0.000 A 
ATOM     27  C   UNL     1       1.868   7.637  19.855  0.00  0.00    +0.000 A 
BRANCH  25  28
ATOM     28  O   UNL     1       4.308   5.040  18.635  0.00  0.00    +0.000 OA
BRANCH  28  29
ATOM     29  C   UNL     1       5.698   5.218  18.367  0.00  0.00    +0.000 C 
BRANCH  29  30
ATOM     30  C   UNL     1       6.158   4.870  16.951  0.00  0.00    +0.000 C 
ATOM     31  N   UNL     1       7.198   5.399  16.385  0.00  0.00    +0.000 NA
ATOM     32  C   UNL     1       7.172   4.863  15.019  0.00  0.00    +0.000 C 
ATOM     33  C   UNL     1       6.105   3.800  15.023  0.00  0.00    +0.000 C 
ATOM     34  O   UNL     1       5.396   4.010  16.238  0.00  0.00    +0.000 OA
ENDBRANCH  29  30
ENDBRANCH  28  29
ENDBRANCH  25  28
ENDBRANCH   3  22
TORSDOF 6
ENDMDL
MODEL 3
REMARK VINA RESULT:      -8.1      3.484     10.530
REMARK  Name = 
REMARK  6 active torsions:
REMARK  status: ('A' for Active; 'I' for Inactive)
REMARK    1  A    between atoms: C_4  and  N_5
REMARK    2  A    between atoms: C_7  and  C_8
REMARK    3  A    between atoms: C_11  and  O_12
REMARK    4  A    between atoms: O_12  and  C_13
REMARK    5  A    between atoms: C_13  and  C_14
REMARK    6  A    between atoms: C_22  and  C_23
REMARK                            x       y       z     vdW  Elec       q    Type
REMARK                         _______ _______ _______ _____ _____    ______ ____
ROOT
ATOM      1  N   UNL     1      -0.860  11.210  18.296  0.00  0.00    +0.000 N 
ATOM      2  N   UNL     1      -0.365   9.934  18.283  0.00  0.00    +0.000 NA
ATOM      3  C   UNL     1       0.865   9.943  18.709  0.00  0.00    +0.000 C 
ATOM      4  C   UNL     1       1.343  11.333  19.109  0.00  0.00    +0.000 C 
ATOM      5  C   UNL     1       0.184  12.253  18.600  0.00  0.00    +0.000 C 
ENDROOT
BRANCH   5   6
ATOM      6  C   UNL     1      -0.215  13.385  19.583  0.00  0.00    +0.000 A 
ATOM      7  C   UNL     1      -0.427  14.691  19.195  0.00  0.00    +0.000 A 
ATOM      8  N   UNL     1       0.022  15.427  20.235  0.00  0.00    +0.000 N 
ATOM      9  C   UNL     1      -0.459  14.818  21.366  0.00  0.00    +0.000 A 
ATOM     10  C   UNL     1      -0.755  15.363  22.620  0.00  0.00    +0.000 A 
ATOM     11  C   UNL     1      -1.272  14.494  23.568  0.00  0.00    +0.000 A 
ATOM     12  C   UNL     1      -1.368  13.134  23.293  0.00  0.00    +0.000 A 
ATOM     13  C   UNL     1      -0.969  12.590  22.042  0.00  0.00    +0.000 A 
ATOM     14  C   UNL     1      -0.559  13.461  21.005  0.00  0.00    +0.000 A 
ATOM     15  H   UNL     1       0.857  16.010  20.245  0.00  0.00    +0.000 HD
ENDBRANCH   5   6
BRANCH   1  19
ATOM     16  C   UNL     1      -4.935  11.713  17.183  0.00  0.00    +0.000 A 
ATOM     17  C   UNL     1      -3.982  11.310  16.263  0.00  0.00    +0.000 A 
ATOM     18  C   UNL     1      -2.652  11.168  16.646  0.00  0.00    +0.000 A 
ATOM     19  C   UNL     1      -2.195  11.401  17.973  0.00  0.00    +0.000 A 
ATOM     20  C   UNL     1      -3.168  11.833  18.879  0.00  0.00    +0.000 A 
ATOM     21  C   UNL     1      -4.513  11.982  18.505  0.00  0.00    +0.000 A 
ENDBRANCH   1  19
BRANCH   3  22
ATOM     22  C   UNL     1       1.663   8.662  18.821  0.00  0.00    +0.000 A 
ATOM     23  C   UNL     1       1.567   7.902  19.996  0.00  0.00    +0.000 A 
ATOM     24  C   UNL     1       2.318   6.710  20.178  0.00  0.00    +0.000 A 
ATOM     25  C   UNL     1       3.175   6.238  19.184  0.00  0.00    +0.000 A 
ATOM     26  C   UNL     1       3.279   6.986  18.007  0.00  0.00    +0.000 A 
ATOM     27  C   UNL     1       2.532   8.189  17.826  0.00  0.00    +0.000 A 
BRANCH  25  28
ATOM     28  O   UNL     1       3.874   5.098  19.507  0.00  0.00    +0.000 OA
BRANCH  28  29
ATOM     29  C   UNL     1       4.149   4.148  18.478  0.00  0.00    +0.000 C 
BRANCH  29  30
ATOM     30  C   UNL     1       5.473   4.329  17.735  0.00  0.00    +0.000 C 
ATOM     31  N   UNL     1       5.569   4.379  16.442  0.00  0.00    +0.000 NA
ATOM     32  C   UNL     1       7.014   4.437  16.194  0.00  0.00    +0.000 C 
ATOM     33  C   UNL     1       7.648   4.643  17.545  0.00  0.00    +0.000 C 
ATOM     34  O   UNL     1       6.606   4.375  18.473  0.00  0.00    +0.000 OA
ENDBRANCH  29  30
ENDBRANCH  28  29
ENDBRANCH  25  28
ENDBRANCH   3  22
TORSDOF 6
ENDMDL
MODEL 4
REMARK VINA RESULT:      -8.1      3.985     11.382
REMARK  Name = 
REMARK  6 active torsions:
REMARK  status: ('A' for Active; 'I' for Inactive)
REMARK    1  A    between atoms: C_4  and  N_5
REMARK    2  A    between atoms: C_7  and  C_8
REMARK    3  A    between atoms: C_11  and  O_12
REMARK    4  A    between atoms: O_12  and  C_13
REMARK    5  A    between atoms: C_13  and  C_14
REMARK    6  A    between atoms: C_22  and  C_23
REMARK                            x       y       z     vdW  Elec       q    Type
REMARK                         _______ _______ _______ _____ _____    ______ ____
ROOT
ATOM      1  N   UNL     1       0.307  12.412  20.444  0.00  0.00    +0.000 N 
ATOM      2  N   UNL     1       1.112  11.493  19.827  0.00  0.00    +0.000 NA
ATOM      3  C   UNL     1       0.694  10.294  20.109  0.00  0.00    +0.000 C 
ATOM      4  C   UNL     1      -0.549  10.290  20.989  0.00  0.00    +0.000 C 
ATOM      5  C   UNL     1      -0.680  11.795  21.402  0.00  0.00    +0.000 C 
ENDROOT
BRANCH   5   6
ATOM      6  C   UNL     1      -2.130  12.345  21.372  0.00  0.00    +0.000 A 
ATOM      7  C   UNL     1      -2.832  12.578  20.209  0.00  0.00    +0.000 A 
ATOM      8  N   UNL     1      -3.578  13.671  20.481  0.00  0.00    +0.000 N 
ATOM      9  C   UNL     1      -4.104  13.470  21.732  0.00  0.00    +0.000 A 
ATOM     10  C   UNL     1      -5.286  13.961  22.297  0.00  0.00    +0.000 A 
ATOM     11  C   UNL     1      -5.577  13.546  23.587  0.00  0.00    +0.000 A 
ATOM     12  C   UNL     1      -4.662  12.777  24.298  0.00  0.00    +0.000 A 
ATOM     13  C   UNL     1      -3.421  12.371  23.733  0.00  0.00    +0.000 A 
ATOM     14  C   UNL     1      -3.148  12.664  22.377  0.00  0.00    +0.000 A 
ATOM     15  H   UNL     1      -3.449  14.603  20.090  0.00  0.00    +0.000 HD
ENDBRANCH   5   6
BRANCH   1  19
ATOM     16  C   UNL     1       0.865  16.533  19.544  0.00  0.00    +0.000 A 
ATOM     17  C   UNL     1       0.212  15.685  18.664  0.00  0.00    +0.000 A 
ATOM     18  C   UNL     1       0.055  14.338  18.973  0.00  0.00    +0.000 A 
ATOM     19  C   UNL     1       0.524  13.757  20.185  0.00  0.00    +0.000 A 
ATOM     20  C   UNL     1       1.204  14.623  21.046  0.00  0.00    +0.000 A 
ATOM     21  C   UNL     1       1.370  15.985  20.746  0.00  0.00    +0.000 A 
ENDBRANCH   1  19
BRANCH   3  22
ATOM     22  C   UNL     1       1.386   9.072  19.544  0.00  0.00    +0.000 A 
ATOM     23  C   UNL     1       1.565   7.951  20.369  0.00  0.00    +0.000 A 
ATOM     24  C   UNL     1       2.239   6.787  19.912  0.00  0.00    +0.000 A 
ATOM     25  C   UNL     1       2.740   6.707  18.612  0.00  0.00    +0.000 A 
ATOM     26  C   UNL     1       2.568   7.817  17.779  0.00  0.00    +0.000 A 
ATOM     27  C   UNL     1       1.898   8.991  18.241  0.00  0.00    +0.000 A 
BRANCH  25  28
ATOM     28  O   UNL     1       3.408   5.542  18.313  0.00  0.00    +0.000 OA
BRANCH  28  29
ATOM     29  C   UNL     1       4.400   5.068  19.222  0.00  0.00    +0.000 C 
BRANCH  29  30
ATOM     30  C   UNL     1       5.837   5.505  18.934  0.00  0.00    +0.000 C 
ATOM     31  N   UNL     1       6.837   5.242  19.717  0.00  0.00    +0.000 NA
ATOM     32  C   UNL     1       7.966   5.951  19.103  0.00  0.00    +0.000 C 
ATOM     33  C   UNL     1       7.464   6.428  17.766  0.00  0.00    +0.000 C 
ATOM     34  O   UNL     1       6.054   6.258  17.831  0.00  0.00    +0.000 OA
ENDBRANCH  29  30
ENDBRANCH  28  29
ENDBRANCH  25  28
ENDBRANCH   3  22
TORSDOF 6
ENDMDL
MODEL 5
REMARK VINA RESULT:      -8.0      3.433     10.259
REMARK  Name = 
REMARK  6 active torsions:
REMARK  status: ('A' for Active; 'I' for Inactive)
REMARK    1  A    between atoms: C_4  and  N_5
REMARK    2  A    between atoms: C_7  and  C_8
REMARK    3  A    between atoms: C_11  and  O_12
REMARK    4  A    between atoms: O_12  and  C_13
REMARK    5  A    between atoms: C_13  and  C_14
REMARK    6  A    between atoms: C_22  and  C_23
REMARK                            x       y       z     vdW  Elec       q    Type
REMARK                         _______ _______ _______ _____ _____    ______ ____
ROOT
ATOM      1  N   UNL     1      -0.944  11.255  18.335  0.00  0.00    +0.000 N 
ATOM      2  N   UNL     1      -0.369  10.017  18.244  0.00  0.00    +0.000 NA
ATOM      3  C   UNL     1       0.853  10.073  18.686  0.00  0.00    +0.000 C 
ATOM      4  C   UNL     1       1.240  11.460  19.183  0.00  0.00    +0.000 C 
ATOM      5  C   UNL     1       0.030  12.339  18.721  0.00  0.00    +0.000 C 
ENDROOT
BRANCH   5   6
ATOM      6  C   UNL     1      -0.448  13.376  19.770  0.00  0.00    +0.000 A 
ATOM      7  C   UNL     1      -0.654  14.709  19.485  0.00  0.00    +0.000 A 
ATOM      8  N   UNL     1      -0.283  15.355  20.611  0.00  0.00    +0.000 N 
ATOM      9  C   UNL     1      -0.826  14.644  21.652  0.00  0.00    +0.000 A 
ATOM     10  C   UNL     1      -1.209  15.074  22.927  0.00  0.00    +0.000 A 
ATOM     11  C   UNL     1      -1.772  14.120  23.761  0.00  0.00    +0.000 A 
ATOM     12  C   UNL     1      -1.830  12.788  23.363  0.00  0.00    +0.000 A 
ATOM     13  C   UNL     1      -1.343  12.361  22.097  0.00  0.00    +0.000 A 
ATOM     14  C   UNL     1      -0.882  13.324  21.169  0.00  0.00    +0.000 A 
ATOM     15  H   UNL     1       0.540  15.943  20.726  0.00  0.00    +0.000 HD
ENDBRANCH   5   6
BRANCH   1  19
ATOM     16  C   UNL     1      -5.036  11.565  17.214  0.00  0.00    +0.000 A 
ATOM     17  C   UNL     1      -4.069  11.167  16.306  0.00  0.00    +0.000 A 
ATOM     18  C   UNL     1      -2.734  11.088  16.691  0.00  0.00    +0.000 A 
ATOM     19  C   UNL     1      -2.285  11.384  18.009  0.00  0.00    +0.000 A 
ATOM     20  C   UNL     1      -3.273  11.811  18.901  0.00  0.00    +0.000 A 
ATOM     21  C   UNL     1      -4.623  11.895  18.525  0.00  0.00    +0.000 A 
ENDBRANCH   1  19
BRANCH   3  22
ATOM     22  C   UNL     1       1.729   8.840  18.723  0.00  0.00    +0.000 A 
ATOM     23  C   UNL     1       2.551   8.557  17.622  0.00  0.00    +0.000 A 
ATOM     24  C   UNL     1       3.369   7.396  17.579  0.00  0.00    +0.000 A 
ATOM     25  C   UNL     1       3.398   6.494  18.643  0.00  0.00    +0.000 A 
ATOM     26  C   UNL     1       2.584   6.764  19.747  0.00  0.00    +0.000 A 
ATOM     27  C   UNL     1       1.754   7.926  19.787  0.00  0.00    +0.000 A 
BRANCH  25  28
ATOM     28  O   UNL     1       4.199   5.391  18.454  0.00  0.00    +0.000 OA
BRANCH  28  29
ATOM     29  C   UNL     1       3.737   4.348  17.597  0.00  0.00    +0.000 C 
BRANCH  29  30
ATOM     30  C   UNL     1       2.634   3.454  18.164  0.00  0.00    +0.000 C 
ATOM     31  N   UNL     1       1.388   3.543  17.815  0.00  0.00    +0.000 NA
ATOM     32  C   UNL     1       0.702   2.587  18.693  0.00  0.00    +0.000 C 
ATOM     33  C   UNL     1       1.797   1.820  19.387  0.00  0.00    +0.000 C 
ATOM     34  O   UNL     1       2.978   2.567  19.126  0.00  0.00    +0.000 OA
ENDBRANCH  29  30
ENDBRANCH  28  29
ENDBRANCH  25  28
ENDBRANCH   3  22
TORSDOF 6
ENDMDL
MODEL 6
REMARK VINA RESULT:      -8.0      3.510     10.407
REMARK  Name = 
REMARK  6 active torsions:
REMARK  status: ('A' for Active; 'I' for Inactive)
REMARK    1  A    between atoms: C_4  and  N_5
REMARK    2  A    between atoms: C_7  and  C_8
REMARK    3  A    between atoms: C_11  and  O_12
REMARK    4  A    between atoms: O_12  and  C_13
REMARK    5  A    between atoms: C_13  and  C_14
REMARK    6  A    between atoms: C_22  and  C_23
REMARK                            x       y       z     vdW  Elec       q    Type
REMARK                         _______ _______ _______ _____ _____    ______ ____
ROOT
ATOM      1  N   UNL     1      -0.677  10.941  18.169  0.00  0.00    +0.000 N 
ATOM      2  N   UNL     1      -0.098   9.703  18.093  0.00  0.00    +0.000 NA
ATOM      3  C   UNL     1       1.091   9.747  18.618  0.00  0.00    +0.000 C 
ATOM      4  C   UNL     1       1.444  11.123  19.170  0.00  0.00    +0.000 C 
ATOM      5  C   UNL     1       0.269  12.014  18.644  0.00  0.00    +0.000 C 
ENDROOT
BRANCH   5   6
ATOM      6  C   UNL     1      -0.280  13.030  19.680  0.00  0.00    +0.000 A 
ATOM      7  C   UNL     1      -0.471  14.367  19.407  0.00  0.00    +0.000 A 
ATOM      8  N   UNL     1      -0.176  14.992  20.568  0.00  0.00    +0.000 N 
ATOM      9  C   UNL     1      -0.783  14.261  21.557  0.00  0.00    +0.000 A 
ATOM     10  C   UNL     1      -1.249  14.665  22.812  0.00  0.00    +0.000 A 
ATOM     11  C   UNL     1      -1.863  13.694  23.589  0.00  0.00    +0.000 A 
ATOM     12  C   UNL     1      -1.891  12.370  23.163  0.00  0.00    +0.000 A 
ATOM     13  C   UNL     1      -1.321  11.968  21.923  0.00  0.00    +0.000 A 
ATOM     14  C   UNL     1      -0.804  12.950  21.046  0.00  0.00    +0.000 A 
ATOM     15  H   UNL     1       0.637  15.579  20.748  0.00  0.00    +0.000 HD
ENDBRANCH   5   6
BRANCH   1  19
ATOM     16  C   UNL     1      -4.684  11.278  16.779  0.00  0.00    +0.000 A 
ATOM     17  C   UNL     1      -3.664  10.855  15.942  0.00  0.00    +0.000 A 
ATOM     18  C   UNL     1      -2.358  10.768  16.414  0.00  0.00    +0.000 A 
ATOM     19  C   UNL     1      -1.993  11.079  17.754  0.00  0.00    +0.000 A 
ATOM     20  C   UNL     1      -3.031  11.530  18.574  0.00  0.00    +0.000 A 
ATOM     21  C   UNL     1      -4.353  11.624  18.109  0.00  0.00    +0.000 A 
ENDBRANCH   1  19
BRANCH   3  22
ATOM     22  C   UNL     1       1.961   8.512  18.690  0.00  0.00    +0.000 A 
ATOM     23  C   UNL     1       2.836   8.234  17.628  0.00  0.00    +0.000 A 
ATOM     24  C   UNL     1       3.652   7.072  17.617  0.00  0.00    +0.000 A 
ATOM     25  C   UNL     1       3.627   6.163  18.675  0.00  0.00    +0.000 A 
ATOM     26  C   UNL     1       2.761   6.427  19.740  0.00  0.00    +0.000 A 
ATOM     27  C   UNL     1       1.932   7.591  19.747  0.00  0.00    +0.000 A 
BRANCH  25  28
ATOM     28  O   UNL     1       4.434   5.059  18.517  0.00  0.00    +0.000 OA
BRANCH  28  29
ATOM     29  C   UNL     1       5.773   5.247  18.063  0.00  0.00    +0.000 C 
BRANCH  29  30
ATOM     30  C   UNL     1       6.055   4.838  16.617  0.00  0.00    +0.000 C 
ATOM     31  N   UNL     1       5.251   4.108  15.908  0.00  0.00    +0.000 NA
ATOM     32  C   UNL     1       5.985   3.882  14.657  0.00  0.00    +0.000 C 
ATOM     33  C   UNL     1       7.185   4.788  14.724  0.00  0.00    +0.000 C 
ATOM     34  O   UNL     1       7.239   5.212  16.080  0.00  0.00    +0.000 OA
ENDBRANCH  29  30
ENDBRANCH  28  29
ENDBRANCH  25  28
ENDBRANCH   3  22
TORSDOF 6
ENDMDL
MODEL 7
REMARK VINA RESULT:      -8.0      4.049     10.162
REMARK  Name = 
REMARK  6 active torsions:
REMARK  status: ('A' for Active; 'I' for Inactive)
REMARK    1  A    between atoms: C_4  and  N_5
REMARK    2  A    between atoms: C_7  and  C_8
REMARK    3  A    between atoms: C_11  and  O_12
REMARK    4  A    between atoms: O_12  and  C_13
REMARK    5  A    between atoms: C_13  and  C_14
REMARK    6  A    between atoms: C_22  and  C_23
REMARK                            x       y       z     vdW  Elec       q    Type
REMARK                         _______ _______ _______ _____ _____    ______ ____
ROOT
ATOM      1  N   UNL     1       0.104  11.150  19.911  0.00  0.00    +0.000 N 
ATOM      2  N   UNL     1       0.407   9.835  20.138  0.00  0.00    +0.000 NA
ATOM      3  C   UNL     1       1.298   9.441  19.276  0.00  0.00    +0.000 C 
ATOM      4  C   UNL     1       1.737  10.550  18.328  0.00  0.00    +0.000 C 
ATOM      5  C   UNL     1       0.719  11.695  18.647  0.00  0.00    +0.000 C 
ENDROOT
BRANCH   5   6
ATOM      6  C   UNL     1       1.348  13.112  18.723  0.00  0.00    +0.000 A 
ATOM      7  C   UNL     1       2.688  13.361  18.524  0.00  0.00    +0.000 A 
ATOM      8  N   UNL     1       2.972  14.373  19.373  0.00  0.00    +0.000 N 
ATOM      9  C   UNL     1       1.942  15.271  19.249  0.00  0.00    +0.000 A 
ATOM     10  C   UNL     1       1.930  16.654  19.456  0.00  0.00    +0.000 A 
ATOM     11  C   UNL     1       0.733  17.309  19.210  0.00  0.00    +0.000 A 
ATOM     12  C   UNL     1      -0.409  16.582  18.890  0.00  0.00    +0.000 A 
ATOM     13  C   UNL     1      -0.392  15.164  18.781  0.00  0.00    +0.000 A 
ATOM     14  C   UNL     1       0.837  14.474  18.896  0.00  0.00    +0.000 A 
ATOM     15  H   UNL     1       3.541  14.312  20.215  0.00  0.00    +0.000 HD
ENDBRANCH   5   6
BRANCH   1  19
ATOM     16  C   UNL     1      -2.641  13.085  22.523  0.00  0.00    +0.000 A 
ATOM     17  C   UNL     1      -2.951  12.858  21.192  0.00  0.00    +0.000 A 
ATOM     18  C   UNL     1      -2.031  12.238  20.353  0.00  0.00    +0.000 A 
ATOM     19  C   UNL     1      -0.753  11.790  20.793  0.00  0.00    +0.000 A 
ATOM     20  C   UNL     1      -0.450  12.054  22.132  0.00  0.00    +0.000 A 
ATOM     21  C   UNL     1      -1.369  12.680  22.989  0.00  0.00    +0.000 A 
ENDBRANCH   1  19
BRANCH   3  22
ATOM     22  C   UNL     1       1.839   8.028  19.300  0.00  0.00    +0.000 A 
ATOM     23  C   UNL     1       2.473   7.524  18.155  0.00  0.00    +0.000 A 
ATOM     24  C   UNL     1       2.969   6.194  18.100  0.00  0.00    +0.000 A 
ATOM     25  C   UNL     1       2.857   5.336  19.195  0.00  0.00    +0.000 A 
ATOM     26  C   UNL     1       2.227   5.826  20.343  0.00  0.00    +0.000 A 
ATOM     27  C   UNL     1       1.720   7.161  20.396  0.00  0.00    +0.000 A 
BRANCH  25  28
ATOM     28  O   UNL     1       3.340   4.063  18.993  0.00  0.00    +0.000 OA
BRANCH  28  29
ATOM     29  C   UNL     1       3.898   3.735  17.723  0.00  0.00    +0.000 C 
BRANCH  29  30
ATOM     30  C   UNL     1       5.368   4.106  17.520  0.00  0.00    +0.000 C 
ATOM     31  N   UNL     1       6.203   4.287  18.495  0.00  0.00    +0.000 NA
ATOM     32  C   UNL     1       7.433   4.737  17.831  0.00  0.00    +0.000 C 
ATOM     33  C   UNL     1       7.191   4.542  16.358  0.00  0.00    +0.000 C 
ATOM     34  O   UNL     1       5.792   4.315  16.252  0.00  0.00    +0.000 OA
ENDBRANCH  29  30
ENDBRANCH  28  29
ENDBRANCH  25  28
ENDBRANCH   3  22
TORSDOF 6
ENDMDL
MODEL 8
REMARK VINA RESULT:      -8.0      4.025     10.080
REMARK  Name = 
REMARK  6 active torsions:
REMARK  status: ('A' for Active; 'I' for Inactive)
REMARK    1  A    between atoms: C_4  and  N_5
REMARK    2  A    between atoms: C_7  and  C_8
REMARK    3  A    between atoms: C_11  and  O_12
REMARK    4  A    between atoms: O_12  and  C_13
REMARK    5  A    between atoms: C_13  and  C_14
REMARK    6  A    between atoms: C_22  and  C_23
REMARK                            x       y       z     vdW  Elec       q    Type
REMARK                         _______ _______ _______ _____ _____    ______ ____
ROOT
ATOM      1  N   UNL     1       0.084  11.130  19.804  0.00  0.00    +0.000 N 
ATOM      2  N   UNL     1       0.386   9.810  20.002  0.00  0.00    +0.000 NA
ATOM      3  C   UNL     1       1.307   9.445  19.159  0.00  0.00    +0.000 C 
ATOM      4  C   UNL     1       1.772  10.583  18.259  0.00  0.00    +0.000 C 
ATOM      5  C   UNL     1       0.738  11.714  18.577  0.00  0.00    +0.000 C 
ENDROOT
BRANCH   5   6
ATOM      6  C   UNL     1       1.357  13.130  18.715  0.00  0.00    +0.000 A 
ATOM      7  C   UNL     1       2.702  13.390  18.571  0.00  0.00    +0.000 A 
ATOM      8  N   UNL     1       2.951  14.379  19.457  0.00  0.00    +0.000 N 
ATOM      9  C   UNL     1       1.922  15.276  19.323  0.00  0.00    +0.000 A 
ATOM     10  C   UNL     1       1.896  16.653  19.567  0.00  0.00    +0.000 A 
ATOM     11  C   UNL     1       0.705  17.310  19.297  0.00  0.00    +0.000 A 
ATOM     12  C   UNL     1      -0.422  16.588  18.917  0.00  0.00    +0.000 A 
ATOM     13  C   UNL     1      -0.394  15.174  18.769  0.00  0.00    +0.000 A 
ATOM     14  C   UNL     1       0.834  14.486  18.908  0.00  0.00    +0.000 A 
ATOM     15  H   UNL     1       3.490  14.297  20.317  0.00  0.00    +0.000 HD
ENDBRANCH   5   6
BRANCH   1  19
ATOM     16  C   UNL     1      -2.533  13.020  22.575  0.00  0.00    +0.000 A 
ATOM     17  C   UNL     1      -1.317  12.490  22.978  0.00  0.00    +0.000 A 
ATOM     18  C   UNL     1      -0.485  11.862  22.057  0.00  0.00    +0.000 A 
ATOM     19  C   UNL     1      -0.805  11.740  20.675  0.00  0.00    +0.000 A 
ATOM     20  C   UNL     1      -2.047  12.257  20.295  0.00  0.00    +0.000 A 
ATOM     21  C   UNL     1      -2.897  12.891  21.215  0.00  0.00    +0.000 A 
ENDBRANCH   1  19
BRANCH   3  22
ATOM     22  C   UNL     1       1.854   8.034  19.160  0.00  0.00    +0.000 A 
ATOM     23  C   UNL     1       1.774   7.275  20.337  0.00  0.00    +0.000 A 
ATOM     24  C   UNL     1       2.301   5.959  20.414  0.00  0.00    +0.000 A 
ATOM     25  C   UNL     1       2.910   5.359  19.312  0.00  0.00    +0.000 A 
ATOM     26  C   UNL     1       2.995   6.104  18.131  0.00  0.00    +0.000 A 
ATOM     27  C   UNL     1       2.474   7.432  18.055  0.00  0.00    +0.000 A 
BRANCH  25  28
ATOM     28  O   UNL     1       3.416   4.099  19.535  0.00  0.00    +0.000 OA
BRANCH  28  29
ATOM     29  C   UNL     1       4.434   3.606  18.667  0.00  0.00    +0.000 C 
BRANCH  29  30
ATOM     30  C   UNL     1       5.725   4.424  18.614  0.00  0.00    +0.000 C 
ATOM     31  N   UNL     1       6.309   4.912  19.664  0.00  0.00    +0.000 NA
ATOM     32  C   UNL     1       7.417   5.706  19.120  0.00  0.00    +0.000 C 
ATOM     33  C   UNL     1       7.467   5.375  17.651  0.00  0.00    +0.000 C 
ATOM     34  O   UNL     1       6.242   4.701  17.395  0.00  0.00    +0.000 OA
ENDBRANCH  29  30
ENDBRANCH  28  29
ENDBRANCH  25  28
ENDBRANCH   3  22
TORSDOF 6
ENDMDL
MODEL 9
REMARK VINA RESULT:      -8.0      3.807     11.172
REMARK  Name = 
REMARK  6 active torsions:
REMARK  status: ('A' for Active; 'I' for Inactive)
REMARK    1  A    between atoms: C_4  and  N_5
REMARK    2  A    between atoms: C_7  and  C_8
REMARK    3  A    between atoms: C_11  and  O_12
REMARK    4  A    between atoms: O_12  and  C_13
REMARK    5  A    between atoms: C_13  and  C_14
REMARK    6  A    between atoms: C_22  and  C_23
REMARK                            x       y       z     vdW  Elec       q    Type
REMARK                         _______ _______ _______ _____ _____    ______ ____
ROOT
ATOM      1  N   UNL     1       0.379  12.487  20.690  0.00  0.00    +0.000 N 
ATOM      2  N   UNL     1       1.057  11.545  19.964  0.00  0.00    +0.000 NA
ATOM      3  C   UNL     1       0.770  10.360  20.418  0.00  0.00    +0.000 C 
ATOM      4  C   UNL     1      -0.231  10.391  21.566  0.00  0.00    +0.000 C 
ATOM      5  C   UNL     1      -0.327  11.918  21.894  0.00  0.00    +0.000 C 
ENDROOT
BRANCH   5   6
ATOM      6  C   UNL     1      -1.767  12.426  22.172  0.00  0.00    +0.000 A 
ATOM      7  C   UNL     1      -2.142  13.049  23.343  0.00  0.00    +0.000 A 
ATOM      8  N   UNL     1      -3.411  12.637  23.551  0.00  0.00    +0.000 N 
ATOM      9  C   UNL     1      -4.042  12.724  22.336  0.00  0.00    +0.000 A 
ATOM     10  C   UNL     1      -5.394  12.926  22.040  0.00  0.00    +0.000 A 
ATOM     11  C   UNL     1      -5.731  13.010  20.698  0.00  0.00    +0.000 A 
ATOM     12  C   UNL     1      -4.769  12.783  19.719  0.00  0.00    +0.000 A 
ATOM     13  C   UNL     1      -3.419  12.482  20.048  0.00  0.00    +0.000 A 
ATOM     14  C   UNL     1      -3.010  12.517  21.401  0.00  0.00    +0.000 A 
ATOM     15  H   UNL     1      -3.728  12.002  24.282  0.00  0.00    +0.000 HD
ENDBRANCH   5   6
BRANCH   1  19
ATOM     16  C   UNL     1       0.531  16.538  19.401  0.00  0.00    +0.000 A 
ATOM     17  C   UNL     1      -0.250  15.602  18.744  0.00  0.00    +0.000 A 
ATOM     18  C   UNL     1      -0.271  14.279  19.173  0.00  0.00    +0.000 A 
ATOM     19  C   UNL     1       0.470  13.813  20.296  0.00  0.00    +0.000 A 
ATOM     20  C   UNL     1       1.272  14.767  20.928  0.00  0.00    +0.000 A 
ATOM     21  C   UNL     1       1.304  16.105  20.503  0.00  0.00    +0.000 A 
ENDBRANCH   1  19
BRANCH   3  22
ATOM     22  C   UNL     1       1.363   9.117  19.791  0.00  0.00    +0.000 A 
ATOM     23  C   UNL     1       1.604   7.996  20.600  0.00  0.00    +0.000 A 
ATOM     24  C   UNL     1       2.193   6.813  20.080  0.00  0.00    +0.000 A 
ATOM     25  C   UNL     1       2.543   6.712  18.734  0.00  0.00    +0.000 A 
ATOM     26  C   UNL     1       2.308   7.822  17.916  0.00  0.00    +0.000 A 
ATOM     27  C   UNL     1       1.725   9.016  18.439  0.00  0.00    +0.000 A 
BRANCH  25  28
ATOM     28  O   UNL     1       3.144   5.528  18.372  0.00  0.00    +0.000 OA
BRANCH  28  29
ATOM     29  C   UNL     1       4.168   4.995  19.209  0.00  0.00    +0.000 C 
BRANCH  29  30
ATOM     30  C   UNL     1       5.604   5.351  18.823  0.00  0.00    +0.000 C 
ATOM     31  N   UNL     1       5.974   5.626  17.611  0.00  0.00    +0.000 NA
ATOM     32  C   UNL     1       7.430   5.780  17.709  0.00  0.00    +0.000 C 
ATOM     33  C   UNL     1       7.738   5.776  19.183  0.00  0.00    +0.000 C 
ATOM     34  O   UNL     1       6.543   5.313  19.797  0.00  0.00    +0.000 OA
ENDBRANCH  29  30
ENDBRANCH  28  29
ENDBRANCH  25  28
ENDBRANCH   3  22
TORSDOF 6
ENDMDL
