MODEL 1
REMARK VINA RESULT:      -7.8      0.000      0.000
REMARK  Name = 
REMARK  6 active torsions:
REMARK  status: ('A' for Active; 'I' for Inactive)
REMARK    1  A    between atoms: C_1  and  N_2
REMARK    2  A    between atoms: C_5  and  N_6
REMARK    3  A    between atoms: C_7  and  C_9
REMARK    4  A    between atoms: C_11  and  N_12
REMARK    5  A    between atoms: C_14  and  N_15
REMARK    6  A    between atoms: N_18  and  C_19
REMARK                            x       y       z     vdW  Elec       q    Type
REMARK                         _______ _______ _______ _____ _____    ______ ____
ROOT
ATOM      1  N   UNL     1       3.479  15.309  18.655  0.00  0.00    +0.000 N 
ATOM      2  C   UNL     1       4.444  14.495  18.110  0.00  0.00    +0.000 A 
ATOM      3  C   UNL     1       5.620  15.198  18.057  0.00  0.00    +0.000 A 
ATOM      4  C   UNL     1       5.289  16.433  18.646  0.00  0.00    +0.000 A 
ATOM      5  N   UNL     1       3.994  16.526  18.969  0.00  0.00    +0.000 NA
ENDROOT
BRANCH   3   6
ATOM      6  N   UNL     1       6.832  14.776  17.529  0.00  0.00    +0.000 N 
ATOM      7  C   UNL     1       7.856  14.252  18.317  0.00  0.00    +0.000 C 
ATOM      8  O   UNL     1       7.792  14.116  19.525  0.00  0.00    +0.000 OA
ATOM      9  N   UNL     1       8.978  13.922  17.586  0.00  0.00    +0.000 N 
ATOM     10  H   UNL     1       6.907  14.705  16.526  0.00  0.00    +0.000 HD
ATOM     11  H   UNL     1       9.203  14.557  16.839  0.00  0.00    +0.000 HD
BRANCH   9  12
ATOM     12  C   UNL     1      10.091  13.349  18.270  0.00  0.00    +0.000 A 
ATOM     13  C   UNL     1      11.175  14.159  18.631  0.00  0.00    +0.000 A 
ATOM     14  C   UNL     1      12.223  13.648  19.398  0.00  0.00    +0.000 A 
ATOM     15  C   UNL     1      12.204  12.317  19.807  0.00  0.00    +0.000 A 
ATOM     16  C   UNL     1      11.158  11.482  19.412  0.00  0.00    +0.000 A 
ATOM     17  C   UNL     1      10.108  11.992  18.637  0.00  0.00    +0.000 A 
ATOM     18 CL   UNL     1       8.912  10.889  18.062  0.00  0.00    +0.000 Cl
ENDBRANCH   9  12
ENDBRANCH   3   6
BRANCH   1  21
ATOM     19  C   UNL     1       0.233  13.552  18.951  0.00  0.00    +0.000 A 
ATOM     20  C   UNL     1       1.588  13.625  18.655  0.00  0.00    +0.000 A 
ATOM     21  C   UNL     1       2.120  14.935  18.872  0.00  0.00    +0.000 A 
ATOM     22  C   UNL     1       1.148  15.814  19.317  0.00  0.00    +0.000 A 
ATOM     23  S   UNL     1      -0.380  15.085  19.423  0.00  0.00    +0.000 S 
BRANCH  19  25
ATOM     24  N   UNL     1      -1.358  12.273  17.691  0.00  0.00    +0.000 N 
ATOM     25  C   UNL     1      -0.654  12.396  18.874  0.00  0.00    +0.000 C 
ATOM     26  O   UNL     1      -0.787  11.584  19.792  0.00  0.00    +0.000 OA
ATOM     27  H   UNL     1      -1.358  13.063  17.054  0.00  0.00    +0.000 HD
BRANCH  24  32
ATOM     28  C   UNL     1      -5.933  11.827  17.422  0.00  0.00    +0.000 C 
ATOM     29  N   UNL     1      -4.522  11.911  17.075  0.00  0.00    +0.000 NA
ATOM     30  C   UNL     1      -4.175  11.069  15.931  0.00  0.00    +0.000 C 
ATOM     31  C   UNL     1      -2.654  11.042  15.981  0.00  0.00    +0.000 C 
ATOM     32  C   UNL     1      -2.306  11.193  17.467  0.00  0.00    +0.000 C 
ATOM     33  C   UNL     1      -3.653  11.431  18.161  0.00  0.00    +0.000 C 
ENDBRANCH  24  32
ENDBRANCH  19  25
ENDBRANCH   1  21
TORSDOF 5
ENDMDL
MODEL 2
REMARK VINA RESULT:      -7.8      7.053     11.302
REMARK  Name = 
REMARK  6 active torsions:
REMARK  status: ('A' for Active; 'I' for Inactive)
REMARK    1  A    between atoms: C_1  and  N_2
REMARK    2  A    between atoms: C_5  and  N_6
REMARK    3  A    between atoms: C_7  and  C_9
REMARK    4  A    between atoms: C_11  and  N_12
REMARK    5  A    between atoms: C_14  and  N_15
REMARK    6  A    between atoms: N_18  and  C_19
REMARK                            x       y       z     vdW  Elec       q    Type
REMARK                         _______ _______ _______ _____ _____    ______ ____
ROOT
ATOM      1  N   UNL     1       7.919   7.717  17.899  0.00  0.00    +0.000 N 
ATOM      2  C   UNL     1       7.513   6.706  18.738  0.00  0.00    +0.000 A 
ATOM      3  C   UNL     1       7.055   5.667  17.969  0.00  0.00    +0.000 A 
ATOM      4  C   UNL     1       7.271   6.114  16.652  0.00  0.00    +0.000 A 
ATOM      5  N   UNL     1       7.750   7.363  16.599  0.00  0.00    +0.000 NA
ENDROOT
BRANCH   3   6
ATOM      6  N   UNL     1       6.501   4.472  18.409  0.00  0.00    +0.000 N 
ATOM      7  C   UNL     1       5.193   4.378  18.881  0.00  0.00    +0.000 C 
ATOM      8  O   UNL     1       4.420   5.315  18.957  0.00  0.00    +0.000 OA
ATOM      9  N   UNL     1       4.862   3.101  19.288  0.00  0.00    +0.000 N 
ATOM     10  H   UNL     1       7.016   3.623  18.231  0.00  0.00    +0.000 HD
ATOM     11  H   UNL     1       5.596   2.599  19.757  0.00  0.00    +0.000 HD
BRANCH   9  12
ATOM     12  C   UNL     1       3.540   2.862  19.769  0.00  0.00    +0.000 A 
ATOM     13  C   UNL     1       3.306   2.790  21.148  0.00  0.00    +0.000 A 
ATOM     14  C   UNL     1       2.008   2.670  21.645  0.00  0.00    +0.000 A 
ATOM     15  C   UNL     1       0.928   2.611  20.770  0.00  0.00    +0.000 A 
ATOM     16  C   UNL     1       1.147   2.628  19.391  0.00  0.00    +0.000 A 
ATOM     17  C   UNL     1       2.450   2.743  18.890  0.00  0.00    +0.000 A 
ATOM     18 CL   UNL     1       2.678   2.622  17.183  0.00  0.00    +0.000 Cl
ENDBRANCH   9  12
ENDBRANCH   3   6
BRANCH   1  21
ATOM     19  C   UNL     1       9.016  11.239  18.223  0.00  0.00    +0.000 A 
ATOM     20  C   UNL     1       8.418  10.176  17.559  0.00  0.00    +0.000 A 
ATOM     21  C   UNL     1       8.456   8.968  18.324  0.00  0.00    +0.000 A 
ATOM     22  C   UNL     1       9.091   9.152  19.539  0.00  0.00    +0.000 A 
ATOM     23  S   UNL     1       9.669  10.736  19.730  0.00  0.00    +0.000 S 
BRANCH  19  25
ATOM     24  N   UNL     1       8.164  13.481  18.208  0.00  0.00    +0.000 N 
ATOM     25  C   UNL     1       9.160  12.622  17.783  0.00  0.00    +0.000 C 
ATOM     26  O   UNL     1      10.090  13.011  17.073  0.00  0.00    +0.000 OA
ATOM     27  H   UNL     1       7.331  13.075  18.623  0.00  0.00    +0.000 HD
BRANCH  24  32
ATOM     28  C   UNL     1       5.780  17.238  19.391  0.00  0.00    +0.000 C 
ATOM     29  N   UNL     1       6.843  16.253  19.249  0.00  0.00    +0.000 NA
ATOM     30  C   UNL     1       8.172  16.863  19.231  0.00  0.00    +0.000 C 
ATOM     31  C   UNL     1       9.056  15.728  18.733  0.00  0.00    +0.000 C 
ATOM     32  C   UNL     1       8.145  14.886  17.831  0.00  0.00    +0.000 C 
ATOM     33  C   UNL     1       6.757  15.521  17.977  0.00  0.00    +0.000 C 
ENDBRANCH  24  32
ENDBRANCH  19  25
ENDBRANCH   1  21
TORSDOF 5
ENDMDL
MODEL 3
REMARK VINA RESULT:      -7.7      7.736     11.746
REMARK  Name = 
REMARK  6 active torsions:
REMARK  status: ('A' for Active; 'I' for Inactive)
REMARK    1  A    between atoms: C_1  and  N_2
REMARK    2  A    between atoms: C_5  and  N_6
REMARK    3  A    between atoms: C_7  and  C_9
REMARK    4  A    between atoms: C_11  and  N_12
REMARK    5  A    between atoms: C_14  and  N_15
REMARK    6  A    between atoms: N_18  and  C_19
REMARK                            x       y       z     vdW  Elec       q    Type
REMARK                         _______ _______ _______ _____ _____    ______ ____
ROOT
ATOM      1  N   UNL     1       7.937   7.641  17.907  0.00  0.00    +0.000 N 
ATOM      2  C   UNL     1       7.549   6.675  18.806  0.00  0.00    +0.000 A 
ATOM      3  C   UNL     1       7.105   5.586  18.101  0.00  0.00    +0.000 A 
ATOM      4  C   UNL     1       7.309   5.959  16.759  0.00  0.00    +0.000 A 
ATOM      5  N   UNL     1       7.768   7.210  16.630  0.00  0.00    +0.000 NA
ENDROOT
BRANCH   3   6
ATOM      6  N   UNL     1       6.571   4.411  18.612  0.00  0.00    +0.000 N 
ATOM      7  C   UNL     1       5.229   4.287  18.970  0.00  0.00    +0.000 C 
ATOM      8  O   UNL     1       4.407   5.180  18.876  0.00  0.00    +0.000 OA
ATOM      9  N   UNL     1       4.925   3.040  19.477  0.00  0.00    +0.000 N 
ATOM     10  H   UNL     1       7.142   3.580  18.571  0.00  0.00    +0.000 HD
ATOM     11  H   UNL     1       5.634   2.632  20.062  0.00  0.00    +0.000 HD
BRANCH   9  12
ATOM     12  C   UNL     1       3.576   2.773  19.859  0.00  0.00    +0.000 A 
ATOM     13  C   UNL     1       3.208   2.855  21.207  0.00  0.00    +0.000 A 
ATOM     14  C   UNL     1       1.874   2.709  21.592  0.00  0.00    +0.000 A 
ATOM     15  C   UNL     1       0.894   2.469  20.634  0.00  0.00    +0.000 A 
ATOM     16  C   UNL     1       1.251   2.330  19.292  0.00  0.00    +0.000 A 
ATOM     17  C   UNL     1       2.589   2.472  18.905  0.00  0.00    +0.000 A 
ATOM     18 CL   UNL     1       2.996   2.157  17.257  0.00  0.00    +0.000 Cl
ENDBRANCH   9  12
ENDBRANCH   3   6
BRANCH   1  21
ATOM     19  C   UNL     1       9.276  10.635  19.626  0.00  0.00    +0.000 A 
ATOM     20  C   UNL     1       8.792   9.335  19.585  0.00  0.00    +0.000 A 
ATOM     21  C   UNL     1       8.456   8.923  18.256  0.00  0.00    +0.000 A 
ATOM     22  C   UNL     1       8.688   9.929  17.336  0.00  0.00    +0.000 A 
ATOM     23  S   UNL     1       9.253  11.353  18.066  0.00  0.00    +0.000 S 
BRANCH  19  25
ATOM     24  N   UNL     1       8.790  11.593  21.771  0.00  0.00    +0.000 N 
ATOM     25  C   UNL     1       9.735  11.399  20.781  0.00  0.00    +0.000 C 
ATOM     26  O   UNL     1      10.876  11.856  20.879  0.00  0.00    +0.000 OA
ATOM     27  H   UNL     1       7.824  11.366  21.557  0.00  0.00    +0.000 HD
BRANCH  24  32
ATOM     28  C   UNL     1       7.029  15.269  23.912  0.00  0.00    +0.000 C 
ATOM     29  N   UNL     1       7.395  13.902  23.570  0.00  0.00    +0.000 NA
ATOM     30  C   UNL     1       7.594  13.064  24.752  0.00  0.00    +0.000 C 
ATOM     31  C   UNL     1       8.291  11.837  24.182  0.00  0.00    +0.000 C 
ATOM     32  C   UNL     1       9.080  12.358  22.974  0.00  0.00    +0.000 C 
ATOM     33  C   UNL     1       8.676  13.833  22.851  0.00  0.00    +0.000 C 
ENDBRANCH  24  32
ENDBRANCH  19  25
ENDBRANCH   1  21
TORSDOF 5
ENDMDL
MODEL 4
REMARK VINA RESULT:      -7.6      7.351     11.870
REMARK  Name = 
REMARK  6 active torsions:
REMARK  status: ('A' for Active; 'I' for Inactive)
REMARK    1  A    between atoms: C_1  and  N_2
REMARK    2  A    between atoms: C_5  and  N_6
REMARK    3  A    between atoms: C_7  and  C_9
REMARK    4  A    between atoms: C_11  and  N_12
REMARK    5  A    between atoms: C_14  and  N_15
REMARK    6  A    between atoms: N_18  and  C_19
REMARK                            x       y       z     vdW  Elec       q    Type
REMARK                         _______ _______ _______ _____ _____    ______ ____
ROOT
ATOM      1  N   UNL     1       8.077   8.004  18.106  0.00  0.00    +0.000 N 
ATOM      2  C   UNL     1       7.771   6.936  18.916  0.00  0.00    +0.000 A 
ATOM      3  C   UNL     1       7.180   5.968  18.145  0.00  0.00    +0.000 A 
ATOM      4  C   UNL     1       7.214   6.516  16.849  0.00  0.00    +0.000 A 
ATOM      5  N   UNL     1       7.712   7.758  16.822  0.00  0.00    +0.000 NA
ENDROOT
BRANCH   3   6
ATOM      6  N   UNL     1       6.665   4.749  18.568  0.00  0.00    +0.000 N 
ATOM      7  C   UNL     1       5.336   4.588  18.957  0.00  0.00    +0.000 C 
ATOM      8  O   UNL     1       4.510   5.482  18.968  0.00  0.00    +0.000 OA
ATOM      9  N   UNL     1       5.050   3.301  19.362  0.00  0.00    +0.000 N 
ATOM     10  H   UNL     1       7.235   3.928  18.436  0.00  0.00    +0.000 HD
ATOM     11  H   UNL     1       5.779   2.846  19.886  0.00  0.00    +0.000 HD
BRANCH   9  12
ATOM     12  C   UNL     1       3.715   2.994  19.762  0.00  0.00    +0.000 A 
ATOM     13  C   UNL     1       3.407   2.884  21.123  0.00  0.00    +0.000 A 
ATOM     14  C   UNL     1       2.089   2.698  21.543  0.00  0.00    +0.000 A 
ATOM     15  C   UNL     1       1.064   2.609  20.606  0.00  0.00    +0.000 A 
ATOM     16  C   UNL     1       1.360   2.663  19.243  0.00  0.00    +0.000 A 
ATOM     17  C   UNL     1       2.683   2.846  18.820  0.00  0.00    +0.000 A 
ATOM     18 CL   UNL     1       3.012   2.769  17.127  0.00  0.00    +0.000 Cl
ENDBRANCH   9  12
ENDBRANCH   3   6
BRANCH   1  21
ATOM     19  C   UNL     1       9.705  11.319  18.383  0.00  0.00    +0.000 A 
ATOM     20  C   UNL     1       9.130  10.267  17.681  0.00  0.00    +0.000 A 
ATOM     21  C   UNL     1       8.702   9.209  18.544  0.00  0.00    +0.000 A 
ATOM     22  C   UNL     1       8.974   9.490  19.870  0.00  0.00    +0.000 A 
ATOM     23  S   UNL     1       9.773  10.974  20.064  0.00  0.00    +0.000 S 
BRANCH  19  25
ATOM     24  N   UNL     1       9.989  13.686  18.643  0.00  0.00    +0.000 N 
ATOM     25  C   UNL     1      10.243  12.572  17.866  0.00  0.00    +0.000 C 
ATOM     26  O   UNL     1      10.871  12.651  16.808  0.00  0.00    +0.000 OA
ATOM     27  H   UNL     1       9.311  13.598  19.394  0.00  0.00    +0.000 HD
BRANCH  24  32
ATOM     28  C   UNL     1       8.345  17.979  18.903  0.00  0.00    +0.000 C 
ATOM     29  N   UNL     1       9.125  16.772  19.137  0.00  0.00    +0.000 NA
ATOM     30  C   UNL     1      10.499  17.064  19.543  0.00  0.00    +0.000 C 
ATOM     31  C   UNL     1      11.191  15.718  19.384  0.00  0.00    +0.000 C 
ATOM     32  C   UNL     1      10.432  15.016  18.252  0.00  0.00    +0.000 C 
ATOM     33  C   UNL     1       9.266  15.956  17.922  0.00  0.00    +0.000 C 
ENDBRANCH  24  32
ENDBRANCH  19  25
ENDBRANCH   1  21
TORSDOF 5
ENDMDL
MODEL 5
REMARK VINA RESULT:      -7.6      1.011      1.338
REMARK  Name = 
REMARK  6 active torsions:
REMARK  status: ('A' for Active; 'I' for Inactive)
REMARK    1  A    between atoms: C_1  and  N_2
REMARK    2  A    between atoms: C_5  and  N_6
REMARK    3  A    between atoms: C_7  and  C_9
REMARK    4  A    between atoms: C_11  and  N_12
REMARK    5  A    between atoms: C_14  and  N_15
REMARK    6  A    between atoms: N_18  and  C_19
REMARK                            x       y       z     vdW  Elec       q    Type
REMARK                         _______ _______ _______ _____ _____    ______ ____
ROOT
ATOM      1  N   UNL     1       3.321  15.393  18.574  0.00  0.00    +0.000 N 
ATOM      2  C   UNL     1       4.292  14.547  18.089  0.00  0.00    +0.000 A 
ATOM      3  C   UNL     1       5.469  15.246  18.011  0.00  0.00    +0.000 A 
ATOM      4  C   UNL     1       5.134  16.512  18.525  0.00  0.00    +0.000 A 
ATOM      5  N   UNL     1       3.834  16.624  18.826  0.00  0.00    +0.000 NA
ENDROOT
BRANCH   3   6
ATOM      6  N   UNL     1       6.688  14.793  17.523  0.00  0.00    +0.000 N 
ATOM      7  C   UNL     1       7.695  14.300  18.352  0.00  0.00    +0.000 C 
ATOM      8  O   UNL     1       7.610  14.220  19.564  0.00  0.00    +0.000 OA
ATOM      9  N   UNL     1       8.827  13.930  17.655  0.00  0.00    +0.000 N 
ATOM     10  H   UNL     1       6.779  14.675  16.526  0.00  0.00    +0.000 HD
ATOM     11  H   UNL     1       9.069  14.529  16.884  0.00  0.00    +0.000 HD
BRANCH   9  12
ATOM     12  C   UNL     1       9.925  13.383  18.384  0.00  0.00    +0.000 A 
ATOM     13  C   UNL     1      10.022  11.996  18.554  0.00  0.00    +0.000 A 
ATOM     14  C   UNL     1      11.142  11.429  19.164  0.00  0.00    +0.000 A 
ATOM     15  C   UNL     1      12.175  12.243  19.620  0.00  0.00    +0.000 A 
ATOM     16  C   UNL     1      12.071  13.630  19.506  0.00  0.00    +0.000 A 
ATOM     17  C   UNL     1      10.945  14.201  18.899  0.00  0.00    +0.000 A 
ATOM     18 CL   UNL     1      10.802  15.921  18.906  0.00  0.00    +0.000 Cl
ENDBRANCH   9  12
ENDBRANCH   3   6
BRANCH   1  21
ATOM     19  C   UNL     1       0.064  13.662  18.906  0.00  0.00    +0.000 A 
ATOM     20  C   UNL     1       1.421  13.719  18.616  0.00  0.00    +0.000 A 
ATOM     21  C   UNL     1       1.959  15.033  18.795  0.00  0.00    +0.000 A 
ATOM     22  C   UNL     1       0.990  15.930  19.207  0.00  0.00    +0.000 A 
ATOM     23  S   UNL     1      -0.543  15.213  19.327  0.00  0.00    +0.000 S 
BRANCH  19  25
ATOM     24  N   UNL     1      -1.427  12.278  17.635  0.00  0.00    +0.000 N 
ATOM     25  C   UNL     1      -0.829  12.510  18.859  0.00  0.00    +0.000 C 
ATOM     26  O   UNL     1      -1.054  11.790  19.835  0.00  0.00    +0.000 OA
ATOM     27  H   UNL     1      -1.359  13.004  16.928  0.00  0.00    +0.000 HD
BRANCH  24  32
ATOM     28  C   UNL     1      -5.998  11.791  17.383  0.00  0.00    +0.000 C 
ATOM     29  N   UNL     1      -4.588  11.881  17.033  0.00  0.00    +0.000 NA
ATOM     30  C   UNL     1      -4.237  11.024  15.901  0.00  0.00    +0.000 C 
ATOM     31  C   UNL     1      -2.716  11.009  15.948  0.00  0.00    +0.000 C 
ATOM     32  C   UNL     1      -2.366  11.186  17.430  0.00  0.00    +0.000 C 
ATOM     33  C   UNL     1      -3.714  11.425  18.123  0.00  0.00    +0.000 C 
ENDBRANCH  24  32
ENDBRANCH  19  25
ENDBRANCH   1  21
TORSDOF 5
ENDMDL
MODEL 6
REMARK VINA RESULT:      -7.4      6.915      9.980
REMARK  Name = 
REMARK  6 active torsions:
REMARK  status: ('A' for Active; 'I' for Inactive)
REMARK    1  A    between atoms: C_1  and  N_2
REMARK    2  A    between atoms: C_5  and  N_6
REMARK    3  A    between atoms: C_7  and  C_9
REMARK    4  A    between atoms: C_11  and  N_12
REMARK    5  A    between atoms: C_14  and  N_15
REMARK    6  A    between atoms: N_18  and  C_19
REMARK                            x       y       z     vdW  Elec       q    Type
REMARK                         _______ _______ _______ _____ _____    ______ ____
ROOT
ATOM      1  N   UNL     1       1.464   7.945  20.125  0.00  0.00    +0.000 N 
ATOM      2  C   UNL     1       1.557   8.944  19.185  0.00  0.00    +0.000 A 
ATOM      3  C   UNL     1       0.785   9.998  19.602  0.00  0.00    +0.000 A 
ATOM      4  C   UNL     1       0.292   9.571  20.849  0.00  0.00    +0.000 A 
ATOM      5  N   UNL     1       0.660   8.321  21.153  0.00  0.00    +0.000 NA
ENDROOT
BRANCH   3   6
ATOM      6  N   UNL     1       0.548  11.189  18.927  0.00  0.00    +0.000 N 
ATOM      7  C   UNL     1       1.081  12.409  19.343  0.00  0.00    +0.000 C 
ATOM      8  O   UNL     1       1.792  12.550  20.322  0.00  0.00    +0.000 OA
ATOM      9  N   UNL     1       0.696  13.462  18.540  0.00  0.00    +0.000 N 
ATOM     10  H   UNL     1       0.106  11.136  18.023  0.00  0.00    +0.000 HD
ATOM     11  H   UNL     1      -0.254  13.423  18.210  0.00  0.00    +0.000 HD
BRANCH   9  12
ATOM     12  C   UNL     1       1.195  14.765  18.841  0.00  0.00    +0.000 A 
ATOM     13  C   UNL     1       2.452  15.154  18.362  0.00  0.00    +0.000 A 
ATOM     14  C   UNL     1       2.913  16.458  18.547  0.00  0.00    +0.000 A 
ATOM     15  C   UNL     1       2.127  17.387  19.222  0.00  0.00    +0.000 A 
ATOM     16  C   UNL     1       0.895  17.001  19.753  0.00  0.00    +0.000 A 
ATOM     17  C   UNL     1       0.433  15.692  19.573  0.00  0.00    +0.000 A 
ATOM     18 CL   UNL     1      -1.030  15.230  20.364  0.00  0.00    +0.000 Cl
ENDBRANCH   9  12
ENDBRANCH   3   6
BRANCH   1  21
ATOM     19  C   UNL     1       3.722   5.105  19.382  0.00  0.00    +0.000 A 
ATOM     20  C   UNL     1       3.295   6.422  19.265  0.00  0.00    +0.000 A 
ATOM     21  C   UNL     1       2.126   6.684  20.048  0.00  0.00    +0.000 A 
ATOM     22  C   UNL     1       1.700   5.555  20.724  0.00  0.00    +0.000 A 
ATOM     23  S   UNL     1       2.661   4.199  20.384  0.00  0.00    +0.000 S 
BRANCH  19  25
ATOM     24  N   UNL     1       5.139   4.863  17.462  0.00  0.00    +0.000 N 
ATOM     25  C   UNL     1       4.874   4.464  18.758  0.00  0.00    +0.000 C 
ATOM     26  O   UNL     1       5.565   3.616  19.327  0.00  0.00    +0.000 OA
ATOM     27  H   UNL     1       4.434   5.412  16.980  0.00  0.00    +0.000 HD
BRANCH  24  32
ATOM     28  C   UNL     1       5.883   3.666  13.078  0.00  0.00    +0.000 C 
ATOM     29  N   UNL     1       5.912   4.373  14.351  0.00  0.00    +0.000 NA
ATOM     30  C   UNL     1       7.192   5.039  14.592  0.00  0.00    +0.000 C 
ATOM     31  C   UNL     1       7.116   5.389  16.071  0.00  0.00    +0.000 C 
ATOM     32  C   UNL     1       6.234   4.297  16.689  0.00  0.00    +0.000 C 
ATOM     33  C   UNL     1       5.750   3.464  15.495  0.00  0.00    +0.000 C 
ENDBRANCH  24  32
ENDBRANCH  19  25
ENDBRANCH   1  21
TORSDOF 5
ENDMDL
MODEL 7
REMARK VINA RESULT:      -7.4      7.598     10.801
REMARK  Name = 
REMARK  6 active torsions:
REMARK  status: ('A' for Active; 'I' for Inactive)
REMARK    1  A    between atoms: C_1  and  N_2
REMARK    2  A    between atoms: C_5  and  N_6
REMARK    3  A    between atoms: C_7  and  C_9
REMARK    4  A    between atoms: C_11  and  N_12
REMARK    5  A    between atoms: C_14  and  N_15
REMARK    6  A    between atoms: N_18  and  C_19
REMARK                            x       y       z     vdW  Elec       q    Type
REMARK                         _______ _______ _______ _____ _____    ______ ____
ROOT
ATOM      1  N   UNL     1       0.274   9.761  21.244  0.00  0.00    +0.000 N 
ATOM      2  C   UNL     1      -0.535  10.868  21.343  0.00  0.00    +0.000 A 
ATOM      3  C   UNL     1      -1.021  10.932  22.624  0.00  0.00    +0.000 A 
ATOM      4  C   UNL     1      -0.407   9.837  23.262  0.00  0.00    +0.000 A 
ATOM      5  N   UNL     1       0.340   9.101  22.429  0.00  0.00    +0.000 NA
ENDROOT
BRANCH   3   6
ATOM      6  N   UNL     1      -1.917  11.857  23.142  0.00  0.00    +0.000 N 
ATOM      7  C   UNL     1      -1.538  13.146  23.515  0.00  0.00    +0.000 C 
ATOM      8  O   UNL     1      -0.404  13.581  23.428  0.00  0.00    +0.000 OA
ATOM      9  N   UNL     1      -2.585  13.885  24.026  0.00  0.00    +0.000 N 
ATOM     10  H   UNL     1      -2.899  11.634  23.097  0.00  0.00    +0.000 HD
ATOM     11  H   UNL     1      -3.228  13.370  24.604  0.00  0.00    +0.000 HD
BRANCH   9  12
ATOM     12  C   UNL     1      -2.336  15.233  24.421  0.00  0.00    +0.000 A 
ATOM     13  C   UNL     1      -1.851  15.500  25.708  0.00  0.00    +0.000 A 
ATOM     14  C   UNL     1      -1.494  16.797  26.080  0.00  0.00    +0.000 A 
ATOM     15  C   UNL     1      -1.626  17.844  25.173  0.00  0.00    +0.000 A 
ATOM     16  C   UNL     1      -2.158  17.605  23.905  0.00  0.00    +0.000 A 
ATOM     17  C   UNL     1      -2.521  16.305  23.532  0.00  0.00    +0.000 A 
ATOM     18 CL   UNL     1      -3.299  16.085  22.006  0.00  0.00    +0.000 Cl
ENDBRANCH   9  12
ENDBRANCH   3   6
BRANCH   1  21
ATOM     19  C   UNL     1       2.261   8.000  18.662  0.00  0.00    +0.000 A 
ATOM     20  C   UNL     1       1.693   8.132  19.923  0.00  0.00    +0.000 A 
ATOM     21  C   UNL     1       0.963   9.354  20.063  0.00  0.00    +0.000 A 
ATOM     22  C   UNL     1       1.009  10.113  18.907  0.00  0.00    +0.000 A 
ATOM     23  S   UNL     1       1.953   9.387  17.698  0.00  0.00    +0.000 S 
BRANCH  19  25
ATOM     24  N   UNL     1       2.504   5.642  18.294  0.00  0.00    +0.000 N 
ATOM     25  C   UNL     1       3.058   6.898  18.134  0.00  0.00    +0.000 C 
ATOM     26  O   UNL     1       4.154   7.057  17.592  0.00  0.00    +0.000 OA
ATOM     27  H   UNL     1       1.702   5.551  18.911  0.00  0.00    +0.000 HD
BRANCH  24  32
ATOM     28  C   UNL     1       4.497   1.992  20.271  0.00  0.00    +0.000 C 
ATOM     29  N   UNL     1       3.561   2.848  19.556  0.00  0.00    +0.000 NA
ATOM     30  C   UNL     1       2.837   2.131  18.507  0.00  0.00    +0.000 C 
ATOM     31  C   UNL     1       2.214   3.259  17.696  0.00  0.00    +0.000 C 
ATOM     32  C   UNL     1       3.185   4.436  17.849  0.00  0.00    +0.000 C 
ATOM     33  C   UNL     1       4.239   3.946  18.850  0.00  0.00    +0.000 C 
ENDBRANCH  24  32
ENDBRANCH  19  25
ENDBRANCH   1  21
TORSDOF 5
ENDMDL
MODEL 8
REMARK VINA RESULT:      -7.3      6.678      9.953
REMARK  Name = 
REMARK  6 active torsions:
REMARK  status: ('A' for Active; 'I' for Inactive)
REMARK    1  A    between atoms: C_1  and  N_2
REMARK    2  A    between atoms: C_5  and  N_6
REMARK    3  A    between atoms: C_7  and  C_9
REMARK    4  A    between atoms: C_11  and  N_12
REMARK    5  A    between atoms: C_14  and  N_15
REMARK    6  A    between atoms: N_18  and  C_19
REMARK                            x       y       z     vdW  Elec       q    Type
REMARK                         _______ _______ _______ _____ _____    ______ ____
ROOT
ATOM      1  N   UNL     1       1.457   8.042  20.122  0.00  0.00    +0.000 N 
ATOM      2  C   UNL     1       1.526   9.011  19.149  0.00  0.00    +0.000 A 
ATOM      3  C   UNL     1       0.789  10.091  19.565  0.00  0.00    +0.000 A 
ATOM      4  C   UNL     1       0.342   9.709  20.844  0.00  0.00    +0.000 A 
ATOM      5  N   UNL     1       0.703   8.462  21.170  0.00  0.00    +0.000 NA
ENDROOT
BRANCH   3   6
ATOM      6  N   UNL     1       0.543  11.265  18.865  0.00  0.00    +0.000 N 
ATOM      7  C   UNL     1       0.861  12.524  19.372  0.00  0.00    +0.000 C 
ATOM      8  O   UNL     1       1.374  12.718  20.460  0.00  0.00    +0.000 OA
ATOM      9  N   UNL     1       0.507  13.549  18.519  0.00  0.00    +0.000 N 
ATOM     10  H   UNL     1       0.271  11.185  17.898  0.00  0.00    +0.000 HD
ATOM     11  H   UNL     1      -0.362  13.416  18.030  0.00  0.00    +0.000 HD
BRANCH   9  12
ATOM     12  C   UNL     1       0.802  14.890  18.908  0.00  0.00    +0.000 A 
ATOM     13  C   UNL     1      -0.193  15.673  19.506  0.00  0.00    +0.000 A 
ATOM     14  C   UNL     1       0.102  16.946  19.997  0.00  0.00    +0.000 A 
ATOM     15  C   UNL     1       1.392  17.455  19.887  0.00  0.00    +0.000 A 
ATOM     16  C   UNL     1       2.383  16.710  19.246  0.00  0.00    +0.000 A 
ATOM     17  C   UNL     1       2.088  15.434  18.748  0.00  0.00    +0.000 A 
ATOM     18 CL   UNL     1       3.308  14.612  17.846  0.00  0.00    +0.000 Cl
ENDBRANCH   9  12
ENDBRANCH   3   6
BRANCH   1  21
ATOM     19  C   UNL     1       3.657   5.153  19.399  0.00  0.00    +0.000 A 
ATOM     20  C   UNL     1       3.254   6.475  19.269  0.00  0.00    +0.000 A 
ATOM     21  C   UNL     1       2.096   6.769  20.055  0.00  0.00    +0.000 A 
ATOM     22  C   UNL     1       1.653   5.656  20.748  0.00  0.00    +0.000 A 
ATOM     23  S   UNL     1       2.587   4.278  20.418  0.00  0.00    +0.000 S 
BRANCH  19  25
ATOM     24  N   UNL     1       5.139   4.953  17.522  0.00  0.00    +0.000 N 
ATOM     25  C   UNL     1       4.793   4.483  18.775  0.00  0.00    +0.000 C 
ATOM     26  O   UNL     1       5.405   3.554  19.308  0.00  0.00    +0.000 OA
ATOM     27  H   UNL     1       4.491   5.579  17.054  0.00  0.00    +0.000 HD
BRANCH  24  32
ATOM     28  C   UNL     1       5.848   3.650  13.164  0.00  0.00    +0.000 C 
ATOM     29  N   UNL     1       5.886   4.388  14.418  0.00  0.00    +0.000 NA
ATOM     30  C   UNL     1       7.165   5.066  14.630  0.00  0.00    +0.000 C 
ATOM     31  C   UNL     1       7.101   5.452  16.101  0.00  0.00    +0.000 C 
ATOM     32  C   UNL     1       6.229   4.373  16.754  0.00  0.00    +0.000 C 
ATOM     33  C   UNL     1       5.738   3.508  15.586  0.00  0.00    +0.000 C 
ENDBRANCH  24  32
ENDBRANCH  19  25
ENDBRANCH   1  21
TORSDOF 5
ENDMDL
MODEL 9
REMARK VINA RESULT:      -7.3      7.475     11.069
REMARK  Name = 
REMARK  6 active torsions:
REMARK  status: ('A' for Active; 'I' for Inactive)
REMARK    1  A    between atoms: C_1  and  N_2
REMARK    2  A    between atoms: C_5  and  N_6
REMARK    3  A    between atoms: C_7  and  C_9
REMARK    4  A    between atoms: C_11  and  N_12
REMARK    5  A    between atoms: C_14  and  N_15
REMARK    6  A    between atoms: N_18  and  C_19
REMARK                            x       y       z     vdW  Elec       q    Type
REMARK                         _______ _______ _______ _____ _____    ______ ____
ROOT
ATOM      1  N   UNL     1       0.592   9.298  21.324  0.00  0.00    +0.000 N 
ATOM      2  C   UNL     1      -0.356  10.288  21.219  0.00  0.00    +0.000 A 
ATOM      3  C   UNL     1      -0.779  10.612  22.483  0.00  0.00    +0.000 A 
ATOM      4  C   UNL     1       0.012   9.796  23.313  0.00  0.00    +0.000 A 
ATOM      5  N   UNL     1       0.809   8.971  22.624  0.00  0.00    +0.000 NA
ENDROOT
BRANCH   3   6
ATOM      6  N   UNL     1      -1.768  11.522  22.834  0.00  0.00    +0.000 N 
ATOM      7  C   UNL     1      -1.484  12.837  23.202  0.00  0.00    +0.000 C 
ATOM      8  O   UNL     1      -0.363  13.310  23.254  0.00  0.00    +0.000 OA
ATOM      9  N   UNL     1      -2.615  13.555  23.534  0.00  0.00    +0.000 N 
ATOM     10  H   UNL     1      -2.727  11.261  22.664  0.00  0.00    +0.000 HD
ATOM     11  H   UNL     1      -3.315  13.038  24.039  0.00  0.00    +0.000 HD
BRANCH   9  12
ATOM     12  C   UNL     1      -2.466  14.924  23.904  0.00  0.00    +0.000 A 
ATOM     13  C   UNL     1      -2.322  15.266  25.254  0.00  0.00    +0.000 A 
ATOM     14  C   UNL     1      -2.063  16.584  25.633  0.00  0.00    +0.000 A 
ATOM     15  C   UNL     1      -1.953  17.579  24.665  0.00  0.00    +0.000 A 
ATOM     16  C   UNL     1      -2.147  17.265  23.319  0.00  0.00    +0.000 A 
ATOM     17  C   UNL     1      -2.412  15.944  22.938  0.00  0.00    +0.000 A 
ATOM     18 CL   UNL     1      -2.777  15.634  21.280  0.00  0.00    +0.000 Cl
ENDBRANCH   9  12
ENDBRANCH   3   6
BRANCH   1  21
ATOM     19  C   UNL     1       2.407   7.045  19.012  0.00  0.00    +0.000 A 
ATOM     20  C   UNL     1       1.801   7.366  20.219  0.00  0.00    +0.000 A 
ATOM     21  C   UNL     1       1.270   8.694  20.223  0.00  0.00    +0.000 A 
ATOM     22  C   UNL     1       1.500   9.340  19.022  0.00  0.00    +0.000 A 
ATOM     23  S   UNL     1       2.379   8.381  17.933  0.00  0.00    +0.000 S 
BRANCH  19  25
ATOM     24  N   UNL     1       4.371   5.899  18.246  0.00  0.00    +0.000 N 
ATOM     25  C   UNL     1       3.044   5.793  18.617  0.00  0.00    +0.000 C 
ATOM     26  O   UNL     1       2.452   4.711  18.600  0.00  0.00    +0.000 OA
ATOM     27  H   UNL     1       4.749   6.829  18.095  0.00  0.00    +0.000 HD
BRANCH  24  32
ATOM     28  C   UNL     1       6.754   4.715  14.489  0.00  0.00    +0.000 C 
ATOM     29  N   UNL     1       6.403   5.129  15.840  0.00  0.00    +0.000 NA
ATOM     30  C   UNL     1       7.362   4.654  16.837  0.00  0.00    +0.000 C 
ATOM     31  C   UNL     1       6.627   4.889  18.149  0.00  0.00    +0.000 C 
ATOM     32  C   UNL     1       5.140   4.749  17.799  0.00  0.00    +0.000 C 
ATOM     33  C   UNL     1       5.114   4.573  16.275  0.00  0.00    +0.000 C 
ENDBRANCH  24  32
ENDBRANCH  19  25
ENDBRANCH   1  21
TORSDOF 5
ENDMDL
