MODEL 1
REMARK VINA RESULT:      -7.2      0.000      0.000
REMARK  Name = 
REMARK  4 active torsions:
REMARK  status: ('A' for Active; 'I' for Inactive)
REMARK    1  A    between atoms: N_3  and  C_4
REMARK    2  A    between atoms: C_4  and  C_5
REMARK    3  A    between atoms: N_15  and  C_16
REMARK    4  A    between atoms: C_16  and  C_17
REMARK                            x       y       z     vdW  Elec       q    Type
REMARK                         _______ _______ _______ _____ _____    ______ ____
ROOT
ATOM      1  O   UNL     1       2.278   8.812  17.455  0.00  0.00    +0.000 OA
ATOM      2  C   UNL     1       1.829   8.831  18.588  0.00  0.00    +0.000 C 
ATOM      3  N   UNL     1       1.991   7.844  19.564  0.00  0.00    +0.000 N 
ATOM      4  C   UNL     1       1.470   8.283  20.847  0.00  0.00    +0.000 C 
ATOM      5  C   UNL     1       0.578   9.462  20.464  0.00  0.00    +0.000 C 
ATOM      6  C   UNL     1       0.600  10.663  21.425  0.00  0.00    +0.000 C 
ATOM      7  N   UNL     1      -0.085  11.868  20.879  0.00  0.00    +0.000 NA
ATOM      8  C   UNL     1       0.527  12.215  19.565  0.00  0.00    +0.000 C 
ATOM      9  C   UNL     1       0.622  11.065  18.532  0.00  0.00    +0.000 C 
ATOM     10  N   UNL     1       1.087   9.843  19.163  0.00  0.00    +0.000 N 
ENDROOT
BRANCH   3  11
ATOM     11  C   UNL     1       2.906   6.730  19.425  0.00  0.00    +0.000 C 
BRANCH  11  12
ATOM     12  C   UNL     1       2.194   5.415  19.225  0.00  0.00    +0.000 A 
ATOM     13  C   UNL     1       2.073   4.865  17.938  0.00  0.00    +0.000 A 
ATOM     14  C   UNL     1       1.434   3.639  17.747  0.00  0.00    +0.000 A 
ATOM     15  C   UNL     1       0.919   2.960  18.843  0.00  0.00    +0.000 A 
ATOM     16  F   UNL     1       0.301   1.784  18.662  0.00  0.00    +0.000 F 
ATOM     17  C   UNL     1       1.036   3.479  20.127  0.00  0.00    +0.000 A 
ATOM     18  C   UNL     1       1.674   4.706  20.320  0.00  0.00    +0.000 A 
ENDBRANCH  11  12
ENDBRANCH   3  11
BRANCH   7  19
ATOM     19  C   UNL     1      -1.545  11.634  20.781  0.00  0.00    +0.000 C 
BRANCH  19  20
ATOM     20  C   UNL     1      -2.366  12.373  21.808  0.00  0.00    +0.000 A 
ATOM     21  N   UNL     1      -2.490  11.984  23.063  0.00  0.00    +0.000 NA
ATOM     22  C   UNL     1      -3.296  12.870  23.747  0.00  0.00    +0.000 A 
ATOM     23  C   UNL     1      -3.762  13.939  23.011  0.00  0.00    +0.000 A 
ATOM     24  S   UNL     1      -3.185  13.830  21.401  0.00  0.00    +0.000 S 
ENDBRANCH  19  20
ENDBRANCH   7  19
TORSDOF 4
ENDMDL
MODEL 2
REMARK VINA RESULT:      -7.1      0.206      1.009
REMARK  Name = 
REMARK  4 active torsions:
REMARK  status: ('A' for Active; 'I' for Inactive)
REMARK    1  A    between atoms: N_3  and  C_4
REMARK    2  A    between atoms: C_4  and  C_5
REMARK    3  A    between atoms: N_15  and  C_16
REMARK    4  A    between atoms: C_16  and  C_17
REMARK                            x       y       z     vdW  Elec       q    Type
REMARK                         _______ _______ _______ _____ _____    ______ ____
ROOT
ATOM      1  O   UNL     1       2.151   8.883  17.487  0.00  0.00    +0.000 OA
ATOM      2  C   UNL     1       1.747   8.899  18.637  0.00  0.00    +0.000 C 
ATOM      3  N   UNL     1       1.972   7.924  19.612  0.00  0.00    +0.000 N 
ATOM      4  C   UNL     1       1.490   8.361  20.912  0.00  0.00    +0.000 C 
ATOM      5  C   UNL     1       0.554   9.513  20.556  0.00  0.00    +0.000 C 
ATOM      6  C   UNL     1       0.582  10.722  21.508  0.00  0.00    +0.000 C 
ATOM      7  N   UNL     1      -0.154  11.904  20.981  0.00  0.00    +0.000 NA
ATOM      8  C   UNL     1       0.397  12.257  19.642  0.00  0.00    +0.000 C 
ATOM      9  C   UNL     1       0.481  11.102  18.613  0.00  0.00    +0.000 C 
ATOM     10  N   UNL     1       1.002   9.897  19.233  0.00  0.00    +0.000 N 
ENDROOT
BRANCH   3  11
ATOM     11  C   UNL     1       2.909   6.833  19.445  0.00  0.00    +0.000 C 
BRANCH  11  12
ATOM     12  C   UNL     1       2.223   5.506  19.234  0.00  0.00    +0.000 A 
ATOM     13  C   UNL     1       1.641   4.831  20.319  0.00  0.00    +0.000 A 
ATOM     14  C   UNL     1       0.987   3.613  20.129  0.00  0.00    +0.000 A 
ATOM     15  C   UNL     1       0.910   3.071  18.853  0.00  0.00    +0.000 A 
ATOM     16  F   UNL     1       0.285   1.899  18.669  0.00  0.00    +0.000 F 
ATOM     17  C   UNL     1       1.469   3.726  17.762  0.00  0.00    +0.000 A 
ATOM     18  C   UNL     1       2.126   4.944  17.950  0.00  0.00    +0.000 A 
ENDBRANCH  11  12
ENDBRANCH   3  11
BRANCH   7  19
ATOM     19  C   UNL     1      -1.610  11.633  20.942  0.00  0.00    +0.000 C 
BRANCH  19  20
ATOM     20  C   UNL     1      -2.420  12.425  21.937  0.00  0.00    +0.000 A 
ATOM     21  N   UNL     1      -2.904  11.918  23.056  0.00  0.00    +0.000 NA
ATOM     22  C   UNL     1      -3.589  12.893  23.750  0.00  0.00    +0.000 A 
ATOM     23  C   UNL     1      -3.602  14.141  23.164  0.00  0.00    +0.000 A 
ATOM     24  S   UNL     1      -2.740  14.097  21.684  0.00  0.00    +0.000 S 
ENDBRANCH  19  20
ENDBRANCH   7  19
TORSDOF 4
ENDMDL
MODEL 3
REMARK VINA RESULT:      -6.8      1.198      1.557
REMARK  Name = 
REMARK  4 active torsions:
REMARK  status: ('A' for Active; 'I' for Inactive)
REMARK    1  A    between atoms: N_3  and  C_4
REMARK    2  A    between atoms: C_4  and  C_5
REMARK    3  A    between atoms: N_15  and  C_16
REMARK    4  A    between atoms: C_16  and  C_17
REMARK                            x       y       z     vdW  Elec       q    Type
REMARK                         _______ _______ _______ _____ _____    ______ ____
ROOT
ATOM      1  O   UNL     1       2.552   8.388  17.730  0.00  0.00    +0.000 OA
ATOM      2  C   UNL     1       1.977   8.572  18.789  0.00  0.00    +0.000 C 
ATOM      3  N   UNL     1       1.979   7.719  19.896  0.00  0.00    +0.000 N 
ATOM      4  C   UNL     1       1.334   8.342  21.039  0.00  0.00    +0.000 C 
ATOM      5  C   UNL     1       0.548   9.486  20.403  0.00  0.00    +0.000 C 
ATOM      6  C   UNL     1       0.514  10.803  21.197  0.00  0.00    +0.000 C 
ATOM      7  N   UNL     1      -0.047  11.945  20.422  0.00  0.00    +0.000 NA
ATOM      8  C   UNL     1       0.728  12.095  19.158  0.00  0.00    +0.000 C 
ATOM      9  C   UNL     1       0.889  10.815  18.300  0.00  0.00    +0.000 C 
ATOM     10  N   UNL     1       1.221   9.674  19.135  0.00  0.00    +0.000 N 
ENDROOT
BRANCH   3  11
ATOM     11  C   UNL     1       2.851   6.569  20.013  0.00  0.00    +0.000 C 
BRANCH  11  12
ATOM     12  C   UNL     1       2.173   5.283  19.613  0.00  0.00    +0.000 A 
ATOM     13  C   UNL     1       1.503   4.508  20.574  0.00  0.00    +0.000 A 
ATOM     14  C   UNL     1       0.855   3.327  20.208  0.00  0.00    +0.000 A 
ATOM     15  C   UNL     1       0.873   2.922  18.881  0.00  0.00    +0.000 A 
ATOM     16  F   UNL     1       0.254   1.786  18.527  0.00  0.00    +0.000 F 
ATOM     17  C   UNL     1       1.520   3.678  17.910  0.00  0.00    +0.000 A 
ATOM     18  C   UNL     1       2.170   4.858  18.274  0.00  0.00    +0.000 A 
ENDBRANCH  11  12
ENDBRANCH   3  11
BRANCH   7  19
ATOM     19  C   UNL     1      -1.495  11.745  20.179  0.00  0.00    +0.000 C 
BRANCH  19  20
ATOM     20  C   UNL     1      -2.350  12.949  20.482  0.00  0.00    +0.000 A 
ATOM     21  N   UNL     1      -1.862  14.123  20.839  0.00  0.00    +0.000 NA
ATOM     22  C   UNL     1      -2.894  15.015  21.037  0.00  0.00    +0.000 A 
ATOM     23  C   UNL     1      -4.160  14.519  20.808  0.00  0.00    +0.000 A 
ATOM     24  S   UNL     1      -4.063  12.874  20.340  0.00  0.00    +0.000 S 
ENDBRANCH  19  20
ENDBRANCH   7  19
TORSDOF 4
ENDMDL
MODEL 4
REMARK VINA RESULT:      -6.7      1.272      1.365
REMARK  Name = 
REMARK  4 active torsions:
REMARK  status: ('A' for Active; 'I' for Inactive)
REMARK    1  A    between atoms: N_3  and  C_4
REMARK    2  A    between atoms: C_4  and  C_5
REMARK    3  A    between atoms: N_15  and  C_16
REMARK    4  A    between atoms: C_16  and  C_17
REMARK                            x       y       z     vdW  Elec       q    Type
REMARK                         _______ _______ _______ _____ _____    ______ ____
ROOT
ATOM      1  O   UNL     1       2.194   9.458  17.312  0.00  0.00    +0.000 OA
ATOM      2  C   UNL     1       1.917   9.042  18.423  0.00  0.00    +0.000 C 
ATOM      3  N   UNL     1       2.158   7.757  18.915  0.00  0.00    +0.000 N 
ATOM      4  C   UNL     1       1.855   7.672  20.334  0.00  0.00    +0.000 C 
ATOM      5  C   UNL     1       0.991   8.908  20.570  0.00  0.00    +0.000 C 
ATOM      6  C   UNL     1       1.225   9.650  21.898  0.00  0.00    +0.000 C 
ATOM      7  N   UNL     1       0.542  10.972  21.962  0.00  0.00    +0.000 NA
ATOM      8  C   UNL     1       0.978  11.796  20.799  0.00  0.00    +0.000 C 
ATOM      9  C   UNL     1       0.852  11.129  19.406  0.00  0.00    +0.000 C 
ATOM     10  N   UNL     1       1.328   9.758  19.447  0.00  0.00    +0.000 N 
ENDROOT
BRANCH   3  11
ATOM     11  C   UNL     1       2.974   6.780  18.224  0.00  0.00    +0.000 C 
BRANCH  11  12
ATOM     12  C   UNL     1       2.616   5.361  18.590  0.00  0.00    +0.000 A 
ATOM     13  C   UNL     1       1.643   4.665  17.854  0.00  0.00    +0.000 A 
ATOM     14  C   UNL     1       1.321   3.345  18.174  0.00  0.00    +0.000 A 
ATOM     15  C   UNL     1       1.975   2.719  19.227  0.00  0.00    +0.000 A 
ATOM     16  F   UNL     1       1.665   1.452  19.538  0.00  0.00    +0.000 F 
ATOM     17  C   UNL     1       2.949   3.384  19.962  0.00  0.00    +0.000 A 
ATOM     18  C   UNL     1       3.271   4.705  19.645  0.00  0.00    +0.000 A 
ENDBRANCH  11  12
ENDBRANCH   3  11
BRANCH   7  19
ATOM     19  C   UNL     1      -0.928  10.795  22.013  0.00  0.00    +0.000 C 
BRANCH  19  20
ATOM     20  C   UNL     1      -1.714  12.081  21.956  0.00  0.00    +0.000 A 
ATOM     21  N   UNL     1      -2.562  12.378  20.989  0.00  0.00    +0.000 NA
ATOM     22  C   UNL     1      -3.123  13.615  21.226  0.00  0.00    +0.000 A 
ATOM     23  C   UNL     1      -2.713  14.241  22.383  0.00  0.00    +0.000 A 
ATOM     24  S   UNL     1      -1.574  13.258  23.203  0.00  0.00    +0.000 S 
ENDBRANCH  19  20
ENDBRANCH   7  19
TORSDOF 4
ENDMDL
MODEL 5
REMARK VINA RESULT:      -6.7      4.115      8.347
REMARK  Name = 
REMARK  4 active torsions:
REMARK  status: ('A' for Active; 'I' for Inactive)
REMARK    1  A    between atoms: N_3  and  C_4
REMARK    2  A    between atoms: C_4  and  C_5
REMARK    3  A    between atoms: N_15  and  C_16
REMARK    4  A    between atoms: C_16  and  C_17
REMARK                            x       y       z     vdW  Elec       q    Type
REMARK                         _______ _______ _______ _____ _____    ______ ____
ROOT
ATOM      1  O   UNL     1       0.929   8.456  21.066  0.00  0.00    +0.000 OA
ATOM      2  C   UNL     1       1.418   8.446  19.950  0.00  0.00    +0.000 C 
ATOM      3  N   UNL     1       1.334   9.462  18.995  0.00  0.00    +0.000 N 
ATOM      4  C   UNL     1       2.184   9.179  17.851  0.00  0.00    +0.000 C 
ATOM      5  C   UNL     1       2.462   7.685  17.997  0.00  0.00    +0.000 C 
ATOM      6  C   UNL     1       3.886   7.226  17.638  0.00  0.00    +0.000 C 
ATOM      7  N   UNL     1       4.169   5.819  18.035  0.00  0.00    +0.000 NA
ATOM      8  C   UNL     1       3.902   5.666  19.493  0.00  0.00    +0.000 C 
ATOM      9  C   UNL     1       2.520   6.156  19.989  0.00  0.00    +0.000 C 
ATOM     10  N   UNL     1       2.186   7.440  19.397  0.00  0.00    +0.000 N 
ENDROOT
BRANCH   3  11
ATOM     11  C   UNL     1       0.811  10.782  19.281  0.00  0.00    +0.000 C 
BRANCH  11  12
ATOM     12  C   UNL     1      -0.642  10.926  18.902  0.00  0.00    +0.000 A 
ATOM     13  C   UNL     1      -1.450  11.876  19.549  0.00  0.00    +0.000 A 
ATOM     14  C   UNL     1      -2.790  12.029  19.190  0.00  0.00    +0.000 A 
ATOM     15  C   UNL     1      -3.322  11.237  18.182  0.00  0.00    +0.000 A 
ATOM     16  F   UNL     1      -4.610  11.380  17.838  0.00  0.00    +0.000 F 
ATOM     17  C   UNL     1      -2.539  10.298  17.521  0.00  0.00    +0.000 A 
ATOM     18  C   UNL     1      -1.199  10.142  17.879  0.00  0.00    +0.000 A 
ENDBRANCH  11  12
ENDBRANCH   3  11
BRANCH   7  19
ATOM     19  C   UNL     1       3.374   4.878  17.211  0.00  0.00    +0.000 C 
BRANCH  19  20
ATOM     20  C   UNL     1       3.114   3.544  17.864  0.00  0.00    +0.000 A 
ATOM     21  N   UNL     1       4.052   2.641  18.082  0.00  0.00    +0.000 NA
ATOM     22  C   UNL     1       3.501   1.537  18.697  0.00  0.00    +0.000 A 
ATOM     23  C   UNL     1       2.150   1.616  18.961  0.00  0.00    +0.000 A 
ATOM     24  S   UNL     1       1.539   3.120  18.412  0.00  0.00    +0.000 S 
ENDBRANCH  19  20
ENDBRANCH   7  19
TORSDOF 4
ENDMDL
MODEL 6
REMARK VINA RESULT:      -6.7      1.022      1.053
REMARK  Name = 
REMARK  4 active torsions:
REMARK  status: ('A' for Active; 'I' for Inactive)
REMARK    1  A    between atoms: N_3  and  C_4
REMARK    2  A    between atoms: C_4  and  C_5
REMARK    3  A    between atoms: N_15  and  C_16
REMARK    4  A    between atoms: C_16  and  C_17
REMARK                            x       y       z     vdW  Elec       q    Type
REMARK                         _______ _______ _______ _____ _____    ______ ____
ROOT
ATOM      1  O   UNL     1       2.107   9.630  17.259  0.00  0.00    +0.000 OA
ATOM      2  C   UNL     1       1.789   9.298  18.387  0.00  0.00    +0.000 C 
ATOM      3  N   UNL     1       1.983   8.042  18.970  0.00  0.00    +0.000 N 
ATOM      4  C   UNL     1       1.641   8.062  20.383  0.00  0.00    +0.000 C 
ATOM      5  C   UNL     1       0.805   9.332  20.511  0.00  0.00    +0.000 C 
ATOM      6  C   UNL     1       1.024  10.156  21.792  0.00  0.00    +0.000 C 
ATOM      7  N   UNL     1       0.376  11.496  21.749  0.00  0.00    +0.000 NA
ATOM      8  C   UNL     1       0.863  12.228  20.546  0.00  0.00    +0.000 C 
ATOM      9  C   UNL     1       0.756  11.472  19.198  0.00  0.00    +0.000 C 
ATOM     10  N   UNL     1       1.194  10.095  19.344  0.00  0.00    +0.000 N 
ENDROOT
BRANCH   3  11
ATOM     11  C   UNL     1       2.790   7.001  18.368  0.00  0.00    +0.000 C 
BRANCH  11  12
ATOM     12  C   UNL     1       2.393   5.620  18.828  0.00  0.00    +0.000 A 
ATOM     13  C   UNL     1       1.708   4.756  17.958  0.00  0.00    +0.000 A 
ATOM     14  C   UNL     1       1.355   3.469  18.369  0.00  0.00    +0.000 A 
ATOM     15  C   UNL     1       1.690   3.045  19.648  0.00  0.00    +0.000 A 
ATOM     16  F   UNL     1       1.350   1.811  20.046  0.00  0.00    +0.000 F 
ATOM     17  C   UNL     1       2.378   3.878  20.522  0.00  0.00    +0.000 A 
ATOM     18  C   UNL     1       2.730   5.166  20.114  0.00  0.00    +0.000 A 
ENDBRANCH  11  12
ENDBRANCH   3  11
BRANCH   7  19
ATOM     19  C   UNL     1      -1.099  11.359  21.772  0.00  0.00    +0.000 C 
BRANCH  19  20
ATOM     20  C   UNL     1      -1.814  12.439  22.546  0.00  0.00    +0.000 A 
ATOM     21  N   UNL     1      -1.201  13.306  23.330  0.00  0.00    +0.000 NA
ATOM     22  C   UNL     1      -2.125  14.163  23.888  0.00  0.00    +0.000 A 
ATOM     23  C   UNL     1      -3.433  13.955  23.507  0.00  0.00    +0.000 A 
ATOM     24  S   UNL     1      -3.519  12.632  22.422  0.00  0.00    +0.000 S 
ENDBRANCH  19  20
ENDBRANCH   7  19
TORSDOF 4
ENDMDL
MODEL 7
REMARK VINA RESULT:      -6.6      4.281      8.104
REMARK  Name = 
REMARK  4 active torsions:
REMARK  status: ('A' for Active; 'I' for Inactive)
REMARK    1  A    between atoms: N_3  and  C_4
REMARK    2  A    between atoms: C_4  and  C_5
REMARK    3  A    between atoms: N_15  and  C_16
REMARK    4  A    between atoms: C_16  and  C_17
REMARK                            x       y       z     vdW  Elec       q    Type
REMARK                         _______ _______ _______ _____ _____    ______ ____
ROOT
ATOM      1  O   UNL     1       0.978   8.236  21.057  0.00  0.00    +0.000 OA
ATOM      2  C   UNL     1       1.496   8.239  19.955  0.00  0.00    +0.000 C 
ATOM      3  N   UNL     1       1.455   9.275  19.018  0.00  0.00    +0.000 N 
ATOM      4  C   UNL     1       2.329   8.997  17.890  0.00  0.00    +0.000 C 
ATOM      5  C   UNL     1       2.574   7.496  18.013  0.00  0.00    +0.000 C 
ATOM      6  C   UNL     1       3.998   7.017  17.682  0.00  0.00    +0.000 C 
ATOM      7  N   UNL     1       4.244   5.596  18.057  0.00  0.00    +0.000 NA
ATOM      8  C   UNL     1       3.937   5.420  19.505  0.00  0.00    +0.000 C 
ATOM      9  C   UNL     1       2.551   5.928  19.975  0.00  0.00    +0.000 C 
ATOM     10  N   UNL     1       2.258   7.229  19.401  0.00  0.00    +0.000 N 
ENDROOT
BRANCH   3  11
ATOM     11  C   UNL     1       0.951  10.599  19.317  0.00  0.00    +0.000 C 
BRANCH  11  12
ATOM     12  C   UNL     1      -0.473  10.795  18.861  0.00  0.00    +0.000 A 
ATOM     13  C   UNL     1      -0.999  10.002  17.827  0.00  0.00    +0.000 A 
ATOM     14  C   UNL     1      -2.322  10.163  17.413  0.00  0.00    +0.000 A 
ATOM     15  C   UNL     1      -3.122  11.113  18.034  0.00  0.00    +0.000 A 
ATOM     16  F   UNL     1      -4.392  11.271  17.635  0.00  0.00    +0.000 F 
ATOM     17  C   UNL     1      -2.627  11.901  19.066  0.00  0.00    +0.000 A 
ATOM     18  C   UNL     1      -1.303  11.743  19.481  0.00  0.00    +0.000 A 
ENDBRANCH  11  12
ENDBRANCH   3  11
BRANCH   7  19
ATOM     19  C   UNL     1       3.453   4.688  17.195  0.00  0.00    +0.000 C 
BRANCH  19  20
ATOM     20  C   UNL     1       2.666   3.643  17.946  0.00  0.00    +0.000 A 
ATOM     21  N   UNL     1       1.348   3.619  18.002  0.00  0.00    +0.000 NA
ATOM     22  C   UNL     1       0.934   2.541  18.756  0.00  0.00    +0.000 A 
ATOM     23  C   UNL     1       1.941   1.740  19.250  0.00  0.00    +0.000 A 
ATOM     24  S   UNL     1       3.464   2.360  18.769  0.00  0.00    +0.000 S 
ENDBRANCH  19  20
ENDBRANCH   7  19
TORSDOF 4
ENDMDL
MODEL 8
REMARK VINA RESULT:      -6.5      3.332      4.386
REMARK  Name = 
REMARK  4 active torsions:
REMARK  status: ('A' for Active; 'I' for Inactive)
REMARK    1  A    between atoms: N_3  and  C_4
REMARK    2  A    between atoms: C_4  and  C_5
REMARK    3  A    between atoms: N_15  and  C_16
REMARK    4  A    between atoms: C_16  and  C_17
REMARK                            x       y       z     vdW  Elec       q    Type
REMARK                         _______ _______ _______ _____ _____    ______ ____
ROOT
ATOM      1  O   UNL     1       1.921   6.095  20.803  0.00  0.00    +0.000 OA
ATOM      2  C   UNL     1       1.939   6.930  19.916  0.00  0.00    +0.000 C 
ATOM      3  N   UNL     1       2.376   6.740  18.602  0.00  0.00    +0.000 N 
ATOM      4  C   UNL     1       2.088   7.903  17.779  0.00  0.00    +0.000 C 
ATOM      5  C   UNL     1       1.828   8.994  18.815  0.00  0.00    +0.000 C 
ATOM      6  C   UNL     1       0.699   9.984  18.481  0.00  0.00    +0.000 C 
ATOM      7  N   UNL     1       0.327  10.862  19.626  0.00  0.00    +0.000 NA
ATOM      8  C   UNL     1      -0.030  10.006  20.793  0.00  0.00    +0.000 C 
ATOM      9  C   UNL     1       1.004   8.923  21.186  0.00  0.00    +0.000 C 
ATOM     10  N   UNL     1       1.507   8.238  20.008  0.00  0.00    +0.000 N 
ENDROOT
BRANCH   3  11
ATOM     11  C   UNL     1       2.684   5.439  18.046  0.00  0.00    +0.000 C 
BRANCH  11  12
ATOM     12  C   UNL     1       4.168   5.183  17.957  0.00  0.00    +0.000 A 
ATOM     13  C   UNL     1       4.992   5.407  19.073  0.00  0.00    +0.000 A 
ATOM     14  C   UNL     1       6.363   5.154  19.004  0.00  0.00    +0.000 A 
ATOM     15  C   UNL     1       6.911   4.671  17.823  0.00  0.00    +0.000 A 
ATOM     16  F   UNL     1       8.227   4.430  17.754  0.00  0.00    +0.000 F 
ATOM     17  C   UNL     1       6.113   4.431  16.710  0.00  0.00    +0.000 A 
ATOM     18  C   UNL     1       4.742   4.686  16.776  0.00  0.00    +0.000 A 
ENDBRANCH  11  12
ENDBRANCH   3  11
BRANCH   7  19
ATOM     19  C   UNL     1       1.426  11.808  19.932  0.00  0.00    +0.000 C 
BRANCH  19  20
ATOM     20  C   UNL     1       1.142  13.239  19.548  0.00  0.00    +0.000 A 
ATOM     21  N   UNL     1      -0.036  13.665  19.133  0.00  0.00    +0.000 NA
ATOM     22  C   UNL     1       0.025  15.017  18.869  0.00  0.00    +0.000 A 
ATOM     23  C   UNL     1       1.245  15.614  19.106  0.00  0.00    +0.000 A 
ATOM     24  S   UNL     1       2.364  14.444  19.668  0.00  0.00    +0.000 S 
ENDBRANCH  19  20
ENDBRANCH   7  19
TORSDOF 4
ENDMDL
MODEL 9
REMARK VINA RESULT:      -6.5      3.109      4.085
REMARK  Name = 
REMARK  4 active torsions:
REMARK  status: ('A' for Active; 'I' for Inactive)
REMARK    1  A    between atoms: N_3  and  C_4
REMARK    2  A    between atoms: C_4  and  C_5
REMARK    3  A    between atoms: N_15  and  C_16
REMARK    4  A    between atoms: C_16  and  C_17
REMARK                            x       y       z     vdW  Elec       q    Type
REMARK                         _______ _______ _______ _____ _____    ______ ____
ROOT
ATOM      1  O   UNL     1       1.860   6.194  20.854  0.00  0.00    +0.000 OA
ATOM      2  C   UNL     1       1.919   6.981  19.926  0.00  0.00    +0.000 C 
ATOM      3  N   UNL     1       2.378   6.713  18.634  0.00  0.00    +0.000 N 
ATOM      4  C   UNL     1       2.139   7.839  17.747  0.00  0.00    +0.000 C 
ATOM      5  C   UNL     1       1.888   8.988  18.720  0.00  0.00    +0.000 C 
ATOM      6  C   UNL     1       0.793   9.989  18.312  0.00  0.00    +0.000 C 
ATOM      7  N   UNL     1       0.421  10.934  19.403  0.00  0.00    +0.000 NA
ATOM      8  C   UNL     1       0.017  10.148  20.603  0.00  0.00    +0.000 C 
ATOM      9  C   UNL     1       1.013   9.060  21.073  0.00  0.00    +0.000 C 
ATOM     10  N   UNL     1       1.521   8.303  19.942  0.00  0.00    +0.000 N 
ENDROOT
BRANCH   3  11
ATOM     11  C   UNL     1       2.662   5.377  18.152  0.00  0.00    +0.000 C 
BRANCH  11  12
ATOM     12  C   UNL     1       4.140   5.126  17.977  0.00  0.00    +0.000 A 
ATOM     13  C   UNL     1       5.028   5.369  19.037  0.00  0.00    +0.000 A 
ATOM     14  C   UNL     1       6.394   5.120  18.889  0.00  0.00    +0.000 A 
ATOM     15  C   UNL     1       6.871   4.623  17.684  0.00  0.00    +0.000 A 
ATOM     16  F   UNL     1       8.182   4.386  17.539  0.00  0.00    +0.000 F 
ATOM     17  C   UNL     1       6.009   4.364  16.625  0.00  0.00    +0.000 A 
ATOM     18  C   UNL     1       4.643   4.614  16.769  0.00  0.00    +0.000 A 
ENDBRANCH  11  12
ENDBRANCH   3  11
BRANCH   7  19
ATOM     19  C   UNL     1       1.539  11.865  19.684  0.00  0.00    +0.000 C 
BRANCH  19  20
ATOM     20  C   UNL     1       1.117  13.180  20.292  0.00  0.00    +0.000 A 
ATOM     21  N   UNL     1       1.233  13.463  21.576  0.00  0.00    +0.000 NA
ATOM     22  C   UNL     1       0.769  14.739  21.814  0.00  0.00    +0.000 A 
ATOM     23  C   UNL     1       0.323  15.426  20.706  0.00  0.00    +0.000 A 
ATOM     24  S   UNL     1       0.475  14.440  19.313  0.00  0.00    +0.000 S 
ENDBRANCH  19  20
ENDBRANCH   7  19
TORSDOF 4
ENDMDL
