MODEL 1
REMARK VINA RESULT:      -7.4      0.000      0.000
REMARK  Name = 
REMARK  18 active torsions:
REMARK  status: ('A' for Active; 'I' for Inactive)
REMARK    1  A    between atoms: C_1  and  O_2
REMARK    2  A    between atoms: O_2  and  C_3
REMARK    3  A    between atoms: C_5  and  O_6
REMARK    4  A    between atoms: O_6  and  C_7
REMARK    5  A    between atoms: C_8  and  C_9
REMARK    6  A    between atoms: C_10  and  C_11
REMARK    7  A    between atoms: C_11  and  O_13
REMARK    8  A    between atoms: O_13  and  C_14
REMARK    9  A    between atoms: C_14  and  C_15
REMARK   10  A    between atoms: C_16  and  C_17
REMARK   11  A    between atoms: C_19  and  O_20
REMARK   12  A    between atoms: O_20  and  C_21
REMARK   13  A    between atoms: C_22  and  O_23
REMARK   14  A    between atoms: O_23  and  C_24
REMARK   15  A    between atoms: C_26  and  O_27
REMARK   16  A    between atoms: O_27  and  C_28
REMARK   17  A    between atoms: C_29  and  O_30
REMARK   18  A    between atoms: O_30  and  C_31
REMARK                            x       y       z     vdW  Elec       q    Type
REMARK                         _______ _______ _______ _____ _____    ______ ____
ROOT
ATOM      1  C   UNL     1       7.258   6.160  16.407  0.00  0.00    +0.000 C 
ATOM      2  O   UNL     1       7.344   5.466  15.406  0.00  0.00    +0.000 OA
ENDROOT
BRANCH   1   4
ATOM      3  C   UNL     1       5.105   5.428  17.248  0.00  0.00    +0.000 C 
ATOM      4  C   UNL     1       6.343   5.863  17.535  0.00  0.00    +0.000 C 
BRANCH   3   8
ATOM      5  C   UNL     1       2.044   4.572  20.141  0.00  0.00    +0.000 A 
ATOM      6  C   UNL     1       3.064   3.652  19.910  0.00  0.00    +0.000 A 
ATOM      7  C   UNL     1       4.089   3.914  18.992  0.00  0.00    +0.000 A 
ATOM      8  C   UNL     1       4.072   5.109  18.247  0.00  0.00    +0.000 A 
ATOM      9  C   UNL     1       3.033   6.044  18.480  0.00  0.00    +0.000 A 
ATOM     10  C   UNL     1       2.023   5.765  19.422  0.00  0.00    +0.000 A 
BRANCH   5  12
ATOM     11  C   UNL     1       1.313   2.928  21.694  0.00  0.00    +0.000 C 
ATOM     12  O   UNL     1       1.105   4.183  21.058  0.00  0.00    +0.000 OA
ENDBRANCH   5  12
BRANCH   7  13
ATOM     13  O   UNL     1       4.988   2.884  18.884  0.00  0.00    +0.000 OA
ATOM     14  C   UNL     1       4.753   1.731  19.685  0.00  0.00    +0.000 C 
ENDBRANCH   7  13
BRANCH   9  15
ATOM     15  O   UNL     1       3.078   7.207  17.745  0.00  0.00    +0.000 OA
ATOM     16  C   UNL     1       2.088   8.195  18.011  0.00  0.00    +0.000 C 
ENDBRANCH   9  15
ENDBRANCH   3   8
ENDBRANCH   1   4
BRANCH   1  17
ATOM     17  O   UNL     1       7.956   7.292  16.667  0.00  0.00    +0.000 OA
BRANCH  17  18
ATOM     18  C   UNL     1       7.639   7.913  17.920  0.00  0.00    +0.000 C 
BRANCH  18  19
ATOM     19  C   UNL     1       8.225   9.294  17.980  0.00  0.00    +0.000 C 
ATOM     20  C   UNL     1       9.137   9.654  18.899  0.00  0.00    +0.000 C 
BRANCH  20  21
ATOM     21  C   UNL     1       9.569  11.042  19.099  0.00  0.00    +0.000 A 
ATOM     22  C   UNL     1      10.085  11.722  17.983  0.00  0.00    +0.000 A 
ATOM     23  C   UNL     1      10.488  13.063  18.069  0.00  0.00    +0.000 A 
ATOM     24  C   UNL     1      10.390  13.741  19.296  0.00  0.00    +0.000 A 
ATOM     25  C   UNL     1       9.877  13.063  20.406  0.00  0.00    +0.000 A 
ATOM     26  C   UNL     1       9.473  11.724  20.323  0.00  0.00    +0.000 A 
BRANCH  23  27
ATOM     27  O   UNL     1      11.010  13.769  17.011  0.00  0.00    +0.000 OA
ATOM     28  C   UNL     1      12.333  13.430  16.614  0.00  0.00    +0.000 C 
ENDBRANCH  23  27
BRANCH  24  29
ATOM     29  O   UNL     1      10.797  15.053  19.314  0.00  0.00    +0.000 OA
ATOM     30  C   UNL     1      12.060  15.335  19.906  0.00  0.00    +0.000 C 
ENDBRANCH  24  29
BRANCH  26  31
ATOM     31  O   UNL     1       8.942  11.258  21.498  0.00  0.00    +0.000 OA
ATOM     32  C   UNL     1       8.243  12.189  22.311  0.00  0.00    +0.000 C 
ENDBRANCH  26  31
ENDBRANCH  20  21
ENDBRANCH  18  19
ENDBRANCH  17  18
ENDBRANCH   1  17
TORSDOF 12
ENDMDL
MODEL 2
REMARK VINA RESULT:      -7.0      5.456     10.638
REMARK  Name = 
REMARK  18 active torsions:
REMARK  status: ('A' for Active; 'I' for Inactive)
REMARK    1  A    between atoms: C_1  and  O_2
REMARK    2  A    between atoms: O_2  and  C_3
REMARK    3  A    between atoms: C_5  and  O_6
REMARK    4  A    between atoms: O_6  and  C_7
REMARK    5  A    between atoms: C_8  and  C_9
REMARK    6  A    between atoms: C_10  and  C_11
REMARK    7  A    between atoms: C_11  and  O_13
REMARK    8  A    between atoms: O_13  and  C_14
REMARK    9  A    between atoms: C_14  and  C_15
REMARK   10  A    between atoms: C_16  and  C_17
REMARK   11  A    between atoms: C_19  and  O_20
REMARK   12  A    between atoms: O_20  and  C_21
REMARK   13  A    between atoms: C_22  and  O_23
REMARK   14  A    between atoms: O_23  and  C_24
REMARK   15  A    between atoms: C_26  and  O_27
REMARK   16  A    between atoms: O_27  and  C_28
REMARK   17  A    between atoms: C_29  and  O_30
REMARK   18  A    between atoms: O_30  and  C_31
REMARK                            x       y       z     vdW  Elec       q    Type
REMARK                         _______ _______ _______ _____ _____    ______ ____
ROOT
ATOM      1  C   UNL     1       0.767  11.546  19.011  0.00  0.00    +0.000 C 
ATOM      2  O   UNL     1       1.706  12.279  19.280  0.00  0.00    +0.000 OA
ENDROOT
BRANCH   1   4
ATOM      3  C   UNL     1      -1.601  11.150  18.670  0.00  0.00    +0.000 C 
ATOM      4  C   UNL     1      -0.593  12.039  18.688  0.00  0.00    +0.000 C 
BRANCH   3   8
ATOM      5  C   UNL     1      -5.681  12.044  17.656  0.00  0.00    +0.000 A 
ATOM      6  C   UNL     1      -5.184  12.377  18.915  0.00  0.00    +0.000 A 
ATOM      7  C   UNL     1      -3.853  12.120  19.264  0.00  0.00    +0.000 A 
ATOM      8  C   UNL     1      -3.001  11.471  18.350  0.00  0.00    +0.000 A 
ATOM      9  C   UNL     1      -3.507  11.130  17.070  0.00  0.00    +0.000 A 
ATOM     10  C   UNL     1      -4.845  11.414  16.736  0.00  0.00    +0.000 A 
BRANCH   5  12
ATOM     11  C   UNL     1      -7.435  13.633  17.864  0.00  0.00    +0.000 C 
ATOM     12  O   UNL     1      -7.001  12.343  17.452  0.00  0.00    +0.000 OA
ENDBRANCH   5  12
BRANCH   7  13
ATOM     13  O   UNL     1      -3.555  12.496  20.549  0.00  0.00    +0.000 OA
ATOM     14  C   UNL     1      -3.358  13.884  20.791  0.00  0.00    +0.000 C 
ENDBRANCH   7  13
BRANCH   9  15
ATOM     15  O   UNL     1      -2.625  10.522  16.206  0.00  0.00    +0.000 OA
ATOM     16  C   UNL     1      -3.040  10.348  14.855  0.00  0.00    +0.000 C 
ENDBRANCH   9  15
ENDBRANCH   3   8
ENDBRANCH   1   4
BRANCH   1  17
ATOM     17  O   UNL     1       0.789  10.192  18.956  0.00  0.00    +0.000 OA
BRANCH  17  18
ATOM     18  C   UNL     1       1.691   9.648  17.984  0.00  0.00    +0.000 C 
BRANCH  18  19
ATOM     19  C   UNL     1       2.237   8.332  18.456  0.00  0.00    +0.000 C 
ATOM     20  C   UNL     1       3.025   7.559  17.691  0.00  0.00    +0.000 C 
BRANCH  20  21
ATOM     21  C   UNL     1       3.402   6.188  18.056  0.00  0.00    +0.000 A 
ATOM     22  C   UNL     1       2.361   5.294  18.357  0.00  0.00    +0.000 A 
ATOM     23  C   UNL     1       2.622   3.954  18.680  0.00  0.00    +0.000 A 
ATOM     24  C   UNL     1       3.950   3.494  18.719  0.00  0.00    +0.000 A 
ATOM     25  C   UNL     1       4.984   4.386  18.420  0.00  0.00    +0.000 A 
ATOM     26  C   UNL     1       4.726   5.724  18.096  0.00  0.00    +0.000 A 
BRANCH  23  27
ATOM     27  O   UNL     1       1.642   3.043  18.994  0.00  0.00    +0.000 OA
ATOM     28  C   UNL     1       0.830   3.349  20.121  0.00  0.00    +0.000 C 
ENDBRANCH  23  27
BRANCH  24  29
ATOM     29  O   UNL     1       4.139   2.172  19.039  0.00  0.00    +0.000 OA
ATOM     30  C   UNL     1       4.675   1.883  20.325  0.00  0.00    +0.000 C 
ENDBRANCH  24  29
BRANCH  26  31
ATOM     31  O   UNL     1       5.864   6.419  17.775  0.00  0.00    +0.000 OA
ATOM     32  C   UNL     1       7.067   5.676  17.649  0.00  0.00    +0.000 C 
ENDBRANCH  26  31
ENDBRANCH  20  21
ENDBRANCH  18  19
ENDBRANCH  17  18
ENDBRANCH   1  17
TORSDOF 12
ENDMDL
MODEL 3
REMARK VINA RESULT:      -6.9      1.108      2.559
REMARK  Name = 
REMARK  18 active torsions:
REMARK  status: ('A' for Active; 'I' for Inactive)
REMARK    1  A    between atoms: C_1  and  O_2
REMARK    2  A    between atoms: O_2  and  C_3
REMARK    3  A    between atoms: C_5  and  O_6
REMARK    4  A    between atoms: O_6  and  C_7
REMARK    5  A    between atoms: C_8  and  C_9
REMARK    6  A    between atoms: C_10  and  C_11
REMARK    7  A    between atoms: C_11  and  O_13
REMARK    8  A    between atoms: O_13  and  C_14
REMARK    9  A    between atoms: C_14  and  C_15
REMARK   10  A    between atoms: C_16  and  C_17
REMARK   11  A    between atoms: C_19  and  O_20
REMARK   12  A    between atoms: O_20  and  C_21
REMARK   13  A    between atoms: C_22  and  O_23
REMARK   14  A    between atoms: O_23  and  C_24
REMARK   15  A    between atoms: C_26  and  O_27
REMARK   16  A    between atoms: O_27  and  C_28
REMARK   17  A    between atoms: C_29  and  O_30
REMARK   18  A    between atoms: O_30  and  C_31
REMARK                            x       y       z     vdW  Elec       q    Type
REMARK                         _______ _______ _______ _____ _____    ______ ____
ROOT
ATOM      1  C   UNL     1       6.960   6.716  16.724  0.00  0.00    +0.000 C 
ATOM      2  O   UNL     1       7.365   6.093  15.754  0.00  0.00    +0.000 OA
ENDROOT
BRANCH   1   4
ATOM      3  C   UNL     1       4.785   5.936  17.458  0.00  0.00    +0.000 C 
ATOM      4  C   UNL     1       6.078   6.133  17.764  0.00  0.00    +0.000 C 
BRANCH   3   8
ATOM      5  C   UNL     1       1.799   4.417  20.151  0.00  0.00    +0.000 A 
ATOM      6  C   UNL     1       2.726   3.551  19.574  0.00  0.00    +0.000 A 
ATOM      7  C   UNL     1       3.725   4.021  18.713  0.00  0.00    +0.000 A 
ATOM      8  C   UNL     1       3.776   5.388  18.379  0.00  0.00    +0.000 A 
ATOM      9  C   UNL     1       2.831   6.269  18.964  0.00  0.00    +0.000 A 
ATOM     10  C   UNL     1       1.847   5.774  19.841  0.00  0.00    +0.000 A 
BRANCH   5  12
ATOM     11  C   UNL     1       1.305   2.681  21.697  0.00  0.00    +0.000 C 
ATOM     12  O   UNL     1       0.874   3.822  20.966  0.00  0.00    +0.000 OA
ENDBRANCH   5  12
BRANCH   7  13
ATOM     13  O   UNL     1       4.527   3.020  18.226  0.00  0.00    +0.000 OA
ATOM     14  C   UNL     1       3.905   1.772  17.939  0.00  0.00    +0.000 C 
ENDBRANCH   7  13
BRANCH   9  15
ATOM     15  O   UNL     1       2.942   7.598  18.625  0.00  0.00    +0.000 OA
ATOM     16  C   UNL     1       1.888   8.470  19.023  0.00  0.00    +0.000 C 
ENDBRANCH   9  15
ENDBRANCH   3   8
ENDBRANCH   1   4
BRANCH   1  17
ATOM     17  O   UNL     1       7.231   8.008  17.025  0.00  0.00    +0.000 OA
BRANCH  17  18
ATOM     18  C   UNL     1       8.231   8.190  18.035  0.00  0.00    +0.000 C 
BRANCH  18  19
ATOM     19  C   UNL     1       8.490   9.652  18.258  0.00  0.00    +0.000 C 
ATOM     20  C   UNL     1       9.432  10.100  19.104  0.00  0.00    +0.000 C 
BRANCH  20  21
ATOM     21  C   UNL     1       9.563  11.512  19.483  0.00  0.00    +0.000 A 
ATOM     22  C   UNL     1       9.231  11.856  20.804  0.00  0.00    +0.000 A 
ATOM     23  C   UNL     1       9.362  13.174  21.268  0.00  0.00    +0.000 A 
ATOM     24  C   UNL     1       9.819  14.176  20.395  0.00  0.00    +0.000 A 
ATOM     25  C   UNL     1      10.148  13.832  19.081  0.00  0.00    +0.000 A 
ATOM     26  C   UNL     1      10.020  12.516  18.615  0.00  0.00    +0.000 A 
BRANCH  23  27
ATOM     27  O   UNL     1       9.039  13.565  22.545  0.00  0.00    +0.000 OA
ATOM     28  C   UNL     1       7.657  13.552  22.882  0.00  0.00    +0.000 C 
ENDBRANCH  23  27
BRANCH  24  29
ATOM     29  O   UNL     1       9.928  15.445  20.910  0.00  0.00    +0.000 OA
ATOM     30  C   UNL     1       9.516  16.524  20.078  0.00  0.00    +0.000 C 
ENDBRANCH  24  29
BRANCH  26  31
ATOM     31  O   UNL     1      10.450  12.369  17.322  0.00  0.00    +0.000 OA
ATOM     32  C   UNL     1      11.450  13.266  16.861  0.00  0.00    +0.000 C 
ENDBRANCH  26  31
ENDBRANCH  20  21
ENDBRANCH  18  19
ENDBRANCH  17  18
ENDBRANCH   1  17
TORSDOF 12
ENDMDL
MODEL 4
REMARK VINA RESULT:      -6.8      5.910     10.779
REMARK  Name = 
REMARK  18 active torsions:
REMARK  status: ('A' for Active; 'I' for Inactive)
REMARK    1  A    between atoms: C_1  and  O_2
REMARK    2  A    between atoms: O_2  and  C_3
REMARK    3  A    between atoms: C_5  and  O_6
REMARK    4  A    between atoms: O_6  and  C_7
REMARK    5  A    between atoms: C_8  and  C_9
REMARK    6  A    between atoms: C_10  and  C_11
REMARK    7  A    between atoms: C_11  and  O_13
REMARK    8  A    between atoms: O_13  and  C_14
REMARK    9  A    between atoms: C_14  and  C_15
REMARK   10  A    between atoms: C_16  and  C_17
REMARK   11  A    between atoms: C_19  and  O_20
REMARK   12  A    between atoms: O_20  and  C_21
REMARK   13  A    between atoms: C_22  and  O_23
REMARK   14  A    between atoms: O_23  and  C_24
REMARK   15  A    between atoms: C_26  and  O_27
REMARK   16  A    between atoms: O_27  and  C_28
REMARK   17  A    between atoms: C_29  and  O_30
REMARK   18  A    between atoms: O_30  and  C_31
REMARK                            x       y       z     vdW  Elec       q    Type
REMARK                         _______ _______ _______ _____ _____    ______ ____
ROOT
ATOM      1  C   UNL     1       0.831  11.398  18.900  0.00  0.00    +0.000 C 
ATOM      2  O   UNL     1       1.341  12.481  18.654  0.00  0.00    +0.000 OA
ENDROOT
BRANCH   1   4
ATOM      3  C   UNL     1      -1.438  11.985  18.275  0.00  0.00    +0.000 C 
ATOM      4  C   UNL     1      -0.634  11.184  18.994  0.00  0.00    +0.000 C 
BRANCH   3   8
ATOM      5  C   UNL     1      -5.732  11.825  18.349  0.00  0.00    +0.000 A 
ATOM      6  C   UNL     1      -5.040  11.493  17.186  0.00  0.00    +0.000 A 
ATOM      7  C   UNL     1      -3.640  11.512  17.140  0.00  0.00    +0.000 A 
ATOM      8  C   UNL     1      -2.908  11.918  18.272  0.00  0.00    +0.000 A 
ATOM      9  C   UNL     1      -3.612  12.258  19.454  0.00  0.00    +0.000 A 
ATOM     10  C   UNL     1      -5.019  12.214  19.481  0.00  0.00    +0.000 A 
BRANCH   5  12
ATOM     11  C   UNL     1      -7.785  13.017  18.228  0.00  0.00    +0.000 C 
ATOM     12  O   UNL     1      -7.096  11.772  18.250  0.00  0.00    +0.000 OA
ENDBRANCH   5  12
BRANCH   7  13
ATOM     13  O   UNL     1      -3.141  11.178  15.907  0.00  0.00    +0.000 OA
ATOM     14  C   UNL     1      -2.833   9.807  15.681  0.00  0.00    +0.000 C 
ENDBRANCH   7  13
BRANCH   9  15
ATOM     15  O   UNL     1      -2.848  12.622  20.539  0.00  0.00    +0.000 OA
ATOM     16  C   UNL     1      -3.522  12.868  21.769  0.00  0.00    +0.000 C 
ENDBRANCH   9  15
ENDBRANCH   3   8
ENDBRANCH   1   4
BRANCH   1  17
ATOM     17  O   UNL     1       1.480  10.231  19.124  0.00  0.00    +0.000 OA
BRANCH  17  18
ATOM     18  C   UNL     1       2.091   9.655  17.962  0.00  0.00    +0.000 C 
BRANCH  18  19
ATOM     19  C   UNL     1       2.191   8.164  18.110  0.00  0.00    +0.000 C 
ATOM     20  C   UNL     1       3.286   7.473  17.751  0.00  0.00    +0.000 C 
BRANCH  20  21
ATOM     21  C   UNL     1       3.328   6.007  17.701  0.00  0.00    +0.000 A 
ATOM     22  C   UNL     1       2.240   5.313  18.258  0.00  0.00    +0.000 A 
ATOM     23  C   UNL     1       2.175   3.913  18.223  0.00  0.00    +0.000 A 
ATOM     24  C   UNL     1       3.221   3.182  17.633  0.00  0.00    +0.000 A 
ATOM     25  C   UNL     1       4.302   3.874  17.080  0.00  0.00    +0.000 A 
ATOM     26  C   UNL     1       4.370   5.273  17.113  0.00  0.00    +0.000 A 
BRANCH  23  27
ATOM     27  O   UNL     1       1.141   3.186  18.763  0.00  0.00    +0.000 OA
ATOM     28  C   UNL     1       1.014   3.223  20.180  0.00  0.00    +0.000 C 
ENDBRANCH  23  27
BRANCH  24  29
ATOM     29  O   UNL     1       3.096   1.814  17.627  0.00  0.00    +0.000 OA
ATOM     30  C   UNL     1       3.767   1.094  18.655  0.00  0.00    +0.000 C 
ENDBRANCH  24  29
BRANCH  26  31
ATOM     31  O   UNL     1       5.475   5.764  16.466  0.00  0.00    +0.000 OA
ATOM     32  C   UNL     1       6.579   4.886  16.305  0.00  0.00    +0.000 C 
ENDBRANCH  26  31
ENDBRANCH  20  21
ENDBRANCH  18  19
ENDBRANCH  17  18
ENDBRANCH   1  17
TORSDOF 12
ENDMDL
MODEL 5
REMARK VINA RESULT:      -6.8      5.625     10.318
REMARK  Name = 
REMARK  18 active torsions:
REMARK  status: ('A' for Active; 'I' for Inactive)
REMARK    1  A    between atoms: C_1  and  O_2
REMARK    2  A    between atoms: O_2  and  C_3
REMARK    3  A    between atoms: C_5  and  O_6
REMARK    4  A    between atoms: O_6  and  C_7
REMARK    5  A    between atoms: C_8  and  C_9
REMARK    6  A    between atoms: C_10  and  C_11
REMARK    7  A    between atoms: C_11  and  O_13
REMARK    8  A    between atoms: O_13  and  C_14
REMARK    9  A    between atoms: C_14  and  C_15
REMARK   10  A    between atoms: C_16  and  C_17
REMARK   11  A    between atoms: C_19  and  O_20
REMARK   12  A    between atoms: O_20  and  C_21
REMARK   13  A    between atoms: C_22  and  O_23
REMARK   14  A    between atoms: O_23  and  C_24
REMARK   15  A    between atoms: C_26  and  O_27
REMARK   16  A    between atoms: O_27  and  C_28
REMARK   17  A    between atoms: C_29  and  O_30
REMARK   18  A    between atoms: O_30  and  C_31
REMARK                            x       y       z     vdW  Elec       q    Type
REMARK                         _______ _______ _______ _____ _____    ______ ____
ROOT
ATOM      1  C   UNL     1       0.682  10.894  18.854  0.00  0.00    +0.000 C 
ATOM      2  O   UNL     1       1.464  11.826  18.749  0.00  0.00    +0.000 OA
ENDROOT
BRANCH   1   4
ATOM      3  C   UNL     1      -0.864  12.004  20.357  0.00  0.00    +0.000 C 
ATOM      4  C   UNL     1      -0.403  10.842  19.864  0.00  0.00    +0.000 C 
BRANCH   3   8
ATOM      5  C   UNL     1      -4.003  12.384  23.268  0.00  0.00    +0.000 A 
ATOM      6  C   UNL     1      -2.746  11.920  23.652  0.00  0.00    +0.000 A 
ATOM      7  C   UNL     1      -1.697  11.810  22.731  0.00  0.00    +0.000 A 
ATOM      8  C   UNL     1      -1.918  12.126  21.377  0.00  0.00    +0.000 A 
ATOM      9  C   UNL     1      -3.198  12.596  20.986  0.00  0.00    +0.000 A 
ATOM     10  C   UNL     1      -4.231  12.715  21.934  0.00  0.00    +0.000 A 
BRANCH   5  12
ATOM     11  C   UNL     1      -6.221  12.935  23.921  0.00  0.00    +0.000 C 
ATOM     12  O   UNL     1      -4.936  12.433  24.269  0.00  0.00    +0.000 OA
ENDBRANCH   5  12
BRANCH   7  13
ATOM     13  O   UNL     1      -0.545  11.315  23.287  0.00  0.00    +0.000 OA
ATOM     14  C   UNL     1      -0.415   9.899  23.356  0.00  0.00    +0.000 C 
ENDBRANCH   7  13
BRANCH   9  15
ATOM     15  O   UNL     1      -3.353  12.916  19.656  0.00  0.00    +0.000 OA
ATOM     16  C   UNL     1      -4.190  12.076  18.868  0.00  0.00    +0.000 C 
ENDBRANCH   9  15
ENDBRANCH   3   8
ENDBRANCH   1   4
BRANCH   1  17
ATOM     17  O   UNL     1       0.656   9.771  18.096  0.00  0.00    +0.000 OA
BRANCH  17  18
ATOM     18  C   UNL     1       1.936   9.355  17.603  0.00  0.00    +0.000 C 
BRANCH  18  19
ATOM     19  C   UNL     1       2.317   8.029  18.193  0.00  0.00    +0.000 C 
ATOM     20  C   UNL     1       3.389   7.333  17.779  0.00  0.00    +0.000 C 
BRANCH  20  21
ATOM     21  C   UNL     1       3.662   5.954  18.201  0.00  0.00    +0.000 A 
ATOM     22  C   UNL     1       2.555   5.142  18.501  0.00  0.00    +0.000 A 
ATOM     23  C   UNL     1       2.717   3.800  18.876  0.00  0.00    +0.000 A 
ATOM     24  C   UNL     1       4.010   3.255  18.970  0.00  0.00    +0.000 A 
ATOM     25  C   UNL     1       5.109   4.064  18.673  0.00  0.00    +0.000 A 
ATOM     26  C   UNL     1       4.951   5.405  18.297  0.00  0.00    +0.000 A 
BRANCH  23  27
ATOM     27  O   UNL     1       1.669   2.967  19.190  0.00  0.00    +0.000 OA
ATOM     28  C   UNL     1       1.062   3.166  20.461  0.00  0.00    +0.000 C 
ENDBRANCH  23  27
BRANCH  24  29
ATOM     29  O   UNL     1       4.100   1.935  19.339  0.00  0.00    +0.000 OA
ATOM     30  C   UNL     1       4.803   1.641  20.541  0.00  0.00    +0.000 C 
ENDBRANCH  24  29
BRANCH  26  31
ATOM     31  O   UNL     1       6.141   6.011  17.987  0.00  0.00    +0.000 OA
ATOM     32  C   UNL     1       7.189   5.183  17.504  0.00  0.00    +0.000 C 
ENDBRANCH  26  31
ENDBRANCH  20  21
ENDBRANCH  18  19
ENDBRANCH  17  18
ENDBRANCH   1  17
TORSDOF 12
ENDMDL
MODEL 6
REMARK VINA RESULT:      -6.7      6.015     10.789
REMARK  Name = 
REMARK  18 active torsions:
REMARK  status: ('A' for Active; 'I' for Inactive)
REMARK    1  A    between atoms: C_1  and  O_2
REMARK    2  A    between atoms: O_2  and  C_3
REMARK    3  A    between atoms: C_5  and  O_6
REMARK    4  A    between atoms: O_6  and  C_7
REMARK    5  A    between atoms: C_8  and  C_9
REMARK    6  A    between atoms: C_10  and  C_11
REMARK    7  A    between atoms: C_11  and  O_13
REMARK    8  A    between atoms: O_13  and  C_14
REMARK    9  A    between atoms: C_14  and  C_15
REMARK   10  A    between atoms: C_16  and  C_17
REMARK   11  A    between atoms: C_19  and  O_20
REMARK   12  A    between atoms: O_20  and  C_21
REMARK   13  A    between atoms: C_22  and  O_23
REMARK   14  A    between atoms: O_23  and  C_24
REMARK   15  A    between atoms: C_26  and  O_27
REMARK   16  A    between atoms: O_27  and  C_28
REMARK   17  A    between atoms: C_29  and  O_30
REMARK   18  A    between atoms: O_30  and  C_31
REMARK                            x       y       z     vdW  Elec       q    Type
REMARK                         _______ _______ _______ _____ _____    ______ ____
ROOT
ATOM      1  C   UNL     1       0.430  10.153  19.420  0.00  0.00    +0.000 C 
ATOM      2  O   UNL     1       0.264   9.268  20.245  0.00  0.00    +0.000 OA
ENDROOT
BRANCH   1   4
ATOM      3  C   UNL     1      -1.938  10.512  19.043  0.00  0.00    +0.000 C 
ATOM      4  C   UNL     1      -0.681  10.915  18.799  0.00  0.00    +0.000 C 
BRANCH   3   8
ATOM      5  C   UNL     1      -5.469  12.416  17.499  0.00  0.00    +0.000 A 
ATOM      6  C   UNL     1      -4.834  11.417  16.763  0.00  0.00    +0.000 A 
ATOM      7  C   UNL     1      -3.697  10.762  17.251  0.00  0.00    +0.000 A 
ATOM      8  C   UNL     1      -3.147  11.144  18.490  0.00  0.00    +0.000 A 
ATOM      9  C   UNL     1      -3.792  12.161  19.238  0.00  0.00    +0.000 A 
ATOM     10  C   UNL     1      -4.944  12.793  18.733  0.00  0.00    +0.000 A 
BRANCH   5  12
ATOM     11  C   UNL     1      -7.681  13.252  17.733  0.00  0.00    +0.000 C 
ATOM     12  O   UNL     1      -6.563  12.976  16.898  0.00  0.00    +0.000 OA
ENDBRANCH   5  12
BRANCH   7  13
ATOM     13  O   UNL     1      -3.200   9.828  16.378  0.00  0.00    +0.000 OA
ATOM     14  C   UNL     1      -2.882  10.273  15.064  0.00  0.00    +0.000 C 
ENDBRANCH   7  13
BRANCH   9  15
ATOM     15  O   UNL     1      -3.229  12.478  20.454  0.00  0.00    +0.000 OA
ATOM     16  C   UNL     1      -4.109  12.685  21.554  0.00  0.00    +0.000 C 
ENDBRANCH   9  15
ENDBRANCH   3   8
ENDBRANCH   1   4
BRANCH   1  17
ATOM     17  O   UNL     1       1.615  10.592  18.932  0.00  0.00    +0.000 OA
BRANCH  17  18
ATOM     18  C   UNL     1       1.988  10.027  17.669  0.00  0.00    +0.000 C 
BRANCH  18  19
ATOM     19  C   UNL     1       1.920   8.529  17.726  0.00  0.00    +0.000 C 
ATOM     20  C   UNL     1       2.927   7.775  18.197  0.00  0.00    +0.000 C 
BRANCH  20  21
ATOM     21  C   UNL     1       2.960   6.313  18.077  0.00  0.00    +0.000 A 
ATOM     22  C   UNL     1       1.989   5.587  18.787  0.00  0.00    +0.000 A 
ATOM     23  C   UNL     1       1.919   4.189  18.703  0.00  0.00    +0.000 A 
ATOM     24  C   UNL     1       2.843   3.493  17.905  0.00  0.00    +0.000 A 
ATOM     25  C   UNL     1       3.809   4.216  17.200  0.00  0.00    +0.000 A 
ATOM     26  C   UNL     1       3.881   5.613  17.281  0.00  0.00    +0.000 A 
BRANCH  23  27
ATOM     27  O   UNL     1       0.997   3.432  19.386  0.00  0.00    +0.000 OA
ATOM     28  C   UNL     1       1.201   3.299  20.788  0.00  0.00    +0.000 C 
ENDBRANCH  23  27
BRANCH  24  29
ATOM     29  O   UNL     1       2.719   2.125  17.862  0.00  0.00    +0.000 OA
ATOM     30  C   UNL     1       3.692   1.361  18.566  0.00  0.00    +0.000 C 
ENDBRANCH  24  29
BRANCH  26  31
ATOM     31  O   UNL     1       4.853   6.140  16.470  0.00  0.00    +0.000 OA
ATOM     32  C   UNL     1       5.494   5.257  15.562  0.00  0.00    +0.000 C 
ENDBRANCH  26  31
ENDBRANCH  20  21
ENDBRANCH  18  19
ENDBRANCH  17  18
ENDBRANCH   1  17
TORSDOF 12
ENDMDL
MODEL 7
REMARK VINA RESULT:      -6.6      5.882     10.778
REMARK  Name = 
REMARK  18 active torsions:
REMARK  status: ('A' for Active; 'I' for Inactive)
REMARK    1  A    between atoms: C_1  and  O_2
REMARK    2  A    between atoms: O_2  and  C_3
REMARK    3  A    between atoms: C_5  and  O_6
REMARK    4  A    between atoms: O_6  and  C_7
REMARK    5  A    between atoms: C_8  and  C_9
REMARK    6  A    between atoms: C_10  and  C_11
REMARK    7  A    between atoms: C_11  and  O_13
REMARK    8  A    between atoms: O_13  and  C_14
REMARK    9  A    between atoms: C_14  and  C_15
REMARK   10  A    between atoms: C_16  and  C_17
REMARK   11  A    between atoms: C_19  and  O_20
REMARK   12  A    between atoms: O_20  and  C_21
REMARK   13  A    between atoms: C_22  and  O_23
REMARK   14  A    between atoms: O_23  and  C_24
REMARK   15  A    between atoms: C_26  and  O_27
REMARK   16  A    between atoms: O_27  and  C_28
REMARK   17  A    between atoms: C_29  and  O_30
REMARK   18  A    between atoms: O_30  and  C_31
REMARK                            x       y       z     vdW  Elec       q    Type
REMARK                         _______ _______ _______ _____ _____    ______ ____
ROOT
ATOM      1  C   UNL     1       0.839  11.111  18.984  0.00  0.00    +0.000 C 
ATOM      2  O   UNL     1       1.442  12.164  18.849  0.00  0.00    +0.000 OA
ENDROOT
BRANCH   1   4
ATOM      3  C   UNL     1      -1.364  11.695  18.157  0.00  0.00    +0.000 C 
ATOM      4  C   UNL     1      -0.639  11.016  19.061  0.00  0.00    +0.000 C 
BRANCH   3   8
ATOM      5  C   UNL     1      -5.656  11.747  17.926  0.00  0.00    +0.000 A 
ATOM      6  C   UNL     1      -5.017  12.042  19.128  0.00  0.00    +0.000 A 
ATOM      7  C   UNL     1      -3.620  12.057  19.227  0.00  0.00    +0.000 A 
ATOM      8  C   UNL     1      -2.835  11.724  18.107  0.00  0.00    +0.000 A 
ATOM      9  C   UNL     1      -3.485  11.421  16.884  0.00  0.00    +0.000 A 
ATOM     10  C   UNL     1      -4.891  11.429  16.805  0.00  0.00    +0.000 A 
BRANCH   5  12
ATOM     11  C   UNL     1      -7.630  12.863  18.636  0.00  0.00    +0.000 C 
ATOM     12  O   UNL     1      -7.024  11.759  17.974  0.00  0.00    +0.000 OA
ENDBRANCH   5  12
BRANCH   7  13
ATOM     13  O   UNL     1      -3.176  12.346  20.492  0.00  0.00    +0.000 OA
ATOM     14  C   UNL     1      -3.056  13.721  20.840  0.00  0.00    +0.000 C 
ENDBRANCH   7  13
BRANCH   9  15
ATOM     15  O   UNL     1      -2.671  11.127  15.814  0.00  0.00    +0.000 OA
ATOM     16  C   UNL     1      -2.838   9.860  15.186  0.00  0.00    +0.000 C 
ENDBRANCH   9  15
ENDBRANCH   3   8
ENDBRANCH   1   4
BRANCH   1  17
ATOM     17  O   UNL     1       1.383   9.875  19.086  0.00  0.00    +0.000 OA
BRANCH  17  18
ATOM     18  C   UNL     1       1.003   9.150  20.262  0.00  0.00    +0.000 C 
BRANCH  18  19
ATOM     19  C   UNL     1       1.730   7.838  20.325  0.00  0.00    +0.000 C 
ATOM     20  C   UNL     1       2.320   7.285  19.252  0.00  0.00    +0.000 C 
BRANCH  20  21
ATOM     21  C   UNL     1       2.858   5.919  19.248  0.00  0.00    +0.000 A 
ATOM     22  C   UNL     1       2.087   4.922  19.869  0.00  0.00    +0.000 A 
ATOM     23  C   UNL     1       2.502   3.582  19.881  0.00  0.00    +0.000 A 
ATOM     24  C   UNL     1       3.719   3.226  19.275  0.00  0.00    +0.000 A 
ATOM     25  C   UNL     1       4.486   4.219  18.659  0.00  0.00    +0.000 A 
ATOM     26  C   UNL     1       4.073   5.558  18.644  0.00  0.00    +0.000 A 
BRANCH  23  27
ATOM     27  O   UNL     1       1.791   2.572  20.485  0.00  0.00    +0.000 OA
ATOM     28  C   UNL     1       1.441   2.771  21.849  0.00  0.00    +0.000 C 
ENDBRANCH  23  27
BRANCH  24  29
ATOM     29  O   UNL     1       4.068   1.897  19.319  0.00  0.00    +0.000 OA
ATOM     30  C   UNL     1       3.898   1.140  18.126  0.00  0.00    +0.000 C 
ENDBRANCH  24  29
BRANCH  26  31
ATOM     31  O   UNL     1       4.927   6.366  17.939  0.00  0.00    +0.000 OA
ATOM     32  C   UNL     1       5.248   5.976  16.612  0.00  0.00    +0.000 C 
ENDBRANCH  26  31
ENDBRANCH  20  21
ENDBRANCH  18  19
ENDBRANCH  17  18
ENDBRANCH   1  17
TORSDOF 12
ENDMDL
MODEL 8
REMARK VINA RESULT:      -6.6      5.422      9.878
REMARK  Name = 
REMARK  18 active torsions:
REMARK  status: ('A' for Active; 'I' for Inactive)
REMARK    1  A    between atoms: C_1  and  O_2
REMARK    2  A    between atoms: O_2  and  C_3
REMARK    3  A    between atoms: C_5  and  O_6
REMARK    4  A    between atoms: O_6  and  C_7
REMARK    5  A    between atoms: C_8  and  C_9
REMARK    6  A    between atoms: C_10  and  C_11
REMARK    7  A    between atoms: C_11  and  O_13
REMARK    8  A    between atoms: O_13  and  C_14
REMARK    9  A    between atoms: C_14  and  C_15
REMARK   10  A    between atoms: C_16  and  C_17
REMARK   11  A    between atoms: C_19  and  O_20
REMARK   12  A    between atoms: O_20  and  C_21
REMARK   13  A    between atoms: C_22  and  O_23
REMARK   14  A    between atoms: O_23  and  C_24
REMARK   15  A    between atoms: C_26  and  O_27
REMARK   16  A    between atoms: O_27  and  C_28
REMARK   17  A    between atoms: C_29  and  O_30
REMARK   18  A    between atoms: O_30  and  C_31
REMARK                            x       y       z     vdW  Elec       q    Type
REMARK                         _______ _______ _______ _____ _____    ______ ____
ROOT
ATOM      1  C   UNL     1       0.790  10.307  20.422  0.00  0.00    +0.000 C 
ATOM      2  O   UNL     1       1.169  10.257  21.582  0.00  0.00    +0.000 OA
ENDROOT
BRANCH   1   4
ATOM      3  C   UNL     1      -1.153  11.656  19.887  0.00  0.00    +0.000 C 
ATOM      4  C   UNL     1      -0.634  10.424  20.028  0.00  0.00    +0.000 C 
BRANCH   3   8
ATOM      5  C   UNL     1      -5.241  12.543  18.902  0.00  0.00    +0.000 A 
ATOM      6  C   UNL     1      -4.410  11.941  17.959  0.00  0.00    +0.000 A 
ATOM      7  C   UNL     1      -3.081  11.618  18.260  0.00  0.00    +0.000 A 
ATOM      8  C   UNL     1      -2.549  11.945  19.522  0.00  0.00    +0.000 A 
ATOM      9  C   UNL     1      -3.394  12.559  20.481  0.00  0.00    +0.000 A 
ATOM     10  C   UNL     1      -4.732  12.859  20.160  0.00  0.00    +0.000 A 
BRANCH   5  12
ATOM     11  C   UNL     1      -6.679  13.050  17.079  0.00  0.00    +0.000 C 
ATOM     12  O   UNL     1      -6.512  12.811  18.471  0.00  0.00    +0.000 OA
ENDBRANCH   5  12
BRANCH   7  13
ATOM     13  O   UNL     1      -2.414  11.054  17.203  0.00  0.00    +0.000 OA
ATOM     14  C   UNL     1      -3.178  10.752  16.040  0.00  0.00    +0.000 C 
ENDBRANCH   7  13
BRANCH   9  15
ATOM     15  O   UNL     1      -2.832  12.834  21.707  0.00  0.00    +0.000 OA
ATOM     16  C   UNL     1      -3.189  14.060  22.336  0.00  0.00    +0.000 C 
ENDBRANCH   9  15
ENDBRANCH   3   8
ENDBRANCH   1   4
BRANCH   1  17
ATOM     17  O   UNL     1       1.571  10.268  19.315  0.00  0.00    +0.000 OA
BRANCH  17  18
ATOM     18  C   UNL     1       0.933   9.719  18.155  0.00  0.00    +0.000 C 
BRANCH  18  19
ATOM     19  C   UNL     1       1.737   8.574  17.610  0.00  0.00    +0.000 C 
ATOM     20  C   UNL     1       2.475   7.770  18.393  0.00  0.00    +0.000 C 
BRANCH  20  21
ATOM     21  C   UNL     1       3.417   6.778  17.862  0.00  0.00    +0.000 A 
ATOM     22  C   UNL     1       4.690   7.238  17.485  0.00  0.00    +0.000 A 
ATOM     23  C   UNL     1       5.669   6.357  17.003  0.00  0.00    +0.000 A 
ATOM     24  C   UNL     1       5.373   4.988  16.877  0.00  0.00    +0.000 A 
ATOM     25  C   UNL     1       4.105   4.533  17.252  0.00  0.00    +0.000 A 
ATOM     26  C   UNL     1       3.126   5.410  17.735  0.00  0.00    +0.000 A 
BRANCH  23  27
ATOM     27  O   UNL     1       6.924   6.757  16.610  0.00  0.00    +0.000 OA
ATOM     28  C   UNL     1       7.657   7.546  17.539  0.00  0.00    +0.000 C 
ENDBRANCH  23  27
BRANCH  24  29
ATOM     29  O   UNL     1       6.375   4.178  16.402  0.00  0.00    +0.000 OA
ATOM     30  C   UNL     1       6.285   3.759  15.045  0.00  0.00    +0.000 C 
ENDBRANCH  24  29
BRANCH  26  31
ATOM     31  O   UNL     1       1.974   4.765  18.105  0.00  0.00    +0.000 OA
ATOM     32  C   UNL     1       1.970   3.347  18.033  0.00  0.00    +0.000 C 
ENDBRANCH  26  31
ENDBRANCH  20  21
ENDBRANCH  18  19
ENDBRANCH  17  18
ENDBRANCH   1  17
TORSDOF 12
ENDMDL
MODEL 9
REMARK VINA RESULT:      -6.6      5.133      8.081
REMARK  Name = 
REMARK  18 active torsions:
REMARK  status: ('A' for Active; 'I' for Inactive)
REMARK    1  A    between atoms: C_1  and  O_2
REMARK    2  A    between atoms: O_2  and  C_3
REMARK    3  A    between atoms: C_5  and  O_6
REMARK    4  A    between atoms: O_6  and  C_7
REMARK    5  A    between atoms: C_8  and  C_9
REMARK    6  A    between atoms: C_10  and  C_11
REMARK    7  A    between atoms: C_11  and  O_13
REMARK    8  A    between atoms: O_13  and  C_14
REMARK    9  A    between atoms: C_14  and  C_15
REMARK   10  A    between atoms: C_16  and  C_17
REMARK   11  A    between atoms: C_19  and  O_20
REMARK   12  A    between atoms: O_20  and  C_21
REMARK   13  A    between atoms: C_22  and  O_23
REMARK   14  A    between atoms: O_23  and  C_24
REMARK   15  A    between atoms: C_26  and  O_27
REMARK   16  A    between atoms: O_27  and  C_28
REMARK   17  A    between atoms: C_29  and  O_30
REMARK   18  A    between atoms: O_30  and  C_31
REMARK                            x       y       z     vdW  Elec       q    Type
REMARK                         _______ _______ _______ _____ _____    ______ ____
ROOT
ATOM      1  C   UNL     1       3.365   2.319  20.841  0.00  0.00    +0.000 C 
ATOM      2  O   UNL     1       3.752   1.993  21.953  0.00  0.00    +0.000 OA
ENDROOT
BRANCH   1   4
ATOM      3  C   UNL     1       4.436   3.852  19.298  0.00  0.00    +0.000 C 
ATOM      4  C   UNL     1       4.274   2.580  19.700  0.00  0.00    +0.000 C 
BRANCH   3   8
ATOM      5  C   UNL     1       6.852   5.058  15.954  0.00  0.00    +0.000 A 
ATOM      6  C   UNL     1       7.183   5.474  17.242  0.00  0.00    +0.000 A 
ATOM      7  C   UNL     1       6.429   5.077  18.353  0.00  0.00    +0.000 A 
ATOM      8  C   UNL     1       5.284   4.278  18.173  0.00  0.00    +0.000 A 
ATOM      9  C   UNL     1       4.945   3.856  16.862  0.00  0.00    +0.000 A 
ATOM     10  C   UNL     1       5.729   4.255  15.762  0.00  0.00    +0.000 A 
BRANCH   5  12
ATOM     11  C   UNL     1       7.454   5.006  13.655  0.00  0.00    +0.000 C 
ATOM     12  O   UNL     1       7.669   5.527  14.961  0.00  0.00    +0.000 OA
ENDBRANCH   5  12
BRANCH   7  13
ATOM     13  O   UNL     1       6.893   5.604  19.531  0.00  0.00    +0.000 OA
ATOM     14  C   UNL     1       8.304   5.694  19.690  0.00  0.00    +0.000 C 
ENDBRANCH   7  13
BRANCH   9  15
ATOM     15  O   UNL     1       3.832   3.055  16.745  0.00  0.00    +0.000 OA
ATOM     16  C   UNL     1       2.557   3.686  16.803  0.00  0.00    +0.000 C 
ENDBRANCH   9  15
ENDBRANCH   3   8
ENDBRANCH   1   4
BRANCH   1  17
ATOM     17  O   UNL     1       2.079   2.497  20.453  0.00  0.00    +0.000 OA
BRANCH  17  18
ATOM     18  C   UNL     1       1.341   3.437  21.245  0.00  0.00    +0.000 C 
BRANCH  18  19
ATOM     19  C   UNL     1       1.244   4.756  20.536  0.00  0.00    +0.000 C 
ATOM     20  C   UNL     1       1.976   5.825  20.891  0.00  0.00    +0.000 C 
BRANCH  20  21
ATOM     21  C   UNL     1       1.752   7.168  20.343  0.00  0.00    +0.000 A 
ATOM     22  C   UNL     1       1.215   8.135  21.210  0.00  0.00    +0.000 A 
ATOM     23  C   UNL     1       1.002   9.455  20.787  0.00  0.00    +0.000 A 
ATOM     24  C   UNL     1       1.316   9.821  19.466  0.00  0.00    +0.000 A 
ATOM     25  C   UNL     1       1.850   8.858  18.605  0.00  0.00    +0.000 A 
ATOM     26  C   UNL     1       2.064   7.539  19.026  0.00  0.00    +0.000 A 
BRANCH  23  27
ATOM     27  O   UNL     1       0.469  10.434  21.591  0.00  0.00    +0.000 OA
ATOM     28  C   UNL     1      -0.853  10.212  22.067  0.00  0.00    +0.000 C 
ENDBRANCH  23  27
BRANCH  24  29
ATOM     29  O   UNL     1       1.087  11.129  19.115  0.00  0.00    +0.000 OA
ATOM     30  C   UNL     1       2.072  11.770  18.312  0.00  0.00    +0.000 C 
ENDBRANCH  24  29
BRANCH  26  31
ATOM     31  O   UNL     1       2.650   6.764  18.058  0.00  0.00    +0.000 OA
ATOM     32  C   UNL     1       3.710   7.344  17.312  0.00  0.00    +0.000 C 
ENDBRANCH  26  31
ENDBRANCH  20  21
ENDBRANCH  18  19
ENDBRANCH  17  18
ENDBRANCH   1  17
TORSDOF 12
ENDMDL
