MODEL 1
REMARK VINA RESULT:      -9.3      0.000      0.000
REMARK  Name = 
REMARK  7 active torsions:
REMARK  status: ('A' for Active; 'I' for Inactive)
REMARK    1  A    between atoms: C_1  and  O_2
REMARK    2  A    between atoms: O_2  and  C_3
REMARK    3  A    between atoms: C_8  and  N_9
REMARK    4  A    between atoms: C_11  and  C_12
REMARK    5  A    between atoms: N_14  and  C_15
REMARK    6  A    between atoms: C_15  and  C_16
REMARK    7  A    between atoms: N_21  and  C_22
REMARK                            x       y       z     vdW  Elec       q    Type
REMARK                         _______ _______ _______ _____ _____    ______ ____
ROOT
ATOM      1  N   UNL     1       4.326   4.803  17.835  0.00  0.00    +0.000 N 
ATOM      2  C   UNL     1       3.001   5.225  17.610  0.00  0.00    +0.000 A 
ATOM      3  C   UNL     1       2.200   5.551  18.639  0.00  0.00    +0.000 A 
ATOM      4  C   UNL     1       2.184   4.480  19.637  0.00  0.00    +0.000 A 
ATOM      5  C   UNL     1       1.012   4.094  20.289  0.00  0.00    +0.000 A 
ATOM      6  C   UNL     1       1.052   3.034  21.190  0.00  0.00    +0.000 A 
ATOM      7  C   UNL     1       2.261   2.383  21.458  0.00  0.00    +0.000 A 
ATOM      8  C   UNL     1       3.445   2.799  20.835  0.00  0.00    +0.000 A 
ATOM      9  C   UNL     1       3.403   3.844  19.911  0.00  0.00    +0.000 A 
ATOM     10  C   UNL     1       4.618   4.243  19.116  0.00  0.00    +0.000 A 
ATOM     11  O   UNL     1       5.714   3.986  19.601  0.00  0.00    +0.000 OA
ENDROOT
BRANCH   1  17
ATOM     12  C   UNL     1       6.311   5.764  16.580  0.00  0.00    +0.000 A 
ATOM     13  C   UNL     1       7.105   5.807  15.419  0.00  0.00    +0.000 A 
ATOM     14  C   UNL     1       6.975   4.836  14.433  0.00  0.00    +0.000 A 
ATOM     15  C   UNL     1       6.042   3.825  14.592  0.00  0.00    +0.000 A 
ATOM     16  C   UNL     1       5.204   3.806  15.713  0.00  0.00    +0.000 A 
ATOM     17  C   UNL     1       5.281   4.784  16.722  0.00  0.00    +0.000 A 
BRANCH  12  19
ATOM     18  C   UNL     1       7.716   6.673  18.304  0.00  0.00    +0.000 C 
ATOM     19  O   UNL     1       6.490   6.690  17.580  0.00  0.00    +0.000 OA
ENDBRANCH  12  19
ENDBRANCH   1  17
BRANCH   3  20
ATOM     20  C   UNL     1       2.268   6.954  19.183  0.00  0.00    +0.000 C 
ATOM     21  O   UNL     1       2.744   7.872  18.520  0.00  0.00    +0.000 OA
ATOM     22  N   UNL     1       1.801   7.138  20.455  0.00  0.00    +0.000 N 
ATOM     23  H   UNL     1       1.343   6.393  20.975  0.00  0.00    +0.000 HD
BRANCH  22  24
ATOM     24  C   UNL     1       1.784   8.458  21.043  0.00  0.00    +0.000 C 
BRANCH  24  25
ATOM     25  C   UNL     1       0.361   9.013  21.079  0.00  0.00    +0.000 C 
ATOM     26  O   UNL     1      -0.545   8.390  21.639  0.00  0.00    +0.000 OA
ATOM     27  N   UNL     1       0.149  10.228  20.447  0.00  0.00    +0.000 N 
ATOM     28  C   UNL     1      -1.154  10.872  20.572  0.00  0.00    +0.000 C 
ATOM     29  C   UNL     1      -1.070  12.113  21.485  0.00  0.00    +0.000 C 
ATOM     30  N   UNL     1       0.029  13.019  21.084  0.00  0.00    +0.000 N 
ATOM     31  C   UNL     1       1.341  12.365  20.880  0.00  0.00    +0.000 C 
ATOM     32  C   UNL     1       1.204  11.130  19.962  0.00  0.00    +0.000 C 
BRANCH  30  33
ATOM     33  C   UNL     1      -0.221  14.194  20.387  0.00  0.00    +0.000 A 
ATOM     34  C   UNL     1       0.634  14.579  19.341  0.00  0.00    +0.000 A 
ATOM     35  C   UNL     1       0.446  15.768  18.630  0.00  0.00    +0.000 A 
ATOM     36  C   UNL     1      -0.614  16.606  18.952  0.00  0.00    +0.000 A 
ATOM     37  C   UNL     1      -1.478  16.250  19.982  0.00  0.00    +0.000 A 
ATOM     38  C   UNL     1      -1.278  15.058  20.693  0.00  0.00    +0.000 A 
ENDBRANCH  30  33
ENDBRANCH  24  25
ENDBRANCH  22  24
ENDBRANCH   3  20
TORSDOF 6
ENDMDL
MODEL 2
REMARK VINA RESULT:      -9.3      1.362      1.719
REMARK  Name = 
REMARK  7 active torsions:
REMARK  status: ('A' for Active; 'I' for Inactive)
REMARK    1  A    between atoms: C_1  and  O_2
REMARK    2  A    between atoms: O_2  and  C_3
REMARK    3  A    between atoms: C_8  and  N_9
REMARK    4  A    between atoms: C_11  and  C_12
REMARK    5  A    between atoms: N_14  and  C_15
REMARK    6  A    between atoms: C_15  and  C_16
REMARK    7  A    between atoms: N_21  and  C_22
REMARK                            x       y       z     vdW  Elec       q    Type
REMARK                         _______ _______ _______ _____ _____    ______ ____
ROOT
ATOM      1  N   UNL     1       4.308   4.777  17.813  0.00  0.00    +0.000 N 
ATOM      2  C   UNL     1       2.998   5.251  17.602  0.00  0.00    +0.000 A 
ATOM      3  C   UNL     1       2.210   5.578  18.641  0.00  0.00    +0.000 A 
ATOM      4  C   UNL     1       2.158   4.481  19.610  0.00  0.00    +0.000 A 
ATOM      5  C   UNL     1       0.973   4.118  20.253  0.00  0.00    +0.000 A 
ATOM      6  C   UNL     1       0.976   3.033  21.125  0.00  0.00    +0.000 A 
ATOM      7  C   UNL     1       2.162   2.333  21.372  0.00  0.00    +0.000 A 
ATOM      8  C   UNL     1       3.359   2.724  20.758  0.00  0.00    +0.000 A 
ATOM      9  C   UNL     1       3.353   3.794  19.864  0.00  0.00    +0.000 A 
ATOM     10  C   UNL     1       4.581   4.171  19.078  0.00  0.00    +0.000 A 
ATOM     11  O   UNL     1       5.668   3.863  19.554  0.00  0.00    +0.000 OA
ENDROOT
BRANCH   1  17
ATOM     12  C   UNL     1       6.310   5.716  16.568  0.00  0.00    +0.000 A 
ATOM     13  C   UNL     1       7.103   5.759  15.407  0.00  0.00    +0.000 A 
ATOM     14  C   UNL     1       6.952   4.806  14.407  0.00  0.00    +0.000 A 
ATOM     15  C   UNL     1       6.000   3.811  14.553  0.00  0.00    +0.000 A 
ATOM     16  C   UNL     1       5.162   3.793  15.676  0.00  0.00    +0.000 A 
ATOM     17  C   UNL     1       5.260   4.754  16.698  0.00  0.00    +0.000 A 
BRANCH  12  19
ATOM     18  C   UNL     1       7.662   6.475  18.404  0.00  0.00    +0.000 C 
ATOM     19  O   UNL     1       6.509   6.624  17.582  0.00  0.00    +0.000 OA
ENDBRANCH  12  19
ENDBRANCH   1  17
BRANCH   3  20
ATOM     20  C   UNL     1       2.328   6.961  19.223  0.00  0.00    +0.000 C 
ATOM     21  O   UNL     1       2.486   7.134  20.429  0.00  0.00    +0.000 OA
ATOM     22  N   UNL     1       2.222   8.004  18.344  0.00  0.00    +0.000 N 
ATOM     23  H   UNL     1       2.161   7.858  17.339  0.00  0.00    +0.000 HD
BRANCH  22  24
ATOM     24  C   UNL     1       2.368   9.365  18.805  0.00  0.00    +0.000 C 
BRANCH  24  25
ATOM     25  C   UNL     1       1.005  10.048  18.911  0.00  0.00    +0.000 C 
ATOM     26  O   UNL     1       0.036   9.448  19.384  0.00  0.00    +0.000 OA
ATOM     27  N   UNL     1       0.920  11.349  18.443  0.00  0.00    +0.000 N 
ATOM     28  C   UNL     1      -0.316  12.095  18.649  0.00  0.00    +0.000 C 
ATOM     29  C   UNL     1      -0.125  13.193  19.716  0.00  0.00    +0.000 C 
ATOM     30  N   UNL     1       1.062  14.032  19.439  0.00  0.00    +0.000 N 
ATOM     31  C   UNL     1       2.307  13.285  19.152  0.00  0.00    +0.000 C 
ATOM     32  C   UNL     1       2.065  12.199  18.082  0.00  0.00    +0.000 C 
BRANCH  30  33
ATOM     33  C   UNL     1       0.937  15.306  18.901  0.00  0.00    +0.000 A 
ATOM     34  C   UNL     1      -0.340  15.863  18.718  0.00  0.00    +0.000 A 
ATOM     35  C   UNL     1      -0.523  17.128  18.150  0.00  0.00    +0.000 A 
ATOM     36  C   UNL     1       0.580  17.871  17.750  0.00  0.00    +0.000 A 
ATOM     37  C   UNL     1       1.857  17.347  17.921  0.00  0.00    +0.000 A 
ATOM     38  C   UNL     1       2.030  16.076  18.485  0.00  0.00    +0.000 A 
ENDBRANCH  30  33
ENDBRANCH  24  25
ENDBRANCH  22  24
ENDBRANCH   3  20
TORSDOF 6
ENDMDL
MODEL 3
REMARK VINA RESULT:      -9.2      1.413      1.934
REMARK  Name = 
REMARK  7 active torsions:
REMARK  status: ('A' for Active; 'I' for Inactive)
REMARK    1  A    between atoms: C_1  and  O_2
REMARK    2  A    between atoms: O_2  and  C_3
REMARK    3  A    between atoms: C_8  and  N_9
REMARK    4  A    between atoms: C_11  and  C_12
REMARK    5  A    between atoms: N_14  and  C_15
REMARK    6  A    between atoms: C_15  and  C_16
REMARK    7  A    between atoms: N_21  and  C_22
REMARK                            x       y       z     vdW  Elec       q    Type
REMARK                         _______ _______ _______ _____ _____    ______ ____
ROOT
ATOM      1  N   UNL     1       4.332   4.806  17.745  0.00  0.00    +0.000 N 
ATOM      2  C   UNL     1       2.996   5.163  17.475  0.00  0.00    +0.000 A 
ATOM      3  C   UNL     1       2.160   5.502  18.471  0.00  0.00    +0.000 A 
ATOM      4  C   UNL     1       2.166   4.476  19.517  0.00  0.00    +0.000 A 
ATOM      5  C   UNL     1       0.996   4.071  20.161  0.00  0.00    +0.000 A 
ATOM      6  C   UNL     1       1.058   3.054  21.110  0.00  0.00    +0.000 A 
ATOM      7  C   UNL     1       2.286   2.466  21.431  0.00  0.00    +0.000 A 
ATOM      8  C   UNL     1       3.466   2.903  20.814  0.00  0.00    +0.000 A 
ATOM      9  C   UNL     1       3.402   3.903  19.843  0.00  0.00    +0.000 A 
ATOM     10  C   UNL     1       4.617   4.316  19.056  0.00  0.00    +0.000 A 
ATOM     11  O   UNL     1       5.713   4.126  19.574  0.00  0.00    +0.000 OA
ENDROOT
BRANCH   1  17
ATOM     12  C   UNL     1       6.323   5.776  16.505  0.00  0.00    +0.000 A 
ATOM     13  C   UNL     1       7.140   5.804  15.361  0.00  0.00    +0.000 A 
ATOM     14  C   UNL     1       7.054   4.803  14.401  0.00  0.00    +0.000 A 
ATOM     15  C   UNL     1       6.140   3.775  14.569  0.00  0.00    +0.000 A 
ATOM     16  C   UNL     1       5.278   3.770  15.672  0.00  0.00    +0.000 A 
ATOM     17  C   UNL     1       5.311   4.777  16.654  0.00  0.00    +0.000 A 
BRANCH  12  19
ATOM     18  C   UNL     1       7.751   6.952  18.037  0.00  0.00    +0.000 C 
ATOM     19  O   UNL     1       6.458   6.734  17.482  0.00  0.00    +0.000 OA
ENDBRANCH  12  19
ENDBRANCH   1  17
BRANCH   3  20
ATOM     20  C   UNL     1       2.160   6.928  18.953  0.00  0.00    +0.000 C 
ATOM     21  O   UNL     1       2.221   7.197  20.150  0.00  0.00    +0.000 OA
ATOM     22  N   UNL     1       2.059   7.896  17.992  0.00  0.00    +0.000 N 
ATOM     23  H   UNL     1       2.079   7.675  16.999  0.00  0.00    +0.000 HD
BRANCH  22  24
ATOM     24  C   UNL     1       2.097   9.294  18.356  0.00  0.00    +0.000 C 
BRANCH  24  25
ATOM     25  C   UNL     1       0.719   9.932  18.190  0.00  0.00    +0.000 C 
ATOM     26  O   UNL     1      -0.142   9.396  17.486  0.00  0.00    +0.000 OA
ATOM     27  N   UNL     1       0.500  11.129  18.852  0.00  0.00    +0.000 N 
ATOM     28  C   UNL     1      -0.839  11.708  18.844  0.00  0.00    +0.000 C 
ATOM     29  C   UNL     1      -1.501  11.582  20.232  0.00  0.00    +0.000 C 
ATOM     30  N   UNL     1      -0.621  12.081  21.311  0.00  0.00    +0.000 N 
ATOM     31  C   UNL     1       0.764  11.560  21.285  0.00  0.00    +0.000 C 
ATOM     32  C   UNL     1       1.382  11.706  19.878  0.00  0.00    +0.000 C 
BRANCH  30  33
ATOM     33  C   UNL     1      -0.831  13.321  21.900  0.00  0.00    +0.000 A 
ATOM     34  C   UNL     1      -1.225  13.396  23.247  0.00  0.00    +0.000 A 
ATOM     35  C   UNL     1      -1.482  14.617  23.878  0.00  0.00    +0.000 A 
ATOM     36  C   UNL     1      -1.347  15.803  23.167  0.00  0.00    +0.000 A 
ATOM     37  C   UNL     1      -0.957  15.761  21.833  0.00  0.00    +0.000 A 
ATOM     38  C   UNL     1      -0.707  14.531  21.208  0.00  0.00    +0.000 A 
ENDBRANCH  30  33
ENDBRANCH  24  25
ENDBRANCH  22  24
ENDBRANCH   3  20
TORSDOF 6
ENDMDL
MODEL 4
REMARK VINA RESULT:      -8.9      0.943      1.261
REMARK  Name = 
REMARK  7 active torsions:
REMARK  status: ('A' for Active; 'I' for Inactive)
REMARK    1  A    between atoms: C_1  and  O_2
REMARK    2  A    between atoms: O_2  and  C_3
REMARK    3  A    between atoms: C_8  and  N_9
REMARK    4  A    between atoms: C_11  and  C_12
REMARK    5  A    between atoms: N_14  and  C_15
REMARK    6  A    between atoms: C_15  and  C_16
REMARK    7  A    between atoms: N_21  and  C_22
REMARK                            x       y       z     vdW  Elec       q    Type
REMARK                         _______ _______ _______ _____ _____    ______ ____
ROOT
ATOM      1  N   UNL     1       4.327   4.787  17.831  0.00  0.00    +0.000 N 
ATOM      2  C   UNL     1       3.017   5.254  17.604  0.00  0.00    +0.000 A 
ATOM      3  C   UNL     1       2.217   5.583  18.633  0.00  0.00    +0.000 A 
ATOM      4  C   UNL     1       2.160   4.492  19.608  0.00  0.00    +0.000 A 
ATOM      5  C   UNL     1       0.971   4.128  20.241  0.00  0.00    +0.000 A 
ATOM      6  C   UNL     1       0.970   3.048  21.119  0.00  0.00    +0.000 A 
ATOM      7  C   UNL     1       2.157   2.355  21.383  0.00  0.00    +0.000 A 
ATOM      8  C   UNL     1       3.358   2.748  20.779  0.00  0.00    +0.000 A 
ATOM      9  C   UNL     1       3.356   3.812  19.878  0.00  0.00    +0.000 A 
ATOM     10  C   UNL     1       4.590   4.191  19.102  0.00  0.00    +0.000 A 
ATOM     11  O   UNL     1       5.674   3.891  19.590  0.00  0.00    +0.000 OA
ENDROOT
BRANCH   1  17
ATOM     12  C   UNL     1       6.346   5.719  16.609  0.00  0.00    +0.000 A 
ATOM     13  C   UNL     1       7.151   5.761  15.455  0.00  0.00    +0.000 A 
ATOM     14  C   UNL     1       7.006   4.810  14.452  0.00  0.00    +0.000 A 
ATOM     15  C   UNL     1       6.047   3.820  14.586  0.00  0.00    +0.000 A 
ATOM     16  C   UNL     1       5.198   3.804  15.700  0.00  0.00    +0.000 A 
ATOM     17  C   UNL     1       5.290   4.762  16.726  0.00  0.00    +0.000 A 
BRANCH  12  19
ATOM     18  C   UNL     1       7.694   6.480  18.445  0.00  0.00    +0.000 C 
ATOM     19  O   UNL     1       6.539   6.623  17.626  0.00  0.00    +0.000 OA
ENDBRANCH  12  19
ENDBRANCH   1  17
BRANCH   3  20
ATOM     20  C   UNL     1       2.323   6.971  19.207  0.00  0.00    +0.000 C 
ATOM     21  O   UNL     1       2.827   7.167  20.310  0.00  0.00    +0.000 OA
ATOM     22  N   UNL     1       1.804   7.985  18.451  0.00  0.00    +0.000 N 
ATOM     23  H   UNL     1       1.450   7.830  17.510  0.00  0.00    +0.000 HD
BRANCH  22  24
ATOM     24  C   UNL     1       1.901   9.355  18.901  0.00  0.00    +0.000 C 
BRANCH  24  25
ATOM     25  C   UNL     1       0.606   9.791  19.584  0.00  0.00    +0.000 C 
ATOM     26  O   UNL     1       0.031   9.042  20.379  0.00  0.00    +0.000 OA
ATOM     27  N   UNL     1       0.118  11.045  19.256  0.00  0.00    +0.000 N 
ATOM     28  C   UNL     1      -1.034  11.568  19.982  0.00  0.00    +0.000 C 
ATOM     29  C   UNL     1      -0.613  12.709  20.933  0.00  0.00    +0.000 C 
ATOM     30  N   UNL     1       0.197  13.735  20.240  0.00  0.00    +0.000 N 
ATOM     31  C   UNL     1       1.324  13.211  19.437  0.00  0.00    +0.000 C 
ATOM     32  C   UNL     1       0.854  12.073  18.504  0.00  0.00    +0.000 C 
BRANCH  30  33
ATOM     33  C   UNL     1      -0.351  14.954  19.863  0.00  0.00    +0.000 A 
ATOM     34  C   UNL     1      -1.430  15.488  20.588  0.00  0.00    +0.000 A 
ATOM     35  C   UNL     1      -2.039  16.695  20.230  0.00  0.00    +0.000 A 
ATOM     36  C   UNL     1      -1.575  17.402  19.129  0.00  0.00    +0.000 A 
ATOM     37  C   UNL     1      -0.507  16.900  18.393  0.00  0.00    +0.000 A 
ATOM     38  C   UNL     1       0.093  15.686  18.756  0.00  0.00    +0.000 A 
ENDBRANCH  30  33
ENDBRANCH  24  25
ENDBRANCH  22  24
ENDBRANCH   3  20
TORSDOF 6
ENDMDL
MODEL 5
REMARK VINA RESULT:      -8.8      1.830      2.424
REMARK  Name = 
REMARK  7 active torsions:
REMARK  status: ('A' for Active; 'I' for Inactive)
REMARK    1  A    between atoms: C_1  and  O_2
REMARK    2  A    between atoms: O_2  and  C_3
REMARK    3  A    between atoms: C_8  and  N_9
REMARK    4  A    between atoms: C_11  and  C_12
REMARK    5  A    between atoms: N_14  and  C_15
REMARK    6  A    between atoms: C_15  and  C_16
REMARK    7  A    between atoms: N_21  and  C_22
REMARK                            x       y       z     vdW  Elec       q    Type
REMARK                         _______ _______ _______ _____ _____    ______ ____
ROOT
ATOM      1  N   UNL     1       4.434   4.900  17.519  0.00  0.00    +0.000 N 
ATOM      2  C   UNL     1       3.111   5.334  17.303  0.00  0.00    +0.000 A 
ATOM      3  C   UNL     1       2.358   5.776  18.325  0.00  0.00    +0.000 A 
ATOM      4  C   UNL     1       2.358   4.804  19.420  0.00  0.00    +0.000 A 
ATOM      5  C   UNL     1       1.203   4.511  20.147  0.00  0.00    +0.000 A 
ATOM      6  C   UNL     1       1.254   3.539  21.143  0.00  0.00    +0.000 A 
ATOM      7  C   UNL     1       2.458   2.885  21.427  0.00  0.00    +0.000 A 
ATOM      8  C   UNL     1       3.625   3.210  20.724  0.00  0.00    +0.000 A 
ATOM      9  C   UNL     1       3.571   4.164  19.708  0.00  0.00    +0.000 A 
ATOM     10  C   UNL     1       4.763   4.455  18.835  0.00  0.00    +0.000 A 
ATOM     11  O   UNL     1       5.872   4.217  19.302  0.00  0.00    +0.000 OA
ENDROOT
BRANCH   1  17
ATOM     12  C   UNL     1       6.265   5.776  15.995  0.00  0.00    +0.000 A 
ATOM     13  C   UNL     1       7.007   5.664  14.805  0.00  0.00    +0.000 A 
ATOM     14  C   UNL     1       6.940   4.512  14.030  0.00  0.00    +0.000 A 
ATOM     15  C   UNL     1       6.121   3.470  14.432  0.00  0.00    +0.000 A 
ATOM     16  C   UNL     1       5.330   3.593  15.581  0.00  0.00    +0.000 A 
ATOM     17  C   UNL     1       5.345   4.752  16.379  0.00  0.00    +0.000 A 
BRANCH  12  19
ATOM     18  C   UNL     1       7.505   6.979  17.665  0.00  0.00    +0.000 C 
ATOM     19  O   UNL     1       6.386   6.892  16.789  0.00  0.00    +0.000 OA
ENDBRANCH  12  19
ENDBRANCH   1  17
BRANCH   3  20
ATOM     20  C   UNL     1       2.479   7.221  18.731  0.00  0.00    +0.000 C 
ATOM     21  O   UNL     1       3.178   8.005  18.094  0.00  0.00    +0.000 OA
ATOM     22  N   UNL     1       1.796   7.598  19.854  0.00  0.00    +0.000 N 
ATOM     23  H   UNL     1       1.163   6.965  20.338  0.00  0.00    +0.000 HD
BRANCH  22  24
ATOM     24  C   UNL     1       1.815   8.974  20.293  0.00  0.00    +0.000 C 
BRANCH  24  25
ATOM     25  C   UNL     1       1.071   9.127  21.619  0.00  0.00    +0.000 C 
ATOM     26  O   UNL     1       1.608   8.806  22.683  0.00  0.00    +0.000 OA
ATOM     27  N   UNL     1      -0.220   9.625  21.556  0.00  0.00    +0.000 N 
ATOM     28  C   UNL     1      -0.923   9.924  22.799  0.00  0.00    +0.000 C 
ATOM     29  C   UNL     1      -1.052  11.449  23.005  0.00  0.00    +0.000 C 
ATOM     30  N   UNL     1      -1.602  12.123  21.807  0.00  0.00    +0.000 N 
ATOM     31  C   UNL     1      -0.946  11.769  20.529  0.00  0.00    +0.000 C 
ATOM     32  C   UNL     1      -0.839  10.236  20.370  0.00  0.00    +0.000 C 
BRANCH  30  33
ATOM     33  C   UNL     1      -2.925  12.543  21.758  0.00  0.00    +0.000 A 
ATOM     34  C   UNL     1      -3.663  12.663  22.948  0.00  0.00    +0.000 A 
ATOM     35  C   UNL     1      -5.007  13.050  22.951  0.00  0.00    +0.000 A 
ATOM     36  C   UNL     1      -5.647  13.330  21.751  0.00  0.00    +0.000 A 
ATOM     37  C   UNL     1      -4.942  13.222  20.557  0.00  0.00    +0.000 A 
ATOM     38  C   UNL     1      -3.596  12.827  20.564  0.00  0.00    +0.000 A 
ENDBRANCH  30  33
ENDBRANCH  24  25
ENDBRANCH  22  24
ENDBRANCH   3  20
TORSDOF 6
ENDMDL
MODEL 6
REMARK VINA RESULT:      -8.6      2.238      2.810
REMARK  Name = 
REMARK  7 active torsions:
REMARK  status: ('A' for Active; 'I' for Inactive)
REMARK    1  A    between atoms: C_1  and  O_2
REMARK    2  A    between atoms: O_2  and  C_3
REMARK    3  A    between atoms: C_8  and  N_9
REMARK    4  A    between atoms: C_11  and  C_12
REMARK    5  A    between atoms: N_14  and  C_15
REMARK    6  A    between atoms: C_15  and  C_16
REMARK    7  A    between atoms: N_21  and  C_22
REMARK                            x       y       z     vdW  Elec       q    Type
REMARK                         _______ _______ _______ _____ _____    ______ ____
ROOT
ATOM      1  N   UNL     1       4.425   4.729  17.582  0.00  0.00    +0.000 N 
ATOM      2  C   UNL     1       3.127   5.208  17.318  0.00  0.00    +0.000 A 
ATOM      3  C   UNL     1       2.322   5.599  18.320  0.00  0.00    +0.000 A 
ATOM      4  C   UNL     1       2.234   4.556  19.344  0.00  0.00    +0.000 A 
ATOM      5  C   UNL     1       1.031   4.244  19.979  0.00  0.00    +0.000 A 
ATOM      6  C   UNL     1       1.000   3.206  20.907  0.00  0.00    +0.000 A 
ATOM      7  C   UNL     1       2.171   2.505  21.217  0.00  0.00    +0.000 A 
ATOM      8  C   UNL     1       3.385   2.848  20.610  0.00  0.00    +0.000 A 
ATOM      9  C   UNL     1       3.414   3.869  19.660  0.00  0.00    +0.000 A 
ATOM     10  C   UNL     1       4.663   4.188  18.882  0.00  0.00    +0.000 A 
ATOM     11  O   UNL     1       5.735   3.891  19.397  0.00  0.00    +0.000 OA
ENDROOT
BRANCH   1  17
ATOM     12  C   UNL     1       6.630   5.364  16.497  0.00  0.00    +0.000 A 
ATOM     13  C   UNL     1       7.464   5.373  15.365  0.00  0.00    +0.000 A 
ATOM     14  C   UNL     1       7.165   4.592  14.255  0.00  0.00    +0.000 A 
ATOM     15  C   UNL     1       6.023   3.808  14.262  0.00  0.00    +0.000 A 
ATOM     16  C   UNL     1       5.152   3.838  15.358  0.00  0.00    +0.000 A 
ATOM     17  C   UNL     1       5.400   4.635  16.491  0.00  0.00    +0.000 A 
BRANCH  12  19
ATOM     18  C   UNL     1       7.343   7.452  17.448  0.00  0.00    +0.000 C 
ATOM     19  O   UNL     1       6.966   6.089  17.616  0.00  0.00    +0.000 OA
ENDBRANCH  12  19
ENDBRANCH   1  17
BRANCH   3  20
ATOM     20  C   UNL     1       2.447   7.010  18.831  0.00  0.00    +0.000 C 
ATOM     21  O   UNL     1       3.087   7.266  19.848  0.00  0.00    +0.000 OA
ATOM     22  N   UNL     1       1.790   7.977  18.121  0.00  0.00    +0.000 N 
ATOM     23  H   UNL     1       1.319   7.774  17.241  0.00  0.00    +0.000 HD
BRANCH  22  24
ATOM     24  C   UNL     1       1.890   9.365  18.509  0.00  0.00    +0.000 C 
BRANCH  24  25
ATOM     25  C   UNL     1       1.009   9.649  19.724  0.00  0.00    +0.000 C 
ATOM     26  O   UNL     1       1.496   9.703  20.857  0.00  0.00    +0.000 OA
ATOM     27  N   UNL     1      -0.344   9.827  19.486  0.00  0.00    +0.000 N 
ATOM     28  C   UNL     1      -1.208  10.241  20.586  0.00  0.00    +0.000 C 
ATOM     29  C   UNL     1      -1.658  11.707  20.411  0.00  0.00    +0.000 C 
ATOM     30  N   UNL     1      -2.216  11.955  19.063  0.00  0.00    +0.000 N 
ATOM     31  C   UNL     1      -1.385  11.471  17.939  0.00  0.00    +0.000 C 
ATOM     32  C   UNL     1      -0.958  10.003  18.161  0.00  0.00    +0.000 C 
BRANCH  30  33
ATOM     33  C   UNL     1      -3.586  12.056  18.855  0.00  0.00    +0.000 A 
ATOM     34  C   UNL     1      -4.405  12.598  19.860  0.00  0.00    +0.000 A 
ATOM     35  C   UNL     1      -5.793  12.691  19.714  0.00  0.00    +0.000 A 
ATOM     36  C   UNL     1      -6.397  12.240  18.547  0.00  0.00    +0.000 A 
ATOM     37  C   UNL     1      -5.611  11.700  17.534  0.00  0.00    +0.000 A 
ATOM     38  C   UNL     1      -4.221  11.606  17.692  0.00  0.00    +0.000 A 
ENDBRANCH  30  33
ENDBRANCH  24  25
ENDBRANCH  22  24
ENDBRANCH   3  20
TORSDOF 6
ENDMDL
MODEL 7
REMARK VINA RESULT:      -8.5      3.458     10.729
REMARK  Name = 
REMARK  7 active torsions:
REMARK  status: ('A' for Active; 'I' for Inactive)
REMARK    1  A    between atoms: C_1  and  O_2
REMARK    2  A    between atoms: O_2  and  C_3
REMARK    3  A    between atoms: C_8  and  N_9
REMARK    4  A    between atoms: C_11  and  C_12
REMARK    5  A    between atoms: N_14  and  C_15
REMARK    6  A    between atoms: C_15  and  C_16
REMARK    7  A    between atoms: N_21  and  C_22
REMARK                            x       y       z     vdW  Elec       q    Type
REMARK                         _______ _______ _______ _____ _____    ______ ____
ROOT
ATOM      1  N   UNL     1      -3.636  13.159  20.822  0.00  0.00    +0.000 N 
ATOM      2  C   UNL     1      -2.509  13.963  20.563  0.00  0.00    +0.000 A 
ATOM      3  C   UNL     1      -1.602  14.205  21.525  0.00  0.00    +0.000 A 
ATOM      4  C   UNL     1      -2.259  14.699  22.737  0.00  0.00    +0.000 A 
ATOM      5  C   UNL     1      -1.713  15.729  23.506  0.00  0.00    +0.000 A 
ATOM      6  C   UNL     1      -2.411  16.191  24.618  0.00  0.00    +0.000 A 
ATOM      7  C   UNL     1      -3.632  15.609  24.974  0.00  0.00    +0.000 A 
ATOM      8  C   UNL     1      -4.158  14.547  24.226  0.00  0.00    +0.000 A 
ATOM      9  C   UNL     1      -3.474  14.101  23.095  0.00  0.00    +0.000 A 
ATOM     10  C   UNL     1      -4.058  13.055  22.182  0.00  0.00    +0.000 A 
ATOM     11  O   UNL     1      -4.877  12.282  22.667  0.00  0.00    +0.000 OA
ENDROOT
BRANCH   1  17
ATOM     12  C   UNL     1      -3.847  11.786  18.698  0.00  0.00    +0.000 A 
ATOM     13  C   UNL     1      -4.587  11.425  17.557  0.00  0.00    +0.000 A 
ATOM     14  C   UNL     1      -5.923  11.788  17.432  0.00  0.00    +0.000 A 
ATOM     15  C   UNL     1      -6.524  12.528  18.438  0.00  0.00    +0.000 A 
ATOM     16  C   UNL     1      -5.781  12.947  19.548  0.00  0.00    +0.000 A 
ATOM     17  C   UNL     1      -4.420  12.625  19.703  0.00  0.00    +0.000 A 
BRANCH  12  19
ATOM     18  C   UNL     1      -2.101  10.262  18.066  0.00  0.00    +0.000 C 
ATOM     19  O   UNL     1      -2.545  11.367  18.845  0.00  0.00    +0.000 OA
ENDBRANCH  12  19
ENDBRANCH   1  17
BRANCH   3  20
ATOM     20  C   UNL     1      -0.500  13.201  21.740  0.00  0.00    +0.000 C 
ATOM     21  O   UNL     1      -0.114  12.910  22.869  0.00  0.00    +0.000 OA
ATOM     22  N   UNL     1       0.058  12.659  20.615  0.00  0.00    +0.000 N 
ATOM     23  H   UNL     1      -0.309  12.847  19.685  0.00  0.00    +0.000 HD
BRANCH  22  24
ATOM     24  C   UNL     1       1.090  11.653  20.724  0.00  0.00    +0.000 C 
BRANCH  24  25
ATOM     25  C   UNL     1       1.335  10.985  19.372  0.00  0.00    +0.000 C 
ATOM     26  O   UNL     1       1.770  11.635  18.418  0.00  0.00    +0.000 OA
ATOM     27  N   UNL     1       1.035   9.636  19.279  0.00  0.00    +0.000 N 
ATOM     28  C   UNL     1       1.382   8.916  18.058  0.00  0.00    +0.000 C 
ATOM     29  C   UNL     1       2.568   7.959  18.302  0.00  0.00    +0.000 C 
ATOM     30  N   UNL     1       2.348   7.096  19.484  0.00  0.00    +0.000 N 
ATOM     31  C   UNL     1       1.921   7.806  20.710  0.00  0.00    +0.000 C 
ATOM     32  C   UNL     1       0.735   8.751  20.415  0.00  0.00    +0.000 C 
BRANCH  30  33
ATOM     33  C   UNL     1       1.976   5.765  19.347  0.00  0.00    +0.000 A 
ATOM     34  C   UNL     1       2.054   5.145  18.089  0.00  0.00    +0.000 A 
ATOM     35  C   UNL     1       1.661   3.818  17.891  0.00  0.00    +0.000 A 
ATOM     36  C   UNL     1       1.180   3.073  18.960  0.00  0.00    +0.000 A 
ATOM     37  C   UNL     1       1.093   3.660  20.218  0.00  0.00    +0.000 A 
ATOM     38  C   UNL     1       1.484   4.993  20.406  0.00  0.00    +0.000 A 
ENDBRANCH  30  33
ENDBRANCH  24  25
ENDBRANCH  22  24
ENDBRANCH   3  20
TORSDOF 6
ENDMDL
MODEL 8
REMARK VINA RESULT:      -8.5      1.421      1.942
REMARK  Name = 
REMARK  7 active torsions:
REMARK  status: ('A' for Active; 'I' for Inactive)
REMARK    1  A    between atoms: C_1  and  O_2
REMARK    2  A    between atoms: O_2  and  C_3
REMARK    3  A    between atoms: C_8  and  N_9
REMARK    4  A    between atoms: C_11  and  C_12
REMARK    5  A    between atoms: N_14  and  C_15
REMARK    6  A    between atoms: C_15  and  C_16
REMARK    7  A    between atoms: N_21  and  C_22
REMARK                            x       y       z     vdW  Elec       q    Type
REMARK                         _______ _______ _______ _____ _____    ______ ____
ROOT
ATOM      1  N   UNL     1       4.368   4.753  17.753  0.00  0.00    +0.000 N 
ATOM      2  C   UNL     1       3.054   5.229  17.575  0.00  0.00    +0.000 A 
ATOM      3  C   UNL     1       2.296   5.566  18.633  0.00  0.00    +0.000 A 
ATOM      4  C   UNL     1       2.269   4.477  19.611  0.00  0.00    +0.000 A 
ATOM      5  C   UNL     1       1.101   4.123  20.290  0.00  0.00    +0.000 A 
ATOM      6  C   UNL     1       1.126   3.044  21.170  0.00  0.00    +0.000 A 
ATOM      7  C   UNL     1       2.317   2.343  21.390  0.00  0.00    +0.000 A 
ATOM      8  C   UNL     1       3.497   2.726  20.740  0.00  0.00    +0.000 A 
ATOM      9  C   UNL     1       3.469   3.789  19.837  0.00  0.00    +0.000 A 
ATOM     10  C   UNL     1       4.675   4.157  19.015  0.00  0.00    +0.000 A 
ATOM     11  O   UNL     1       5.774   3.850  19.462  0.00  0.00    +0.000 OA
ENDROOT
BRANCH   1  17
ATOM     12  C   UNL     1       6.290   5.720  16.406  0.00  0.00    +0.000 A 
ATOM     13  C   UNL     1       7.046   5.742  15.220  0.00  0.00    +0.000 A 
ATOM     14  C   UNL     1       6.913   4.735  14.271  0.00  0.00    +0.000 A 
ATOM     15  C   UNL     1       6.012   3.707  14.494  0.00  0.00    +0.000 A 
ATOM     16  C   UNL     1       5.208   3.706  15.640  0.00  0.00    +0.000 A 
ATOM     17  C   UNL     1       5.289   4.720  16.613  0.00  0.00    +0.000 A 
BRANCH  12  19
ATOM     18  C   UNL     1       7.624   6.592  18.202  0.00  0.00    +0.000 C 
ATOM     19  O   UNL     1       6.474   6.684  17.368  0.00  0.00    +0.000 OA
ENDBRANCH  12  19
ENDBRANCH   1  17
BRANCH   3  20
ATOM     20  C   UNL     1       2.434   6.954  19.200  0.00  0.00    +0.000 C 
ATOM     21  O   UNL     1       3.391   7.668  18.913  0.00  0.00    +0.000 OA
ATOM     22  N   UNL     1       1.457   7.358  20.067  0.00  0.00    +0.000 N 
ATOM     23  H   UNL     1       0.630   6.794  20.250  0.00  0.00    +0.000 HD
BRANCH  22  24
ATOM     24  C   UNL     1       1.481   8.690  20.626  0.00  0.00    +0.000 C 
BRANCH  24  25
ATOM     25  C   UNL     1       0.795   9.681  19.686  0.00  0.00    +0.000 C 
ATOM     26  O   UNL     1       0.608   9.397  18.500  0.00  0.00    +0.000 OA
ATOM     27  N   UNL     1       0.415  10.896  20.230  0.00  0.00    +0.000 N 
ATOM     28  C   UNL     1      -0.369  11.821  19.417  0.00  0.00    +0.000 C 
ATOM     29  C   UNL     1      -1.828  11.891  19.916  0.00  0.00    +0.000 C 
ATOM     30  N   UNL     1      -1.901  12.138  21.373  0.00  0.00    +0.000 N 
ATOM     31  C   UNL     1      -1.052  11.256  22.204  0.00  0.00    +0.000 C 
ATOM     32  C   UNL     1       0.395  11.217  21.665  0.00  0.00    +0.000 C 
BRANCH  30  33
ATOM     33  C   UNL     1      -2.216  13.392  21.879  0.00  0.00    +0.000 A 
ATOM     34  C   UNL     1      -2.524  13.537  23.243  0.00  0.00    +0.000 A 
ATOM     35  C   UNL     1      -2.880  14.771  23.795  0.00  0.00    +0.000 A 
ATOM     36  C   UNL     1      -2.934  15.900  22.987  0.00  0.00    +0.000 A 
ATOM     37  C   UNL     1      -2.632  15.788  21.634  0.00  0.00    +0.000 A 
ATOM     38  C   UNL     1      -2.282  14.545  21.088  0.00  0.00    +0.000 A 
ENDBRANCH  30  33
ENDBRANCH  24  25
ENDBRANCH  22  24
ENDBRANCH   3  20
TORSDOF 6
ENDMDL
MODEL 9
REMARK VINA RESULT:      -8.3      2.107      5.011
REMARK  Name = 
REMARK  7 active torsions:
REMARK  status: ('A' for Active; 'I' for Inactive)
REMARK    1  A    between atoms: C_1  and  O_2
REMARK    2  A    between atoms: O_2  and  C_3
REMARK    3  A    between atoms: C_8  and  N_9
REMARK    4  A    between atoms: C_11  and  C_12
REMARK    5  A    between atoms: N_14  and  C_15
REMARK    6  A    between atoms: C_15  and  C_16
REMARK    7  A    between atoms: N_21  and  C_22
REMARK                            x       y       z     vdW  Elec       q    Type
REMARK                         _______ _______ _______ _____ _____    ______ ____
ROOT
ATOM      1  N   UNL     1       3.535   4.526  18.628  0.00  0.00    +0.000 N 
ATOM      2  C   UNL     1       4.232   5.732  18.841  0.00  0.00    +0.000 A 
ATOM      3  C   UNL     1       4.602   6.504  17.805  0.00  0.00    +0.000 A 
ATOM      4  C   UNL     1       5.330   5.713  16.810  0.00  0.00    +0.000 A 
ATOM      5  C   UNL     1       6.455   6.211  16.151  0.00  0.00    +0.000 A 
ATOM      6  C   UNL     1       7.136   5.392  15.254  0.00  0.00    +0.000 A 
ATOM      7  C   UNL     1       6.678   4.095  14.998  0.00  0.00    +0.000 A 
ATOM      8  C   UNL     1       5.524   3.612  15.629  0.00  0.00    +0.000 A 
ATOM      9  C   UNL     1       4.856   4.421  16.549  0.00  0.00    +0.000 A 
ATOM     10  C   UNL     1       3.691   3.905  17.352  0.00  0.00    +0.000 A 
ATOM     11  O   UNL     1       3.051   2.974  16.877  0.00  0.00    +0.000 OA
ENDROOT
BRANCH   1  17
ATOM     12  C   UNL     1       3.436   2.818  20.503  0.00  0.00    +0.000 A 
ATOM     13  C   UNL     1       2.685   2.116  21.463  0.00  0.00    +0.000 A 
ATOM     14  C   UNL     1       1.388   2.504  21.775  0.00  0.00    +0.000 A 
ATOM     15  C   UNL     1       0.826   3.587  21.119  0.00  0.00    +0.000 A 
ATOM     16  C   UNL     1       1.540   4.255  20.116  0.00  0.00    +0.000 A 
ATOM     17  C   UNL     1       2.845   3.879  19.749  0.00  0.00    +0.000 A 
BRANCH  12  19
ATOM     18  C   UNL     1       5.272   1.321  20.902  0.00  0.00    +0.000 C 
ATOM     19  O   UNL     1       4.741   2.468  20.246  0.00  0.00    +0.000 OA
ENDBRANCH  12  19
ENDBRANCH   1  17
BRANCH   3  20
ATOM     20  C   UNL     1       3.606   7.491  17.257  0.00  0.00    +0.000 C 
ATOM     21  O   UNL     1       3.656   7.864  16.087  0.00  0.00    +0.000 OA
ATOM     22  N   UNL     1       2.671   7.966  18.135  0.00  0.00    +0.000 N 
ATOM     23  H   UNL     1       2.588   7.605  19.082  0.00  0.00    +0.000 HD
BRANCH  22  24
ATOM     24  C   UNL     1       1.648   8.882  17.687  0.00  0.00    +0.000 C 
BRANCH  24  25
ATOM     25  C   UNL     1       1.839  10.258  18.324  0.00  0.00    +0.000 C 
ATOM     26  O   UNL     1       2.718  11.023  17.917  0.00  0.00    +0.000 OA
ATOM     27  N   UNL     1       0.995  10.583  19.372  0.00  0.00    +0.000 N 
ATOM     28  C   UNL     1       1.039  11.934  19.923  0.00  0.00    +0.000 C 
ATOM     29  C   UNL     1      -0.223  12.730  19.529  0.00  0.00    +0.000 C 
ATOM     30  N   UNL     1      -1.464  11.982  19.831  0.00  0.00    +0.000 N 
ATOM     31  C   UNL     1      -1.490  10.584  19.344  0.00  0.00    +0.000 C 
ATOM     32  C   UNL     1      -0.208   9.831  19.761  0.00  0.00    +0.000 C 
BRANCH  30  33
ATOM     33  C   UNL     1      -2.245  12.294  20.936  0.00  0.00    +0.000 A 
ATOM     34  C   UNL     1      -3.532  12.828  20.750  0.00  0.00    +0.000 A 
ATOM     35  C   UNL     1      -4.346  13.190  21.828  0.00  0.00    +0.000 A 
ATOM     36  C   UNL     1      -3.887  13.022  23.128  0.00  0.00    +0.000 A 
ATOM     37  C   UNL     1      -2.618  12.493  23.343  0.00  0.00    +0.000 A 
ATOM     38  C   UNL     1      -1.807  12.139  22.256  0.00  0.00    +0.000 A 
ENDBRANCH  30  33
ENDBRANCH  24  25
ENDBRANCH  22  24
ENDBRANCH   3  20
TORSDOF 6
ENDMDL
