MODEL 1
REMARK VINA RESULT:      -8.1      0.000      0.000
REMARK  Name = 
REMARK  17 active torsions:
REMARK  status: ('A' for Active; 'I' for Inactive)
REMARK    1  A    between atoms: C_1  and  C_2
REMARK    2  A    between atoms: C_2  and  O_3
REMARK    3  A    between atoms: O_3  and  C_4
REMARK    4  A    between atoms: C_4  and  C_6
REMARK    5  A    between atoms: C_7  and  C_8
REMARK    6  A    between atoms: N_9  and  C_10
REMARK    7  A    between atoms: C_13  and  C_14
REMARK    8  A    between atoms: C_20  and  O_21
REMARK    9  A    between atoms: O_21  and  C_22
REMARK   10  A    between atoms: C_22  and  C_23
REMARK   11  A    between atoms: C_23  and  O_24
REMARK   12  A    between atoms: C_23  and  C_25
REMARK   13  A    between atoms: C_25  and  N_26
REMARK   14  A    between atoms: N_26  and  C_27
REMARK   15  A    between atoms: C_27  and  C_28
REMARK   16  A    between atoms: C_28  and  C_29
REMARK   17  A    between atoms: C_29  and  O_30
REMARK                            x       y       z     vdW  Elec       q    Type
REMARK                         _______ _______ _______ _____ _____    ______ ____
ROOT
ATOM      1  C   UNL     1       3.745   4.289  19.377  0.00  0.00    +0.000 A 
ATOM      2  C   UNL     1       2.821   5.239  19.816  0.00  0.00    +0.000 A 
ATOM      3  C   UNL     1       1.743   5.051  20.840  0.00  0.00    +0.000 C 
ATOM      4  N   UNL     1       2.985   6.407  19.054  0.00  0.00    +0.000 N 
ATOM      5  C   UNL     1       4.063   6.211  18.180  0.00  0.00    +0.000 A 
ATOM      6  C   UNL     1       4.719   7.082  17.284  0.00  0.00    +0.000 A 
ATOM      7  C   UNL     1       5.793   6.613  16.520  0.00  0.00    +0.000 A 
ATOM      8  C   UNL     1       6.249   5.313  16.653  0.00  0.00    +0.000 A 
ATOM      9  C   UNL     1       5.621   4.463  17.566  0.00  0.00    +0.000 A 
ATOM     10  C   UNL     1       4.521   4.901  18.344  0.00  0.00    +0.000 A 
ENDROOT
BRANCH   4  11
ATOM     11  C   UNL     1       2.194   7.605  19.129  0.00  0.00    +0.000 A 
ATOM     12  C   UNL     1       1.878   8.341  17.982  0.00  0.00    +0.000 A 
ATOM     13  C   UNL     1       1.145   9.530  18.074  0.00  0.00    +0.000 A 
ATOM     14  C   UNL     1       0.689   9.991  19.312  0.00  0.00    +0.000 A 
ATOM     15  C   UNL     1      -0.091  11.267  19.420  0.00  0.00    +0.000 C 
ATOM     16  C   UNL     1       0.966   9.238  20.455  0.00  0.00    +0.000 A 
ATOM     17  C   UNL     1       1.728   8.067  20.368  0.00  0.00    +0.000 A 
ENDBRANCH   4  11
BRANCH   1  18
ATOM     18  C   UNL     1       3.922   2.934  19.913  0.00  0.00    +0.000 C 
ATOM     19  O   UNL     1       5.008   2.444  20.192  0.00  0.00    +0.000 OA
BRANCH  18  20
ATOM     20  O   UNL     1       2.737   2.264  20.002  0.00  0.00    +0.000 OA
BRANCH  20  22
ATOM     21  C   UNL     1       0.704   2.328  18.686  0.00  0.00    +0.000 C 
ATOM     22  C   UNL     1       2.135   1.838  18.775  0.00  0.00    +0.000 C 
ENDBRANCH  20  22
ENDBRANCH  18  20
ENDBRANCH   1  18
BRANCH   8  23
ATOM     23  O   UNL     1       7.303   4.752  15.990  0.00  0.00    +0.000 OA
BRANCH  23  24
ATOM     24  C   UNL     1       7.345   4.943  14.570  0.00  0.00    +0.000 C 
BRANCH  24  25
ATOM     25  C   UNL     1       6.413   3.923  13.899  0.00  0.00    +0.000 C 
BRANCH  25  26
ATOM     26  O   UNL     1       5.048   4.277  14.155  0.00  0.00    +0.000 OA
ATOM     27  H   UNL     1       5.049   4.751  15.009  0.00  0.00    +0.000 HD
ENDBRANCH  25  26
BRANCH  25  28
ATOM     28  C   UNL     1       6.629   3.820  12.376  0.00  0.00    +0.000 C 
BRANCH  28  29
ATOM     29  N   UNL     1       6.539   2.431  11.917  0.00  0.00    +0.000 NA
ATOM     30  H   UNL     1       6.777   1.805  12.688  0.00  0.00    +0.000 HD
BRANCH  29  31
ATOM     31  C   UNL     1       5.202   2.109  11.423  0.00  0.00    +0.000 C 
BRANCH  31  32
ATOM     32  C   UNL     1       4.506   3.380  10.940  0.00  0.00    +0.000 C 
BRANCH  32  33
ATOM     33  C   UNL     1       3.118   3.113  10.368  0.00  0.00    +0.000 C 
BRANCH  33  34
ATOM     34  O   UNL     1       2.863   4.021   9.302  0.00  0.00    +0.000 OA
ATOM     35  H   UNL     1       3.627   3.980   8.701  0.00  0.00    +0.000 HD
ENDBRANCH  33  34
ENDBRANCH  32  33
ENDBRANCH  31  32
ENDBRANCH  29  31
ENDBRANCH  28  29
ENDBRANCH  25  28
ENDBRANCH  24  25
ENDBRANCH  23  24
ENDBRANCH   8  23
TORSDOF 14
ENDMDL
MODEL 2
REMARK VINA RESULT:      -7.8      0.997      1.719
REMARK  Name = 
REMARK  17 active torsions:
REMARK  status: ('A' for Active; 'I' for Inactive)
REMARK    1  A    between atoms: C_1  and  C_2
REMARK    2  A    between atoms: C_2  and  O_3
REMARK    3  A    between atoms: O_3  and  C_4
REMARK    4  A    between atoms: C_4  and  C_6
REMARK    5  A    between atoms: C_7  and  C_8
REMARK    6  A    between atoms: N_9  and  C_10
REMARK    7  A    between atoms: C_13  and  C_14
REMARK    8  A    between atoms: C_20  and  O_21
REMARK    9  A    between atoms: O_21  and  C_22
REMARK   10  A    between atoms: C_22  and  C_23
REMARK   11  A    between atoms: C_23  and  O_24
REMARK   12  A    between atoms: C_23  and  C_25
REMARK   13  A    between atoms: C_25  and  N_26
REMARK   14  A    between atoms: N_26  and  C_27
REMARK   15  A    between atoms: C_27  and  C_28
REMARK   16  A    between atoms: C_28  and  C_29
REMARK   17  A    between atoms: C_29  and  O_30
REMARK                            x       y       z     vdW  Elec       q    Type
REMARK                         _______ _______ _______ _____ _____    ______ ____
ROOT
ATOM      1  C   UNL     1       3.060   4.052  18.488  0.00  0.00    +0.000 A 
ATOM      2  C   UNL     1       2.222   4.979  19.109  0.00  0.00    +0.000 A 
ATOM      3  C   UNL     1       0.979   4.694  19.895  0.00  0.00    +0.000 C 
ATOM      4  N   UNL     1       2.667   6.271  18.788  0.00  0.00    +0.000 N 
ATOM      5  C   UNL     1       3.833   6.152  18.017  0.00  0.00    +0.000 A 
ATOM      6  C   UNL     1       4.739   7.115  17.526  0.00  0.00    +0.000 A 
ATOM      7  C   UNL     1       5.844   6.709  16.772  0.00  0.00    +0.000 A 
ATOM      8  C   UNL     1       6.085   5.368  16.525  0.00  0.00    +0.000 A 
ATOM      9  C   UNL     1       5.206   4.414  17.042  0.00  0.00    +0.000 A 
ATOM     10  C   UNL     1       4.070   4.792  17.797  0.00  0.00    +0.000 A 
ENDROOT
BRANCH   4  11
ATOM     11  C   UNL     1       2.052   7.515  19.160  0.00  0.00    +0.000 A 
ATOM     12  C   UNL     1       1.728   7.798  20.491  0.00  0.00    +0.000 A 
ATOM     13  C   UNL     1       1.089   8.994  20.834  0.00  0.00    +0.000 A 
ATOM     14  C   UNL     1       0.787   9.946  19.857  0.00  0.00    +0.000 A 
ATOM     15  C   UNL     1       0.097  11.229  20.214  0.00  0.00    +0.000 C 
ATOM     16  C   UNL     1       1.147   9.687  18.532  0.00  0.00    +0.000 A 
ATOM     17  C   UNL     1       1.756   8.476  18.183  0.00  0.00    +0.000 A 
ENDBRANCH   4  11
BRANCH   1  18
ATOM     18  C   UNL     1       2.956   2.591  18.573  0.00  0.00    +0.000 C 
ATOM     19  O   UNL     1       2.658   1.868  17.630  0.00  0.00    +0.000 OA
BRANCH  18  20
ATOM     20  O   UNL     1       3.168   2.139  19.843  0.00  0.00    +0.000 OA
BRANCH  20  22
ATOM     21  C   UNL     1       5.119   1.087  20.821  0.00  0.00    +0.000 C 
ATOM     22  C   UNL     1       4.456   2.388  20.416  0.00  0.00    +0.000 C 
ENDBRANCH  20  22
ENDBRANCH  18  20
ENDBRANCH   1  18
BRANCH   8  23
ATOM     23  O   UNL     1       7.141   4.848  15.832  0.00  0.00    +0.000 OA
BRANCH  23  24
ATOM     24  C   UNL     1       6.828   4.037  14.694  0.00  0.00    +0.000 C 
BRANCH  24  25
ATOM     25  C   UNL     1       6.940   4.891  13.422  0.00  0.00    +0.000 C 
BRANCH  25  26
ATOM     26  O   UNL     1       8.193   5.588  13.420  0.00  0.00    +0.000 OA
ATOM     27  H   UNL     1       8.036   6.423  13.904  0.00  0.00    +0.000 HD
ENDBRANCH  25  26
BRANCH  25  28
ATOM     28  C   UNL     1       6.823   4.063  12.127  0.00  0.00    +0.000 C 
BRANCH  28  29
ATOM     29  N   UNL     1       6.389   2.692  12.407  0.00  0.00    +0.000 NA
ATOM     30  H   UNL     1       6.082   2.627  13.379  0.00  0.00    +0.000 HD
BRANCH  29  31
ATOM     31  C   UNL     1       5.302   2.277  11.523  0.00  0.00    +0.000 C 
BRANCH  31  32
ATOM     32  C   UNL     1       4.363   3.453  11.266  0.00  0.00    +0.000 C 
BRANCH  32  33
ATOM     33  C   UNL     1       3.172   3.078  10.389  0.00  0.00    +0.000 C 
BRANCH  33  34
ATOM     34  O   UNL     1       3.024   4.046   9.356  0.00  0.00    +0.000 OA
ATOM     35  H   UNL     1       2.387   3.686   8.715  0.00  0.00    +0.000 HD
ENDBRANCH  33  34
ENDBRANCH  32  33
ENDBRANCH  31  32
ENDBRANCH  29  31
ENDBRANCH  28  29
ENDBRANCH  25  28
ENDBRANCH  24  25
ENDBRANCH  23  24
ENDBRANCH   8  23
TORSDOF 14
ENDMDL
MODEL 3
REMARK VINA RESULT:      -7.8      3.903      9.323
REMARK  Name = 
REMARK  17 active torsions:
REMARK  status: ('A' for Active; 'I' for Inactive)
REMARK    1  A    between atoms: C_1  and  C_2
REMARK    2  A    between atoms: C_2  and  O_3
REMARK    3  A    between atoms: O_3  and  C_4
REMARK    4  A    between atoms: C_4  and  C_6
REMARK    5  A    between atoms: C_7  and  C_8
REMARK    6  A    between atoms: N_9  and  C_10
REMARK    7  A    between atoms: C_13  and  C_14
REMARK    8  A    between atoms: C_20  and  O_21
REMARK    9  A    between atoms: O_21  and  C_22
REMARK   10  A    between atoms: C_22  and  C_23
REMARK   11  A    between atoms: C_23  and  O_24
REMARK   12  A    between atoms: C_23  and  C_25
REMARK   13  A    between atoms: C_25  and  N_26
REMARK   14  A    between atoms: N_26  and  C_27
REMARK   15  A    between atoms: C_27  and  C_28
REMARK   16  A    between atoms: C_28  and  C_29
REMARK   17  A    between atoms: C_29  and  O_30
REMARK                            x       y       z     vdW  Elec       q    Type
REMARK                         _______ _______ _______ _____ _____    ______ ____
ROOT
ATOM      1  C   UNL     1       2.733   4.667  20.150  0.00  0.00    +0.000 A 
ATOM      2  C   UNL     1       3.609   4.184  19.176  0.00  0.00    +0.000 A 
ATOM      3  C   UNL     1       4.241   2.826  19.118  0.00  0.00    +0.000 C 
ATOM      4  N   UNL     1       3.907   5.227  18.286  0.00  0.00    +0.000 N 
ATOM      5  C   UNL     1       3.160   6.351  18.664  0.00  0.00    +0.000 A 
ATOM      6  C   UNL     1       2.994   7.617  18.062  0.00  0.00    +0.000 A 
ATOM      7  C   UNL     1       2.168   8.570  18.666  0.00  0.00    +0.000 A 
ATOM      8  C   UNL     1       1.478   8.281  19.831  0.00  0.00    +0.000 A 
ATOM      9  C   UNL     1       1.616   7.015  20.405  0.00  0.00    +0.000 A 
ATOM     10  C   UNL     1       2.456   6.032  19.828  0.00  0.00    +0.000 A 
ENDROOT
BRANCH   4  11
ATOM     11  C   UNL     1       4.821   5.182  17.178  0.00  0.00    +0.000 A 
ATOM     12  C   UNL     1       4.503   4.503  15.997  0.00  0.00    +0.000 A 
ATOM     13  C   UNL     1       5.421   4.430  14.943  0.00  0.00    +0.000 A 
ATOM     14  C   UNL     1       6.664   5.060  15.036  0.00  0.00    +0.000 A 
ATOM     15  C   UNL     1       7.656   4.982  13.914  0.00  0.00    +0.000 C 
ATOM     16  C   UNL     1       6.970   5.776  16.196  0.00  0.00    +0.000 A 
ATOM     17  C   UNL     1       6.067   5.821  17.264  0.00  0.00    +0.000 A 
ENDBRANCH   4  11
BRANCH   1  18
ATOM     18  C   UNL     1       2.161   3.901  21.263  0.00  0.00    +0.000 C 
ATOM     19  O   UNL     1       2.733   3.711  22.329  0.00  0.00    +0.000 OA
BRANCH  18  20
ATOM     20  O   UNL     1       0.944   3.373  20.946  0.00  0.00    +0.000 OA
BRANCH  20  22
ATOM     21  C   UNL     1       0.507   2.458  18.746  0.00  0.00    +0.000 C 
ATOM     22  C   UNL     1       0.937   2.171  20.170  0.00  0.00    +0.000 C 
ENDBRANCH  20  22
ENDBRANCH  18  20
ENDBRANCH   1  18
BRANCH   8  23
ATOM     23  O   UNL     1       0.622   9.113  20.494  0.00  0.00    +0.000 OA
BRANCH  23  24
ATOM     24  C   UNL     1      -0.059   8.564  21.629  0.00  0.00    +0.000 C 
BRANCH  24  25
ATOM     25  C   UNL     1      -0.386   9.697  22.614  0.00  0.00    +0.000 C 
BRANCH  25  26
ATOM     26  O   UNL     1       0.464   9.595  23.764  0.00  0.00    +0.000 OA
ATOM     27  H   UNL     1      -0.108   9.289  24.495  0.00  0.00    +0.000 HD
ENDBRANCH  25  26
BRANCH  25  28
ATOM     28  C   UNL     1      -0.228  11.100  21.995  0.00  0.00    +0.000 C 
BRANCH  28  29
ATOM     29  N   UNL     1      -0.765  12.137  22.880  0.00  0.00    +0.000 NA
ATOM     30  H   UNL     1      -0.698  13.044  22.416  0.00  0.00    +0.000 HD
BRANCH  29  31
ATOM     31  C   UNL     1      -2.157  11.874  23.240  0.00  0.00    +0.000 C 
BRANCH  31  32
ATOM     32  C   UNL     1      -3.006  13.115  22.972  0.00  0.00    +0.000 C 
BRANCH  32  33
ATOM     33  C   UNL     1      -4.339  13.091  23.713  0.00  0.00    +0.000 C 
BRANCH  33  34
ATOM     34  O   UNL     1      -4.421  11.907  24.500  0.00  0.00    +0.000 OA
ATOM     35  H   UNL     1      -4.394  11.153  23.887  0.00  0.00    +0.000 HD
ENDBRANCH  33  34
ENDBRANCH  32  33
ENDBRANCH  31  32
ENDBRANCH  29  31
ENDBRANCH  28  29
ENDBRANCH  25  28
ENDBRANCH  24  25
ENDBRANCH  23  24
ENDBRANCH   8  23
TORSDOF 14
ENDMDL
MODEL 4
REMARK VINA RESULT:      -7.7      0.707      1.169
REMARK  Name = 
REMARK  17 active torsions:
REMARK  status: ('A' for Active; 'I' for Inactive)
REMARK    1  A    between atoms: C_1  and  C_2
REMARK    2  A    between atoms: C_2  and  O_3
REMARK    3  A    between atoms: O_3  and  C_4
REMARK    4  A    between atoms: C_4  and  C_6
REMARK    5  A    between atoms: C_7  and  C_8
REMARK    6  A    between atoms: N_9  and  C_10
REMARK    7  A    between atoms: C_13  and  C_14
REMARK    8  A    between atoms: C_20  and  O_21
REMARK    9  A    between atoms: O_21  and  C_22
REMARK   10  A    between atoms: C_22  and  C_23
REMARK   11  A    between atoms: C_23  and  O_24
REMARK   12  A    between atoms: C_23  and  C_25
REMARK   13  A    between atoms: C_25  and  N_26
REMARK   14  A    between atoms: N_26  and  C_27
REMARK   15  A    between atoms: C_27  and  C_28
REMARK   16  A    between atoms: C_28  and  C_29
REMARK   17  A    between atoms: C_29  and  O_30
REMARK                            x       y       z     vdW  Elec       q    Type
REMARK                         _______ _______ _______ _____ _____    ______ ____
ROOT
ATOM      1  C   UNL     1       3.659   4.345  19.330  0.00  0.00    +0.000 A 
ATOM      2  C   UNL     1       2.804   5.317  19.853  0.00  0.00    +0.000 A 
ATOM      3  C   UNL     1       1.837   5.159  20.986  0.00  0.00    +0.000 C 
ATOM      4  N   UNL     1       2.908   6.473  19.064  0.00  0.00    +0.000 N 
ATOM      5  C   UNL     1       3.885   6.248  18.083  0.00  0.00    +0.000 A 
ATOM      6  C   UNL     1       4.458   7.097  17.113  0.00  0.00    +0.000 A 
ATOM      7  C   UNL     1       5.438   6.600  16.247  0.00  0.00    +0.000 A 
ATOM      8  C   UNL     1       5.881   5.293  16.347  0.00  0.00    +0.000 A 
ATOM      9  C   UNL     1       5.338   4.464  17.331  0.00  0.00    +0.000 A 
ATOM     10  C   UNL     1       4.334   4.931  18.215  0.00  0.00    +0.000 A 
ENDROOT
BRANCH   4  11
ATOM     11  C   UNL     1       2.152   7.687  19.206  0.00  0.00    +0.000 A 
ATOM     12  C   UNL     1       1.720   8.134  20.459  0.00  0.00    +0.000 A 
ATOM     13  C   UNL     1       0.946   9.293  20.579  0.00  0.00    +0.000 A 
ATOM     14  C   UNL     1       0.613  10.047  19.450  0.00  0.00    +0.000 A 
ATOM     15  C   UNL     1      -0.220  11.288  19.568  0.00  0.00    +0.000 C 
ATOM     16  C   UNL     1       1.078   9.629  18.201  0.00  0.00    +0.000 A 
ATOM     17  C   UNL     1       1.823   8.450  18.077  0.00  0.00    +0.000 A 
ENDBRANCH   4  11
BRANCH   1  18
ATOM     18  C   UNL     1       3.867   2.992  19.861  0.00  0.00    +0.000 C 
ATOM     19  O   UNL     1       4.968   2.508  20.092  0.00  0.00    +0.000 OA
BRANCH  18  20
ATOM     20  O   UNL     1       2.691   2.316  20.005  0.00  0.00    +0.000 OA
BRANCH  20  22
ATOM     21  C   UNL     1       0.619   2.457  18.758  0.00  0.00    +0.000 C 
ATOM     22  C   UNL     1       2.027   1.900  18.807  0.00  0.00    +0.000 C 
ENDBRANCH  20  22
ENDBRANCH  18  20
ENDBRANCH   1  18
BRANCH   8  23
ATOM     23  O   UNL     1       6.849   4.704  15.583  0.00  0.00    +0.000 OA
BRANCH  23  24
ATOM     24  C   UNL     1       6.429   3.644  14.716  0.00  0.00    +0.000 C 
BRANCH  24  25
ATOM     25  C   UNL     1       6.397   4.162  13.270  0.00  0.00    +0.000 C 
BRANCH  25  26
ATOM     26  O   UNL     1       7.335   5.235  13.122  0.00  0.00    +0.000 OA
ATOM     27  H   UNL     1       7.637   5.455  14.025  0.00  0.00    +0.000 HD
ENDBRANCH  25  26
BRANCH  25  28
ATOM     28  C   UNL     1       6.715   3.069  12.231  0.00  0.00    +0.000 C 
BRANCH  28  29
ATOM     29  N   UNL     1       5.655   2.964  11.225  0.00  0.00    +0.000 NA
ATOM     30  H   UNL     1       5.631   2.011  10.858  0.00  0.00    +0.000 HD
BRANCH  29  31
ATOM     31  C   UNL     1       4.347   3.306  11.779  0.00  0.00    +0.000 C 
BRANCH  31  32
ATOM     32  C   UNL     1       3.283   3.231  10.686  0.00  0.00    +0.000 C 
BRANCH  32  33
ATOM     33  C   UNL     1       3.399   4.363   9.670  0.00  0.00    +0.000 C 
BRANCH  33  34
ATOM     34  O   UNL     1       2.200   4.438   8.907  0.00  0.00    +0.000 OA
ATOM     35  H   UNL     1       1.559   4.949   9.429  0.00  0.00    +0.000 HD
ENDBRANCH  33  34
ENDBRANCH  32  33
ENDBRANCH  31  32
ENDBRANCH  29  31
ENDBRANCH  28  29
ENDBRANCH  25  28
ENDBRANCH  24  25
ENDBRANCH  23  24
ENDBRANCH   8  23
TORSDOF 14
ENDMDL
MODEL 5
REMARK VINA RESULT:      -7.7      3.582      8.600
REMARK  Name = 
REMARK  17 active torsions:
REMARK  status: ('A' for Active; 'I' for Inactive)
REMARK    1  A    between atoms: C_1  and  C_2
REMARK    2  A    between atoms: C_2  and  O_3
REMARK    3  A    between atoms: O_3  and  C_4
REMARK    4  A    between atoms: C_4  and  C_6
REMARK    5  A    between atoms: C_7  and  C_8
REMARK    6  A    between atoms: N_9  and  C_10
REMARK    7  A    between atoms: C_13  and  C_14
REMARK    8  A    between atoms: C_20  and  O_21
REMARK    9  A    between atoms: O_21  and  C_22
REMARK   10  A    between atoms: C_22  and  C_23
REMARK   11  A    between atoms: C_23  and  O_24
REMARK   12  A    between atoms: C_23  and  C_25
REMARK   13  A    between atoms: C_25  and  N_26
REMARK   14  A    between atoms: N_26  and  C_27
REMARK   15  A    between atoms: C_27  and  C_28
REMARK   16  A    between atoms: C_28  and  C_29
REMARK   17  A    between atoms: C_29  and  O_30
REMARK                            x       y       z     vdW  Elec       q    Type
REMARK                         _______ _______ _______ _____ _____    ______ ____
ROOT
ATOM      1  C   UNL     1       2.778   5.047  19.844  0.00  0.00    +0.000 A 
ATOM      2  C   UNL     1       3.669   4.469  18.938  0.00  0.00    +0.000 A 
ATOM      3  C   UNL     1       4.261   3.094  19.001  0.00  0.00    +0.000 C 
ATOM      4  N   UNL     1       4.026   5.435  17.984  0.00  0.00    +0.000 N 
ATOM      5  C   UNL     1       3.302   6.605  18.254  0.00  0.00    +0.000 A 
ATOM      6  C   UNL     1       3.194   7.827  17.557  0.00  0.00    +0.000 A 
ATOM      7  C   UNL     1       2.378   8.845  18.062  0.00  0.00    +0.000 A 
ATOM      8  C   UNL     1       1.645   8.662  19.221  0.00  0.00    +0.000 A 
ATOM      9  C   UNL     1       1.726   7.439  19.890  0.00  0.00    +0.000 A 
ATOM     10  C   UNL     1       2.553   6.392  19.414  0.00  0.00    +0.000 A 
ENDROOT
BRANCH   4  11
ATOM     11  C   UNL     1       4.973   5.283  16.913  0.00  0.00    +0.000 A 
ATOM     12  C   UNL     1       6.253   5.842  16.987  0.00  0.00    +0.000 A 
ATOM     13  C   UNL     1       7.148   5.725  15.919  0.00  0.00    +0.000 A 
ATOM     14  C   UNL     1       6.794   5.020  14.766  0.00  0.00    +0.000 A 
ATOM     15  C   UNL     1       7.745   4.894  13.614  0.00  0.00    +0.000 C 
ATOM     16  C   UNL     1       5.532   4.423  14.704  0.00  0.00    +0.000 A 
ATOM     17  C   UNL     1       4.623   4.569  15.758  0.00  0.00    +0.000 A 
ENDBRANCH   4  11
BRANCH   1  18
ATOM     18  C   UNL     1       2.149   4.383  20.991  0.00  0.00    +0.000 C 
ATOM     19  O   UNL     1       2.687   4.242  22.082  0.00  0.00    +0.000 OA
BRANCH  18  20
ATOM     20  O   UNL     1       0.919   3.883  20.677  0.00  0.00    +0.000 OA
BRANCH  20  22
ATOM     21  C   UNL     1       0.650   2.408  18.775  0.00  0.00    +0.000 C 
ATOM     22  C   UNL     1       0.856   2.512  20.272  0.00  0.00    +0.000 C 
ENDBRANCH  20  22
ENDBRANCH  18  20
ENDBRANCH   1  18
BRANCH   8  23
ATOM     23  O   UNL     1       0.794   9.564  19.793  0.00  0.00    +0.000 OA
BRANCH  23  24
ATOM     24  C   UNL     1       0.156  10.496  18.910  0.00  0.00    +0.000 C 
BRANCH  24  25
ATOM     25  C   UNL     1       0.637  11.915  19.246  0.00  0.00    +0.000 C 
BRANCH  25  26
ATOM     26  O   UNL     1       0.796  12.668  18.037  0.00  0.00    +0.000 OA
ATOM     27  H   UNL     1       0.729  13.609  18.295  0.00  0.00    +0.000 HD
ENDBRANCH  25  26
BRANCH  25  28
ATOM     28  C   UNL     1      -0.323  12.671  20.187  0.00  0.00    +0.000 C 
BRANCH  28  29
ATOM     29  N   UNL     1      -1.525  11.882  20.469  0.00  0.00    +0.000 NA
ATOM     30  H   UNL     1      -1.294  10.888  20.425  0.00  0.00    +0.000 HD
BRANCH  29  31
ATOM     31  C   UNL     1      -2.082  12.196  21.783  0.00  0.00    +0.000 C 
BRANCH  31  32
ATOM     32  C   UNL     1      -1.068  11.856  22.873  0.00  0.00    +0.000 C 
BRANCH  32  33
ATOM     33  C   UNL     1      -0.799  10.359  22.984  0.00  0.00    +0.000 C 
BRANCH  33  34
ATOM     34  O   UNL     1       0.567  10.100  22.677  0.00  0.00    +0.000 OA
ATOM     35  H   UNL     1       0.582   9.392  22.010  0.00  0.00    +0.000 HD
ENDBRANCH  33  34
ENDBRANCH  32  33
ENDBRANCH  31  32
ENDBRANCH  29  31
ENDBRANCH  28  29
ENDBRANCH  25  28
ENDBRANCH  24  25
ENDBRANCH  23  24
ENDBRANCH   8  23
TORSDOF 14
ENDMDL
MODEL 6
REMARK VINA RESULT:      -7.6      3.658      7.720
REMARK  Name = 
REMARK  17 active torsions:
REMARK  status: ('A' for Active; 'I' for Inactive)
REMARK    1  A    between atoms: C_1  and  C_2
REMARK    2  A    between atoms: C_2  and  O_3
REMARK    3  A    between atoms: O_3  and  C_4
REMARK    4  A    between atoms: C_4  and  C_6
REMARK    5  A    between atoms: C_7  and  C_8
REMARK    6  A    between atoms: N_9  and  C_10
REMARK    7  A    between atoms: C_13  and  C_14
REMARK    8  A    between atoms: C_20  and  O_21
REMARK    9  A    between atoms: O_21  and  C_22
REMARK   10  A    between atoms: C_22  and  C_23
REMARK   11  A    between atoms: C_23  and  O_24
REMARK   12  A    between atoms: C_23  and  C_25
REMARK   13  A    between atoms: C_25  and  N_26
REMARK   14  A    between atoms: N_26  and  C_27
REMARK   15  A    between atoms: C_27  and  C_28
REMARK   16  A    between atoms: C_28  and  C_29
REMARK   17  A    between atoms: C_29  and  O_30
REMARK                            x       y       z     vdW  Elec       q    Type
REMARK                         _______ _______ _______ _____ _____    ______ ____
ROOT
ATOM      1  C   UNL     1       2.771   4.708  20.173  0.00  0.00    +0.000 A 
ATOM      2  C   UNL     1       3.672   4.215  19.228  0.00  0.00    +0.000 A 
ATOM      3  C   UNL     1       4.328   2.868  19.216  0.00  0.00    +0.000 C 
ATOM      4  N   UNL     1       3.969   5.241  18.317  0.00  0.00    +0.000 N 
ATOM      5  C   UNL     1       3.197   6.361  18.653  0.00  0.00    +0.000 A 
ATOM      6  C   UNL     1       3.021   7.609  18.017  0.00  0.00    +0.000 A 
ATOM      7  C   UNL     1       2.167   8.562  18.582  0.00  0.00    +0.000 A 
ATOM      8  C   UNL     1       1.462   8.291  19.741  0.00  0.00    +0.000 A 
ATOM      9  C   UNL     1       1.610   7.042  20.349  0.00  0.00    +0.000 A 
ATOM     10  C   UNL     1       2.477   6.059  19.812  0.00  0.00    +0.000 A 
ENDROOT
BRANCH   4  11
ATOM     11  C   UNL     1       4.904   5.184  17.227  0.00  0.00    +0.000 A 
ATOM     12  C   UNL     1       6.144   5.829  17.296  0.00  0.00    +0.000 A 
ATOM     13  C   UNL     1       7.026   5.803  16.210  0.00  0.00    +0.000 A 
ATOM     14  C   UNL     1       6.700   5.108  15.044  0.00  0.00    +0.000 A 
ATOM     15  C   UNL     1       7.636   5.080  13.873  0.00  0.00    +0.000 C 
ATOM     16  C   UNL     1       5.481   4.427  14.985  0.00  0.00    +0.000 A 
ATOM     17  C   UNL     1       4.584   4.480  16.058  0.00  0.00    +0.000 A 
ENDBRANCH   4  11
BRANCH   1  18
ATOM     18  C   UNL     1       2.191   3.960  21.295  0.00  0.00    +0.000 C 
ATOM     19  O   UNL     1       2.749   3.801  22.374  0.00  0.00    +0.000 OA
BRANCH  18  20
ATOM     20  O   UNL     1       0.986   3.409  20.972  0.00  0.00    +0.000 OA
BRANCH  20  22
ATOM     21  C   UNL     1       0.538   2.445  18.795  0.00  0.00    +0.000 C 
ATOM     22  C   UNL     1       1.007   2.195  20.214  0.00  0.00    +0.000 C 
ENDBRANCH  20  22
ENDBRANCH  18  20
ENDBRANCH   1  18
BRANCH   8  23
ATOM     23  O   UNL     1       0.579   9.124  20.367  0.00  0.00    +0.000 OA
BRANCH  23  24
ATOM     24  C   UNL     1       1.140  10.215  21.108  0.00  0.00    +0.000 C 
BRANCH  24  25
ATOM     25  C   UNL     1       0.265  11.461  20.905  0.00  0.00    +0.000 C 
BRANCH  25  26
ATOM     26  O   UNL     1       1.040  12.497  20.286  0.00  0.00    +0.000 OA
ATOM     27  H   UNL     1       1.927  12.448  20.694  0.00  0.00    +0.000 HD
ENDBRANCH  25  26
BRANCH  25  28
ATOM     28  C   UNL     1      -0.985  11.188  20.045  0.00  0.00    +0.000 C 
BRANCH  28  29
ATOM     29  N   UNL     1      -0.701  11.362  18.619  0.00  0.00    +0.000 NA
ATOM     30  H   UNL     1       0.308  11.456  18.484  0.00  0.00    +0.000 HD
BRANCH  29  31
ATOM     31  C   UNL     1      -1.195  10.238  17.826  0.00  0.00    +0.000 C 
BRANCH  31  32
ATOM     32  C   UNL     1      -2.604  10.538  17.322  0.00  0.00    +0.000 C 
BRANCH  32  33
ATOM     33  C   UNL     1      -2.754  10.319  15.819  0.00  0.00    +0.000 C 
BRANCH  33  34
ATOM     34  O   UNL     1      -3.250  11.508  15.215  0.00  0.00    +0.000 OA
ATOM     35  H   UNL     1      -2.971  11.496  14.284  0.00  0.00    +0.000 HD
ENDBRANCH  33  34
ENDBRANCH  32  33
ENDBRANCH  31  32
ENDBRANCH  29  31
ENDBRANCH  28  29
ENDBRANCH  25  28
ENDBRANCH  24  25
ENDBRANCH  23  24
ENDBRANCH   8  23
TORSDOF 14
ENDMDL
MODEL 7
REMARK VINA RESULT:      -7.6      0.994      1.554
REMARK  Name = 
REMARK  17 active torsions:
REMARK  status: ('A' for Active; 'I' for Inactive)
REMARK    1  A    between atoms: C_1  and  C_2
REMARK    2  A    between atoms: C_2  and  O_3
REMARK    3  A    between atoms: O_3  and  C_4
REMARK    4  A    between atoms: C_4  and  C_6
REMARK    5  A    between atoms: C_7  and  C_8
REMARK    6  A    between atoms: N_9  and  C_10
REMARK    7  A    between atoms: C_13  and  C_14
REMARK    8  A    between atoms: C_20  and  O_21
REMARK    9  A    between atoms: O_21  and  C_22
REMARK   10  A    between atoms: C_22  and  C_23
REMARK   11  A    between atoms: C_23  and  O_24
REMARK   12  A    between atoms: C_23  and  C_25
REMARK   13  A    between atoms: C_25  and  N_26
REMARK   14  A    between atoms: N_26  and  C_27
REMARK   15  A    between atoms: C_27  and  C_28
REMARK   16  A    between atoms: C_28  and  C_29
REMARK   17  A    between atoms: C_29  and  O_30
REMARK                            x       y       z     vdW  Elec       q    Type
REMARK                         _______ _______ _______ _____ _____    ______ ____
ROOT
ATOM      1  C   UNL     1       3.015   4.124  19.035  0.00  0.00    +0.000 A 
ATOM      2  C   UNL     1       2.209   5.140  19.553  0.00  0.00    +0.000 A 
ATOM      3  C   UNL     1       1.033   4.986  20.469  0.00  0.00    +0.000 C 
ATOM      4  N   UNL     1       2.608   6.360  18.986  0.00  0.00    +0.000 N 
ATOM      5  C   UNL     1       3.714   6.117  18.160  0.00  0.00    +0.000 A 
ATOM      6  C   UNL     1       4.566   6.988  17.447  0.00  0.00    +0.000 A 
ATOM      7  C   UNL     1       5.619   6.464  16.690  0.00  0.00    +0.000 A 
ATOM      8  C   UNL     1       5.864   5.102  16.655  0.00  0.00    +0.000 A 
ATOM      9  C   UNL     1       5.042   4.245  17.391  0.00  0.00    +0.000 A 
ATOM     10  C   UNL     1       3.958   4.741  18.155  0.00  0.00    +0.000 A 
ENDROOT
BRANCH   4  11
ATOM     11  C   UNL     1       2.001   7.647  19.189  0.00  0.00    +0.000 A 
ATOM     12  C   UNL     1       1.764   8.518  18.121  0.00  0.00    +0.000 A 
ATOM     13  C   UNL     1       1.214   9.786  18.339  0.00  0.00    +0.000 A 
ATOM     14  C   UNL     1       0.860  10.197  19.626  0.00  0.00    +0.000 A 
ATOM     15  C   UNL     1       0.275  11.556  19.870  0.00  0.00    +0.000 C 
ATOM     16  C   UNL     1       1.055   9.315  20.691  0.00  0.00    +0.000 A 
ATOM     17  C   UNL     1       1.637   8.060  20.479  0.00  0.00    +0.000 A 
ENDBRANCH   4  11
BRANCH   1  18
ATOM     18  C   UNL     1       2.943   2.698  19.373  0.00  0.00    +0.000 C 
ATOM     19  O   UNL     1       2.244   1.887  18.778  0.00  0.00    +0.000 OA
BRANCH  18  20
ATOM     20  O   UNL     1       3.696   2.396  20.470  0.00  0.00    +0.000 OA
BRANCH  20  22
ATOM     21  C   UNL     1       5.379   0.970  21.471  0.00  0.00    +0.000 C 
ATOM     22  C   UNL     1       4.948   1.741  20.240  0.00  0.00    +0.000 C 
ENDBRANCH  20  22
ENDBRANCH  18  20
ENDBRANCH   1  18
BRANCH   8  23
ATOM     23  O   UNL     1       6.874   4.477  15.982  0.00  0.00    +0.000 OA
BRANCH  23  24
ATOM     24  C   UNL     1       6.511   3.763  14.794  0.00  0.00    +0.000 C 
BRANCH  24  25
ATOM     25  C   UNL     1       6.744   4.667  13.574  0.00  0.00    +0.000 C 
BRANCH  25  26
ATOM     26  O   UNL     1       7.946   5.426  13.760  0.00  0.00    +0.000 OA
ATOM     27  H   UNL     1       8.082   5.921  12.928  0.00  0.00    +0.000 HD
ENDBRANCH  25  26
BRANCH  25  28
ATOM     28  C   UNL     1       6.845   3.882  12.251  0.00  0.00    +0.000 C 
BRANCH  28  29
ATOM     29  N   UNL     1       5.779   2.883  12.141  0.00  0.00    +0.000 NA
ATOM     30  H   UNL     1       5.766   2.308  12.985  0.00  0.00    +0.000 HD
BRANCH  29  31
ATOM     31  C   UNL     1       4.470   3.507  11.956  0.00  0.00    +0.000 C 
BRANCH  31  32
ATOM     32  C   UNL     1       3.901   3.126  10.591  0.00  0.00    +0.000 C 
BRANCH  32  33
ATOM     33  C   UNL     1       2.994   4.205  10.006  0.00  0.00    +0.000 C 
BRANCH  33  34
ATOM     34  O   UNL     1       3.123   4.213   8.589  0.00  0.00    +0.000 OA
ATOM     35  H   UNL     1       4.066   4.094   8.385  0.00  0.00    +0.000 HD
ENDBRANCH  33  34
ENDBRANCH  32  33
ENDBRANCH  31  32
ENDBRANCH  29  31
ENDBRANCH  28  29
ENDBRANCH  25  28
ENDBRANCH  24  25
ENDBRANCH  23  24
ENDBRANCH   8  23
TORSDOF 14
ENDMDL
MODEL 8
REMARK VINA RESULT:      -7.6      3.674      8.687
REMARK  Name = 
REMARK  17 active torsions:
REMARK  status: ('A' for Active; 'I' for Inactive)
REMARK    1  A    between atoms: C_1  and  C_2
REMARK    2  A    between atoms: C_2  and  O_3
REMARK    3  A    between atoms: O_3  and  C_4
REMARK    4  A    between atoms: C_4  and  C_6
REMARK    5  A    between atoms: C_7  and  C_8
REMARK    6  A    between atoms: N_9  and  C_10
REMARK    7  A    between atoms: C_13  and  C_14
REMARK    8  A    between atoms: C_20  and  O_21
REMARK    9  A    between atoms: O_21  and  C_22
REMARK   10  A    between atoms: C_22  and  C_23
REMARK   11  A    between atoms: C_23  and  O_24
REMARK   12  A    between atoms: C_23  and  C_25
REMARK   13  A    between atoms: C_25  and  N_26
REMARK   14  A    between atoms: N_26  and  C_27
REMARK   15  A    between atoms: C_27  and  C_28
REMARK   16  A    between atoms: C_28  and  C_29
REMARK   17  A    between atoms: C_29  and  O_30
REMARK                            x       y       z     vdW  Elec       q    Type
REMARK                         _______ _______ _______ _____ _____    ______ ____
ROOT
ATOM      1  C   UNL     1       2.853   4.480  20.173  0.00  0.00    +0.000 A 
ATOM      2  C   UNL     1       3.709   4.017  19.172  0.00  0.00    +0.000 A 
ATOM      3  C   UNL     1       4.363   2.672  19.089  0.00  0.00    +0.000 C 
ATOM      4  N   UNL     1       3.962   5.069  18.278  0.00  0.00    +0.000 N 
ATOM      5  C   UNL     1       3.207   6.178  18.683  0.00  0.00    +0.000 A 
ATOM      6  C   UNL     1       3.001   7.444  18.093  0.00  0.00    +0.000 A 
ATOM      7  C   UNL     1       2.175   8.379  18.725  0.00  0.00    +0.000 A 
ATOM      8  C   UNL     1       1.525   8.073  19.908  0.00  0.00    +0.000 A 
ATOM      9  C   UNL     1       1.702   6.807  20.472  0.00  0.00    +0.000 A 
ATOM     10  C   UNL     1       2.543   5.842  19.866  0.00  0.00    +0.000 A 
ENDROOT
BRANCH   4  11
ATOM     11  C   UNL     1       4.845   5.046  17.144  0.00  0.00    +0.000 A 
ATOM     12  C   UNL     1       4.489   4.399  15.957  0.00  0.00    +0.000 A 
ATOM     13  C   UNL     1       5.376   4.346  14.876  0.00  0.00    +0.000 A 
ATOM     14  C   UNL     1       6.626   4.965  14.950  0.00  0.00    +0.000 A 
ATOM     15  C   UNL     1       7.585   4.908  13.799  0.00  0.00    +0.000 C 
ATOM     16  C   UNL     1       6.970   5.648  16.118  0.00  0.00    +0.000 A 
ATOM     17  C   UNL     1       6.097   5.673  17.212  0.00  0.00    +0.000 A 
ENDBRANCH   4  11
BRANCH   1  18
ATOM     18  C   UNL     1       2.327   3.700  21.299  0.00  0.00    +0.000 C 
ATOM     19  O   UNL     1       2.630   3.894  22.469  0.00  0.00    +0.000 OA
BRANCH  18  20
ATOM     20  O   UNL     1       1.510   2.690  20.880  0.00  0.00    +0.000 OA
BRANCH  20  22
ATOM     21  C   UNL     1       0.669   2.168  18.669  0.00  0.00    +0.000 C 
ATOM     22  C   UNL     1       0.509   3.020  19.912  0.00  0.00    +0.000 C 
ENDBRANCH  20  22
ENDBRANCH  18  20
ENDBRANCH   1  18
BRANCH   8  23
ATOM     23  O   UNL     1       0.674   8.886  20.600  0.00  0.00    +0.000 OA
BRANCH  23  24
ATOM     24  C   UNL     1       0.955   9.078  21.991  0.00  0.00    +0.000 C 
BRANCH  24  25
ATOM     25  C   UNL     1      -0.278   9.690  22.673  0.00  0.00    +0.000 C 
BRANCH  25  26
ATOM     26  O   UNL     1      -0.143   9.585  24.096  0.00  0.00    +0.000 OA
ATOM     27  H   UNL     1      -0.895  10.081  24.475  0.00  0.00    +0.000 HD
ENDBRANCH  25  26
BRANCH  25  28
ATOM     28  C   UNL     1      -0.505  11.168  22.297  0.00  0.00    +0.000 C 
BRANCH  28  29
ATOM     29  N   UNL     1      -0.928  11.304  20.901  0.00  0.00    +0.000 NA
ATOM     30  H   UNL     1      -1.614  10.579  20.684  0.00  0.00    +0.000 HD
BRANCH  29  31
ATOM     31  C   UNL     1      -1.507  12.619  20.636  0.00  0.00    +0.000 C 
BRANCH  31  32
ATOM     32  C   UNL     1      -2.913  12.696  21.225  0.00  0.00    +0.000 C 
BRANCH  32  33
ATOM     33  C   UNL     1      -4.000  12.759  20.156  0.00  0.00    +0.000 C 
BRANCH  33  34
ATOM     34  O   UNL     1      -3.473  12.292  18.919  0.00  0.00    +0.000 OA
ATOM     35  H   UNL     1      -3.852  12.849  18.217  0.00  0.00    +0.000 HD
ENDBRANCH  33  34
ENDBRANCH  32  33
ENDBRANCH  31  32
ENDBRANCH  29  31
ENDBRANCH  28  29
ENDBRANCH  25  28
ENDBRANCH  24  25
ENDBRANCH  23  24
ENDBRANCH   8  23
TORSDOF 14
ENDMDL
MODEL 9
REMARK VINA RESULT:      -7.6      3.668      8.183
REMARK  Name = 
REMARK  17 active torsions:
REMARK  status: ('A' for Active; 'I' for Inactive)
REMARK    1  A    between atoms: C_1  and  C_2
REMARK    2  A    between atoms: C_2  and  O_3
REMARK    3  A    between atoms: O_3  and  C_4
REMARK    4  A    between atoms: C_4  and  C_6
REMARK    5  A    between atoms: C_7  and  C_8
REMARK    6  A    between atoms: N_9  and  C_10
REMARK    7  A    between atoms: C_13  and  C_14
REMARK    8  A    between atoms: C_20  and  O_21
REMARK    9  A    between atoms: O_21  and  C_22
REMARK   10  A    between atoms: C_22  and  C_23
REMARK   11  A    between atoms: C_23  and  O_24
REMARK   12  A    between atoms: C_23  and  C_25
REMARK   13  A    between atoms: C_25  and  N_26
REMARK   14  A    between atoms: N_26  and  C_27
REMARK   15  A    between atoms: C_27  and  C_28
REMARK   16  A    between atoms: C_28  and  C_29
REMARK   17  A    between atoms: C_29  and  O_30
REMARK                            x       y       z     vdW  Elec       q    Type
REMARK                         _______ _______ _______ _____ _____    ______ ____
ROOT
ATOM      1  C   UNL     1       2.830   4.336  20.265  0.00  0.00    +0.000 A 
ATOM      2  C   UNL     1       3.709   3.893  19.276  0.00  0.00    +0.000 A 
ATOM      3  C   UNL     1       4.363   2.548  19.180  0.00  0.00    +0.000 C 
ATOM      4  N   UNL     1       3.987   4.964  18.412  0.00  0.00    +0.000 N 
ATOM      5  C   UNL     1       3.224   6.066  18.823  0.00  0.00    +0.000 A 
ATOM      6  C   UNL     1       3.035   7.344  18.256  0.00  0.00    +0.000 A 
ATOM      7  C   UNL     1       2.196   8.267  18.888  0.00  0.00    +0.000 A 
ATOM      8  C   UNL     1       1.516   7.937  20.047  0.00  0.00    +0.000 A 
ATOM      9  C   UNL     1       1.676   6.658  20.587  0.00  0.00    +0.000 A 
ATOM     10  C   UNL     1       2.530   5.705  19.981  0.00  0.00    +0.000 A 
ENDROOT
BRANCH   4  11
ATOM     11  C   UNL     1       4.897   4.963  17.300  0.00  0.00    +0.000 A 
ATOM     12  C   UNL     1       6.140   5.600  17.375  0.00  0.00    +0.000 A 
ATOM     13  C   UNL     1       6.998   5.631  16.270  0.00  0.00    +0.000 A 
ATOM     14  C   UNL     1       6.643   4.998  15.076  0.00  0.00    +0.000 A 
ATOM     15  C   UNL     1       7.553   5.030  13.884  0.00  0.00    +0.000 C 
ATOM     16  C   UNL     1       5.421   4.324  15.009  0.00  0.00    +0.000 A 
ATOM     17  C   UNL     1       4.548   4.323  16.103  0.00  0.00    +0.000 A 
ENDBRANCH   4  11
BRANCH   1  18
ATOM     18  C   UNL     1       2.275   3.532  21.360  0.00  0.00    +0.000 C 
ATOM     19  O   UNL     1       2.577   3.677  22.538  0.00  0.00    +0.000 OA
BRANCH  18  20
ATOM     20  O   UNL     1       1.432   2.562  20.903  0.00  0.00    +0.000 OA
BRANCH  20  22
ATOM     21  C   UNL     1       0.662   2.127  18.647  0.00  0.00    +0.000 C 
ATOM     22  C   UNL     1       0.476   2.946  19.909  0.00  0.00    +0.000 C 
ENDBRANCH  20  22
ENDBRANCH  18  20
ENDBRANCH   1  18
BRANCH   8  23
ATOM     23  O   UNL     1       0.650   8.737  20.735  0.00  0.00    +0.000 OA
BRANCH  23  24
ATOM     24  C   UNL     1       0.404  10.039  20.189  0.00  0.00    +0.000 C 
BRANCH  24  25
ATOM     25  C   UNL     1      -0.094  10.966  21.308  0.00  0.00    +0.000 C 
BRANCH  25  26
ATOM     26  O   UNL     1       0.424  10.521  22.569  0.00  0.00    +0.000 OA
ATOM     27  H   UNL     1       0.388  11.296  23.163  0.00  0.00    +0.000 HD
ENDBRANCH  25  26
BRANCH  25  28
ATOM     28  C   UNL     1       0.306  12.440  21.093  0.00  0.00    +0.000 C 
BRANCH  28  29
ATOM     29  N   UNL     1       1.760  12.590  20.996  0.00  0.00    +0.000 NA
ATOM     30  H   UNL     1       2.132  11.872  20.372  0.00  0.00    +0.000 HD
BRANCH  29  31
ATOM     31  C   UNL     1       2.136  13.911  20.499  0.00  0.00    +0.000 C 
BRANCH  31  32
ATOM     32  C   UNL     1       2.942  13.771  19.210  0.00  0.00    +0.000 C 
BRANCH  32  33
ATOM     33  C   UNL     1       2.118  13.210  18.055  0.00  0.00    +0.000 C 
BRANCH  33  34
ATOM     34  O   UNL     1       2.371  11.815  17.928  0.00  0.00    +0.000 OA
ATOM     35  H   UNL     1       2.289  11.593  16.985  0.00  0.00    +0.000 HD
ENDBRANCH  33  34
ENDBRANCH  32  33
ENDBRANCH  31  32
ENDBRANCH  29  31
ENDBRANCH  28  29
ENDBRANCH  25  28
ENDBRANCH  24  25
ENDBRANCH  23  24
ENDBRANCH   8  23
TORSDOF 14
ENDMDL
