MODEL 1
REMARK VINA RESULT:      -8.4      0.000      0.000
REMARK  Name = 
REMARK  11 active torsions:
REMARK  status: ('A' for Active; 'I' for Inactive)
REMARK    1  A    between atoms: C_1  and  C_2
REMARK    2  A    between atoms: C_2  and  O_3
REMARK    3  A    between atoms: O_3  and  C_4
REMARK    4  A    between atoms: C_4  and  C_6
REMARK    5  A    between atoms: C_6  and  S_7
REMARK    6  A    between atoms: S_7  and  C_8
REMARK    7  A    between atoms: C_12  and  O_13
REMARK    8  A    between atoms: O_13  and  C_14
REMARK    9  A    between atoms: C_15  and  O_16
REMARK   10  A    between atoms: O_16  and  C_17
REMARK   11  A    between atoms: C_22  and  C_23
REMARK                            x       y       z     vdW  Elec       q    Type
REMARK                         _______ _______ _______ _____ _____    ______ ____
ROOT
ATOM      1  C   UNL     1       4.077   4.230  18.998  0.00  0.00    +0.000 A 
ATOM      2  N   UNL     1       3.338   4.946  19.795  0.00  0.00    +0.000 NA
ATOM      3  C   UNL     1       2.924   6.243  19.388  0.00  0.00    +0.000 A 
ATOM      4  C   UNL     1       2.128   6.981  20.261  0.00  0.00    +0.000 A 
ATOM      5  C   UNL     1       1.622   8.274  19.970  0.00  0.00    +0.000 A 
ATOM      6  C   UNL     1       1.954   8.831  18.729  0.00  0.00    +0.000 A 
ATOM      7  C   UNL     1       2.797   8.079  17.848  0.00  0.00    +0.000 A 
ATOM      8  C   UNL     1       3.284   6.809  18.163  0.00  0.00    +0.000 A 
ATOM      9  C   UNL     1       4.136   5.994  17.302  0.00  0.00    +0.000 A 
ATOM     10  N   UNL     1       4.692   6.193  16.123  0.00  0.00    +0.000 NA
ATOM     11  C   UNL     1       5.330   4.980  15.863  0.00  0.00    +0.000 A 
ATOM     12  N   UNL     1       5.208   4.079  16.840  0.00  0.00    +0.000 NA
ATOM     13  N   UNL     1       4.466   4.737  17.748  0.00  0.00    +0.000 N 
ENDROOT
BRANCH  11  14
ATOM     14  C   UNL     1       6.022   4.675  14.607  0.00  0.00    +0.000 A 
ATOM     15  C   UNL     1       7.225   5.309  14.298  0.00  0.00    +0.000 A 
ATOM     16  C   UNL     1       7.854   5.103  13.069  0.00  0.00    +0.000 A 
ATOM     17  C   UNL     1       7.282   4.245  12.133  0.00  0.00    +0.000 A 
ATOM     18  C   UNL     1       6.093   3.586  12.432  0.00  0.00    +0.000 A 
ATOM     19  C   UNL     1       5.460   3.791  13.664  0.00  0.00    +0.000 A 
ENDBRANCH  11  14
BRANCH   5  20
ATOM     20  O   UNL     1       0.897   8.650  21.055  0.00  0.00    +0.000 OA
ATOM     21  C   UNL     1       1.352   9.211  22.259  0.00  0.00    +0.000 C 
ENDBRANCH   5  20
BRANCH   6  22
ATOM     22  O   UNL     1       1.650  10.000  18.100  0.00  0.00    +0.000 OA
ATOM     23  C   UNL     1       0.557  10.823  18.416  0.00  0.00    +0.000 C 
ENDBRANCH   6  22
BRANCH   1  24
ATOM     24  S   UNL     1       4.645   2.658  19.570  0.00  0.00    +0.000 S 
BRANCH  24  25
ATOM     25  C   UNL     1       3.652   1.514  18.538  0.00  0.00    +0.000 C 
BRANCH  25  26
ATOM     26  C   UNL     1       2.231   2.023  18.373  0.00  0.00    +0.000 C 
ATOM     27  O   UNL     1       1.837   2.734  17.462  0.00  0.00    +0.000 OA
BRANCH  26  28
ATOM     28  O   UNL     1       1.473   1.666  19.456  0.00  0.00    +0.000 OA
BRANCH  28  30
ATOM     29  C   UNL     1       1.312   2.852  21.540  0.00  0.00    +0.000 C 
ATOM     30  C   UNL     1       0.848   2.789  20.096  0.00  0.00    +0.000 C 
ENDBRANCH  28  30
ENDBRANCH  26  28
ENDBRANCH  25  26
ENDBRANCH  24  25
ENDBRANCH   1  24
TORSDOF 8
ENDMDL
MODEL 2
REMARK VINA RESULT:      -7.8      0.826      1.271
REMARK  Name = 
REMARK  11 active torsions:
REMARK  status: ('A' for Active; 'I' for Inactive)
REMARK    1  A    between atoms: C_1  and  C_2
REMARK    2  A    between atoms: C_2  and  O_3
REMARK    3  A    between atoms: O_3  and  C_4
REMARK    4  A    between atoms: C_4  and  C_6
REMARK    5  A    between atoms: C_6  and  S_7
REMARK    6  A    between atoms: S_7  and  C_8
REMARK    7  A    between atoms: C_12  and  O_13
REMARK    8  A    between atoms: O_13  and  C_14
REMARK    9  A    between atoms: C_15  and  O_16
REMARK   10  A    between atoms: O_16  and  C_17
REMARK   11  A    between atoms: C_22  and  C_23
REMARK                            x       y       z     vdW  Elec       q    Type
REMARK                         _______ _______ _______ _____ _____    ______ ____
ROOT
ATOM      1  C   UNL     1       3.961   4.383  19.019  0.00  0.00    +0.000 A 
ATOM      2  N   UNL     1       3.234   5.136  19.792  0.00  0.00    +0.000 NA
ATOM      3  C   UNL     1       2.868   6.438  19.357  0.00  0.00    +0.000 A 
ATOM      4  C   UNL     1       2.083   7.216  20.204  0.00  0.00    +0.000 A 
ATOM      5  C   UNL     1       1.623   8.519  19.883  0.00  0.00    +0.000 A 
ATOM      6  C   UNL     1       1.991   9.043  18.638  0.00  0.00    +0.000 A 
ATOM      7  C   UNL     1       2.821   8.249  17.782  0.00  0.00    +0.000 A 
ATOM      8  C   UNL     1       3.263   6.970  18.127  0.00  0.00    +0.000 A 
ATOM      9  C   UNL     1       4.101   6.114  17.293  0.00  0.00    +0.000 A 
ATOM     10  N   UNL     1       4.680   6.274  16.119  0.00  0.00    +0.000 NA
ATOM     11  C   UNL     1       5.283   5.036  15.890  0.00  0.00    +0.000 A 
ATOM     12  N   UNL     1       5.118   4.157  16.881  0.00  0.00    +0.000 NA
ATOM     13  N   UNL     1       4.384   4.855  17.766  0.00  0.00    +0.000 N 
ENDROOT
BRANCH  11  14
ATOM     14  C   UNL     1       5.983   4.687  14.651  0.00  0.00    +0.000 A 
ATOM     15  C   UNL     1       7.215   5.271  14.353  0.00  0.00    +0.000 A 
ATOM     16  C   UNL     1       7.855   5.023  13.138  0.00  0.00    +0.000 A 
ATOM     17  C   UNL     1       7.266   4.174  12.205  0.00  0.00    +0.000 A 
ATOM     18  C   UNL     1       6.048   3.565  12.492  0.00  0.00    +0.000 A 
ATOM     19  C   UNL     1       5.403   3.812  13.711  0.00  0.00    +0.000 A 
ENDBRANCH  11  14
BRANCH   5  20
ATOM     20  O   UNL     1       0.894   8.937  20.950  0.00  0.00    +0.000 OA
ATOM     21  C   UNL     1       1.318   9.138  22.274  0.00  0.00    +0.000 C 
ENDBRANCH   5  20
BRANCH   6  22
ATOM     22  O   UNL     1       1.733  10.210  17.984  0.00  0.00    +0.000 OA
ATOM     23  C   UNL     1       1.234  11.376  18.584  0.00  0.00    +0.000 C 
ENDBRANCH   6  22
BRANCH   1  24
ATOM     24  S   UNL     1       4.470   2.804  19.627  0.00  0.00    +0.000 S 
BRANCH  24  25
ATOM     25  C   UNL     1       3.439   2.645  21.133  0.00  0.00    +0.000 C 
BRANCH  25  26
ATOM     26  C   UNL     1       1.978   2.436  20.775  0.00  0.00    +0.000 C 
ATOM     27  O   UNL     1       1.033   2.637  21.522  0.00  0.00    +0.000 OA
BRANCH  26  28
ATOM     28  O   UNL     1       1.872   1.879  19.529  0.00  0.00    +0.000 OA
BRANCH  28  30
ATOM     29  C   UNL     1       1.065   3.446  17.894  0.00  0.00    +0.000 C 
ATOM     30  C   UNL     1       0.696   2.305  18.824  0.00  0.00    +0.000 C 
ENDBRANCH  28  30
ENDBRANCH  26  28
ENDBRANCH  25  26
ENDBRANCH  24  25
ENDBRANCH   1  24
TORSDOF 8
ENDMDL
MODEL 3
REMARK VINA RESULT:      -7.7      0.894      1.571
REMARK  Name = 
REMARK  11 active torsions:
REMARK  status: ('A' for Active; 'I' for Inactive)
REMARK    1  A    between atoms: C_1  and  C_2
REMARK    2  A    between atoms: C_2  and  O_3
REMARK    3  A    between atoms: O_3  and  C_4
REMARK    4  A    between atoms: C_4  and  C_6
REMARK    5  A    between atoms: C_6  and  S_7
REMARK    6  A    between atoms: S_7  and  C_8
REMARK    7  A    between atoms: C_12  and  O_13
REMARK    8  A    between atoms: O_13  and  C_14
REMARK    9  A    between atoms: C_15  and  O_16
REMARK   10  A    between atoms: O_16  and  C_17
REMARK   11  A    between atoms: C_22  and  C_23
REMARK                            x       y       z     vdW  Elec       q    Type
REMARK                         _______ _______ _______ _____ _____    ______ ____
ROOT
ATOM      1  C   UNL     1       4.027   4.539  19.103  0.00  0.00    +0.000 A 
ATOM      2  N   UNL     1       3.288   5.273  19.883  0.00  0.00    +0.000 NA
ATOM      3  C   UNL     1       2.840   6.544  19.430  0.00  0.00    +0.000 A 
ATOM      4  C   UNL     1       2.043   7.301  20.285  0.00  0.00    +0.000 A 
ATOM      5  C   UNL     1       1.506   8.570  19.951  0.00  0.00    +0.000 A 
ATOM      6  C   UNL     1       1.806   9.081  18.682  0.00  0.00    +0.000 A 
ATOM      7  C   UNL     1       2.649   8.311  17.817  0.00  0.00    +0.000 A 
ATOM      8  C   UNL     1       3.167   7.065  18.176  0.00  0.00    +0.000 A 
ATOM      9  C   UNL     1       4.021   6.232  17.335  0.00  0.00    +0.000 A 
ATOM     10  N   UNL     1       4.553   6.393  16.139  0.00  0.00    +0.000 NA
ATOM     11  C   UNL     1       5.212   5.183  15.918  0.00  0.00    +0.000 A 
ATOM     12  N   UNL     1       5.125   4.321  16.933  0.00  0.00    +0.000 NA
ATOM     13  N   UNL     1       4.385   5.001  17.826  0.00  0.00    +0.000 N 
ENDROOT
BRANCH  11  14
ATOM     14  C   UNL     1       5.889   4.840  14.664  0.00  0.00    +0.000 A 
ATOM     15  C   UNL     1       5.315   3.919  13.787  0.00  0.00    +0.000 A 
ATOM     16  C   UNL     1       5.984   3.509  12.633  0.00  0.00    +0.000 A 
ATOM     17  C   UNL     1       7.243   4.028  12.340  0.00  0.00    +0.000 A 
ATOM     18  C   UNL     1       7.822   4.964  13.192  0.00  0.00    +0.000 A 
ATOM     19  C   UNL     1       7.153   5.378  14.350  0.00  0.00    +0.000 A 
ENDBRANCH  11  14
BRANCH   5  20
ATOM     20  O   UNL     1       0.791   8.976  21.032  0.00  0.00    +0.000 OA
ATOM     21  C   UNL     1       1.248   9.239  22.333  0.00  0.00    +0.000 C 
ENDBRANCH   5  20
BRANCH   6  22
ATOM     22  O   UNL     1       1.466  10.217  18.010  0.00  0.00    +0.000 OA
ATOM     23  C   UNL     1       2.009  11.488  18.253  0.00  0.00    +0.000 C 
ENDBRANCH   6  22
BRANCH   1  24
ATOM     24  S   UNL     1       4.637   3.004  19.730  0.00  0.00    +0.000 S 
BRANCH  24  25
ATOM     25  C   UNL     1       3.120   1.976  19.715  0.00  0.00    +0.000 C 
BRANCH  25  26
ATOM     26  C   UNL     1       2.105   2.486  20.723  0.00  0.00    +0.000 C 
ATOM     27  O   UNL     1       2.259   2.500  21.934  0.00  0.00    +0.000 OA
BRANCH  26  28
ATOM     28  O   UNL     1       0.939   2.825  20.090  0.00  0.00    +0.000 OA
BRANCH  28  30
ATOM     29  C   UNL     1       0.929   3.718  17.858  0.00  0.00    +0.000 C 
ATOM     30  C   UNL     1       0.928   2.456  18.702  0.00  0.00    +0.000 C 
ENDBRANCH  28  30
ENDBRANCH  26  28
ENDBRANCH  25  26
ENDBRANCH  24  25
ENDBRANCH   1  24
TORSDOF 8
ENDMDL
MODEL 4
REMARK VINA RESULT:      -7.7      1.674      2.771
REMARK  Name = 
REMARK  11 active torsions:
REMARK  status: ('A' for Active; 'I' for Inactive)
REMARK    1  A    between atoms: C_1  and  C_2
REMARK    2  A    between atoms: C_2  and  O_3
REMARK    3  A    between atoms: O_3  and  C_4
REMARK    4  A    between atoms: C_4  and  C_6
REMARK    5  A    between atoms: C_6  and  S_7
REMARK    6  A    between atoms: S_7  and  C_8
REMARK    7  A    between atoms: C_12  and  O_13
REMARK    8  A    between atoms: O_13  and  C_14
REMARK    9  A    between atoms: C_15  and  O_16
REMARK   10  A    between atoms: O_16  and  C_17
REMARK   11  A    between atoms: C_22  and  C_23
REMARK                            x       y       z     vdW  Elec       q    Type
REMARK                         _______ _______ _______ _____ _____    ______ ____
ROOT
ATOM      1  C   UNL     1       1.997   5.855  20.428  0.00  0.00    +0.000 A 
ATOM      2  N   UNL     1       1.222   6.745  20.974  0.00  0.00    +0.000 NA
ATOM      3  C   UNL     1       1.154   8.051  20.417  0.00  0.00    +0.000 A 
ATOM      4  C   UNL     1       0.309   8.979  21.020  0.00  0.00    +0.000 A 
ATOM      5  C   UNL     1       0.125  10.305  20.552  0.00  0.00    +0.000 A 
ATOM      6  C   UNL     1       0.846  10.691  19.415  0.00  0.00    +0.000 A 
ATOM      7  C   UNL     1       1.735   9.742  18.816  0.00  0.00    +0.000 A 
ATOM      8  C   UNL     1       1.899   8.443  19.302  0.00  0.00    +0.000 A 
ATOM      9  C   UNL     1       2.781   7.432  18.728  0.00  0.00    +0.000 A 
ATOM     10  N   UNL     1       3.638   7.437  17.725  0.00  0.00    +0.000 NA
ATOM     11  C   UNL     1       4.098   6.120  17.693  0.00  0.00    +0.000 A 
ATOM     12  N   UNL     1       3.582   5.339  18.644  0.00  0.00    +0.000 NA
ATOM     13  N   UNL     1       2.766   6.183  19.299  0.00  0.00    +0.000 N 
ENDROOT
BRANCH  11  14
ATOM     14  C   UNL     1       5.014   5.601  16.674  0.00  0.00    +0.000 A 
ATOM     15  C   UNL     1       4.634   4.524  15.872  0.00  0.00    +0.000 A 
ATOM     16  C   UNL     1       5.523   3.956  14.960  0.00  0.00    +0.000 A 
ATOM     17  C   UNL     1       6.811   4.470  14.834  0.00  0.00    +0.000 A 
ATOM     18  C   UNL     1       7.202   5.558  15.609  0.00  0.00    +0.000 A 
ATOM     19  C   UNL     1       6.312   6.131  16.526  0.00  0.00    +0.000 A 
ENDBRANCH  11  14
BRANCH   5  20
ATOM     20  O   UNL     1      -0.769  10.884  21.395  0.00  0.00    +0.000 OA
ATOM     21  C   UNL     1      -0.871  10.749  22.789  0.00  0.00    +0.000 C 
ENDBRANCH   5  20
BRANCH   6  22
ATOM     22  O   UNL     1       0.915  11.834  18.677  0.00  0.00    +0.000 OA
ATOM     23  C   UNL     1       2.099  12.522  18.368  0.00  0.00    +0.000 C 
ENDBRANCH   6  22
BRANCH   1  24
ATOM     24  S   UNL     1       2.122   4.269  21.197  0.00  0.00    +0.000 S 
BRANCH  24  25
ATOM     25  C   UNL     1       0.810   3.336  20.321  0.00  0.00    +0.000 C 
BRANCH  25  26
ATOM     26  C   UNL     1       1.309   2.815  18.985  0.00  0.00    +0.000 C 
ATOM     27  O   UNL     1       1.024   3.284  17.894  0.00  0.00    +0.000 OA
BRANCH  26  28
ATOM     28  O   UNL     1       2.036   1.670  19.166  0.00  0.00    +0.000 OA
BRANCH  28  30
ATOM     29  C   UNL     1       4.393   1.976  19.526  0.00  0.00    +0.000 C 
ATOM     30  C   UNL     1       3.308   1.703  18.500  0.00  0.00    +0.000 C 
ENDBRANCH  28  30
ENDBRANCH  26  28
ENDBRANCH  25  26
ENDBRANCH  24  25
ENDBRANCH   1  24
TORSDOF 8
ENDMDL
MODEL 5
REMARK VINA RESULT:      -7.4      1.525      2.480
REMARK  Name = 
REMARK  11 active torsions:
REMARK  status: ('A' for Active; 'I' for Inactive)
REMARK    1  A    between atoms: C_1  and  C_2
REMARK    2  A    between atoms: C_2  and  O_3
REMARK    3  A    between atoms: O_3  and  C_4
REMARK    4  A    between atoms: C_4  and  C_6
REMARK    5  A    between atoms: C_6  and  S_7
REMARK    6  A    between atoms: S_7  and  C_8
REMARK    7  A    between atoms: C_12  and  O_13
REMARK    8  A    between atoms: O_13  and  C_14
REMARK    9  A    between atoms: C_15  and  O_16
REMARK   10  A    between atoms: O_16  and  C_17
REMARK   11  A    between atoms: C_22  and  C_23
REMARK                            x       y       z     vdW  Elec       q    Type
REMARK                         _______ _______ _______ _____ _____    ______ ____
ROOT
ATOM      1  C   UNL     1       2.224   5.570  20.417  0.00  0.00    +0.000 A 
ATOM      2  N   UNL     1       1.443   6.454  20.967  0.00  0.00    +0.000 NA
ATOM      3  C   UNL     1       1.322   7.742  20.379  0.00  0.00    +0.000 A 
ATOM      4  C   UNL     1       0.471   8.663  20.986  0.00  0.00    +0.000 A 
ATOM      5  C   UNL     1       0.236   9.970  20.490  0.00  0.00    +0.000 A 
ATOM      6  C   UNL     1       0.908  10.345  19.320  0.00  0.00    +0.000 A 
ATOM      7  C   UNL     1       1.802   9.404  18.715  0.00  0.00    +0.000 A 
ATOM      8  C   UNL     1       2.018   8.124  19.229  0.00  0.00    +0.000 A 
ATOM      9  C   UNL     1       2.907   7.121  18.652  0.00  0.00    +0.000 A 
ATOM     10  N   UNL     1       3.729   7.122  17.620  0.00  0.00    +0.000 NA
ATOM     11  C   UNL     1       4.224   5.817  17.607  0.00  0.00    +0.000 A 
ATOM     12  N   UNL     1       3.762   5.048  18.595  0.00  0.00    +0.000 NA
ATOM     13  N   UNL     1       2.945   5.887  19.255  0.00  0.00    +0.000 N 
ENDROOT
BRANCH  11  14
ATOM     14  C   UNL     1       5.120   5.295  16.571  0.00  0.00    +0.000 A 
ATOM     15  C   UNL     1       6.464   5.668  16.553  0.00  0.00    +0.000 A 
ATOM     16  C   UNL     1       7.313   5.257  15.525  0.00  0.00    +0.000 A 
ATOM     17  C   UNL     1       6.821   4.454  14.499  0.00  0.00    +0.000 A 
ATOM     18  C   UNL     1       5.488   4.053  14.511  0.00  0.00    +0.000 A 
ATOM     19  C   UNL     1       4.634   4.464  15.541  0.00  0.00    +0.000 A 
ENDBRANCH  11  14
BRANCH   5  20
ATOM     20  O   UNL     1      -0.645  10.548  21.347  0.00  0.00    +0.000 OA
ATOM     21  C   UNL     1      -0.720  10.418  22.743  0.00  0.00    +0.000 C 
ENDBRANCH   5  20
BRANCH   6  22
ATOM     22  O   UNL     1       0.921  11.470  18.551  0.00  0.00    +0.000 OA
ATOM     23  C   UNL     1       0.366  12.705  18.920  0.00  0.00    +0.000 C 
ENDBRANCH   6  22
BRANCH   1  24
ATOM     24  S   UNL     1       2.417   4.009  21.222  0.00  0.00    +0.000 S 
BRANCH  24  25
ATOM     25  C   UNL     1       0.864   3.160  20.748  0.00  0.00    +0.000 C 
BRANCH  25  26
ATOM     26  C   UNL     1       0.983   2.531  19.372  0.00  0.00    +0.000 C 
ATOM     27  O   UNL     1       0.099   2.501  18.530  0.00  0.00    +0.000 OA
BRANCH  26  28
ATOM     28  O   UNL     1       2.190   1.896  19.246  0.00  0.00    +0.000 OA
BRANCH  28  30
ATOM     29  C   UNL     1       4.181   1.558  17.942  0.00  0.00    +0.000 C 
ATOM     30  C   UNL     1       2.715   1.952  17.911  0.00  0.00    +0.000 C 
ENDBRANCH  28  30
ENDBRANCH  26  28
ENDBRANCH  25  26
ENDBRANCH  24  25
ENDBRANCH   1  24
TORSDOF 8
ENDMDL
MODEL 6
REMARK VINA RESULT:      -7.2      3.947      8.556
REMARK  Name = 
REMARK  11 active torsions:
REMARK  status: ('A' for Active; 'I' for Inactive)
REMARK    1  A    between atoms: C_1  and  C_2
REMARK    2  A    between atoms: C_2  and  O_3
REMARK    3  A    between atoms: O_3  and  C_4
REMARK    4  A    between atoms: C_4  and  C_6
REMARK    5  A    between atoms: C_6  and  S_7
REMARK    6  A    between atoms: S_7  and  C_8
REMARK    7  A    between atoms: C_12  and  O_13
REMARK    8  A    between atoms: O_13  and  C_14
REMARK    9  A    between atoms: C_15  and  O_16
REMARK   10  A    between atoms: O_16  and  C_17
REMARK   11  A    between atoms: C_22  and  C_23
REMARK                            x       y       z     vdW  Elec       q    Type
REMARK                         _______ _______ _______ _____ _____    ______ ____
ROOT
ATOM      1  C   UNL     1       6.847   5.857  17.122  0.00  0.00    +0.000 A 
ATOM      2  N   UNL     1       7.357   5.892  15.925  0.00  0.00    +0.000 NA
ATOM      3  C   UNL     1       6.796   5.080  14.902  0.00  0.00    +0.000 A 
ATOM      4  C   UNL     1       7.359   5.146  13.630  0.00  0.00    +0.000 A 
ATOM      5  C   UNL     1       6.882   4.414  12.513  0.00  0.00    +0.000 A 
ATOM      6  C   UNL     1       5.778   3.577  12.717  0.00  0.00    +0.000 A 
ATOM      7  C   UNL     1       5.220   3.492  14.034  0.00  0.00    +0.000 A 
ATOM      8  C   UNL     1       5.715   4.222  15.116  0.00  0.00    +0.000 A 
ATOM      9  C   UNL     1       5.182   4.183  16.475  0.00  0.00    +0.000 A 
ATOM     10  N   UNL     1       4.218   3.494  17.054  0.00  0.00    +0.000 NA
ATOM     11  C   UNL     1       4.209   3.993  18.357  0.00  0.00    +0.000 A 
ATOM     12  N   UNL     1       5.137   4.922  18.592  0.00  0.00    +0.000 NA
ATOM     13  N   UNL     1       5.754   5.022  17.401  0.00  0.00    +0.000 N 
ENDROOT
BRANCH  11  14
ATOM     14  C   UNL     1       3.233   3.595  19.375  0.00  0.00    +0.000 A 
ATOM     15  C   UNL     1       1.908   4.024  19.282  0.00  0.00    +0.000 A 
ATOM     16  C   UNL     1       0.985   3.734  20.287  0.00  0.00    +0.000 A 
ATOM     17  C   UNL     1       1.379   2.998  21.401  0.00  0.00    +0.000 A 
ATOM     18  C   UNL     1       2.691   2.542  21.501  0.00  0.00    +0.000 A 
ATOM     19  C   UNL     1       3.620   2.832  20.495  0.00  0.00    +0.000 A 
ENDBRANCH  11  14
BRANCH   5  20
ATOM     20  O   UNL     1       7.683   4.750  11.469  0.00  0.00    +0.000 OA
ATOM     21  C   UNL     1       8.004   6.030  10.990  0.00  0.00    +0.000 C 
ENDBRANCH   5  20
BRANCH   6  22
ATOM     22  O   UNL     1       5.042   2.761  11.912  0.00  0.00    +0.000 OA
ATOM     23  C   UNL     1       3.938   3.167  11.147  0.00  0.00    +0.000 C 
ENDBRANCH   6  22
BRANCH   1  24
ATOM     24  S   UNL     1       7.623   6.813  18.390  0.00  0.00    +0.000 S 
BRANCH  24  25
ATOM     25  C   UNL     1       7.765   8.449  17.576  0.00  0.00    +0.000 C 
BRANCH  25  26
ATOM     26  C   UNL     1       8.599   9.403  18.412  0.00  0.00    +0.000 C 
ATOM     27  O   UNL     1       9.167   9.117  19.455  0.00  0.00    +0.000 OA
BRANCH  26  28
ATOM     28  O   UNL     1       8.532  10.668  17.893  0.00  0.00    +0.000 OA
BRANCH  28  30
ATOM     29  C   UNL     1      10.596  11.876  17.653  0.00  0.00    +0.000 C 
ATOM     30  C   UNL     1       9.409  11.592  18.556  0.00  0.00    +0.000 C 
ENDBRANCH  28  30
ENDBRANCH  26  28
ENDBRANCH  25  26
ENDBRANCH  24  25
ENDBRANCH   1  24
TORSDOF 8
ENDMDL
MODEL 7
REMARK VINA RESULT:      -6.9      2.719      7.454
REMARK  Name = 
REMARK  11 active torsions:
REMARK  status: ('A' for Active; 'I' for Inactive)
REMARK    1  A    between atoms: C_1  and  C_2
REMARK    2  A    between atoms: C_2  and  O_3
REMARK    3  A    between atoms: O_3  and  C_4
REMARK    4  A    between atoms: C_4  and  C_6
REMARK    5  A    between atoms: C_6  and  S_7
REMARK    6  A    between atoms: S_7  and  C_8
REMARK    7  A    between atoms: C_12  and  O_13
REMARK    8  A    between atoms: O_13  and  C_14
REMARK    9  A    between atoms: C_15  and  O_16
REMARK   10  A    between atoms: O_16  and  C_17
REMARK   11  A    between atoms: C_22  and  C_23
REMARK                            x       y       z     vdW  Elec       q    Type
REMARK                         _______ _______ _______ _____ _____    ______ ____
ROOT
ATOM      1  C   UNL     1       4.401   6.211  17.495  0.00  0.00    +0.000 A 
ATOM      2  N   UNL     1       4.847   5.035  17.830  0.00  0.00    +0.000 NA
ATOM      3  C   UNL     1       4.291   4.371  18.956  0.00  0.00    +0.000 A 
ATOM      4  C   UNL     1       4.784   3.110  19.284  0.00  0.00    +0.000 A 
ATOM      5  C   UNL     1       4.301   2.326  20.362  0.00  0.00    +0.000 A 
ATOM      6  C   UNL     1       3.267   2.866  21.137  0.00  0.00    +0.000 A 
ATOM      7  C   UNL     1       2.783   4.174  20.813  0.00  0.00    +0.000 A 
ATOM      8  C   UNL     1       3.281   4.925  19.747  0.00  0.00    +0.000 A 
ATOM      9  C   UNL     1       2.821   6.256  19.364  0.00  0.00    +0.000 A 
ATOM     10  N   UNL     1       1.935   7.093  19.871  0.00  0.00    +0.000 NA
ATOM     11  C   UNL     1       1.958   8.162  18.974  0.00  0.00    +0.000 A 
ATOM     12  N   UNL     1       2.833   8.019  17.976  0.00  0.00    +0.000 NA
ATOM     13  N   UNL     1       3.381   6.820  18.243  0.00  0.00    +0.000 N 
ENDROOT
BRANCH  11  14
ATOM     14  C   UNL     1       1.063   9.319  19.062  0.00  0.00    +0.000 A 
ATOM     15  C   UNL     1       0.932  10.015  20.264  0.00  0.00    +0.000 A 
ATOM     16  C   UNL     1       0.018  11.061  20.396  0.00  0.00    +0.000 A 
ATOM     17  C   UNL     1      -0.775  11.429  19.312  0.00  0.00    +0.000 A 
ATOM     18  C   UNL     1      -0.644  10.761  18.098  0.00  0.00    +0.000 A 
ATOM     19  C   UNL     1       0.272   9.710  17.963  0.00  0.00    +0.000 A 
ENDBRANCH  11  14
BRANCH   5  20
ATOM     20  O   UNL     1       5.024   1.177  20.349  0.00  0.00    +0.000 OA
ATOM     21  C   UNL     1       5.650   0.526  21.425  0.00  0.00    +0.000 C 
ENDBRANCH   5  20
BRANCH   6  22
ATOM     22  O   UNL     1       2.548   2.420  22.205  0.00  0.00    +0.000 OA
ATOM     23  C   UNL     1       1.150   2.294  22.238  0.00  0.00    +0.000 C 
ENDBRANCH   6  22
BRANCH   1  24
ATOM     24  S   UNL     1       5.174   7.045  16.143  0.00  0.00    +0.000 S 
BRANCH  24  25
ATOM     25  C   UNL     1       5.283   5.701  14.901  0.00  0.00    +0.000 C 
BRANCH  25  26
ATOM     26  C   UNL     1       6.624   4.993  14.979  0.00  0.00    +0.000 C 
ATOM     27  O   UNL     1       7.632   5.446  15.499  0.00  0.00    +0.000 OA
BRANCH  26  28
ATOM     28  O   UNL     1       6.578   3.817  14.280  0.00  0.00    +0.000 OA
BRANCH  28  30
ATOM     29  C   UNL     1       5.609   3.113  12.196  0.00  0.00    +0.000 C 
ATOM     30  C   UNL     1       6.641   4.008  12.859  0.00  0.00    +0.000 C 
ENDBRANCH  28  30
ENDBRANCH  26  28
ENDBRANCH  25  26
ENDBRANCH  24  25
ENDBRANCH   1  24
TORSDOF 8
ENDMDL
MODEL 8
REMARK VINA RESULT:      -6.9      2.925      7.418
REMARK  Name = 
REMARK  11 active torsions:
REMARK  status: ('A' for Active; 'I' for Inactive)
REMARK    1  A    between atoms: C_1  and  C_2
REMARK    2  A    between atoms: C_2  and  O_3
REMARK    3  A    between atoms: O_3  and  C_4
REMARK    4  A    between atoms: C_4  and  C_6
REMARK    5  A    between atoms: C_6  and  S_7
REMARK    6  A    between atoms: S_7  and  C_8
REMARK    7  A    between atoms: C_12  and  O_13
REMARK    8  A    between atoms: O_13  and  C_14
REMARK    9  A    between atoms: C_15  and  O_16
REMARK   10  A    between atoms: O_16  and  C_17
REMARK   11  A    between atoms: C_22  and  C_23
REMARK                            x       y       z     vdW  Elec       q    Type
REMARK                         _______ _______ _______ _____ _____    ______ ____
ROOT
ATOM      1  C   UNL     1       4.205   6.249  17.373  0.00  0.00    +0.000 A 
ATOM      2  N   UNL     1       4.642   5.074  17.724  0.00  0.00    +0.000 NA
ATOM      3  C   UNL     1       4.120   4.454  18.891  0.00  0.00    +0.000 A 
ATOM      4  C   UNL     1       4.603   3.194  19.236  0.00  0.00    +0.000 A 
ATOM      5  C   UNL     1       4.150   2.451  20.356  0.00  0.00    +0.000 A 
ATOM      6  C   UNL     1       3.159   3.034  21.156  0.00  0.00    +0.000 A 
ATOM      7  C   UNL     1       2.687   4.342  20.813  0.00  0.00    +0.000 A 
ATOM      8  C   UNL     1       3.156   5.052  19.706  0.00  0.00    +0.000 A 
ATOM      9  C   UNL     1       2.706   6.381  19.303  0.00  0.00    +0.000 A 
ATOM     10  N   UNL     1       1.858   7.249  19.820  0.00  0.00    +0.000 NA
ATOM     11  C   UNL     1       1.864   8.291  18.892  0.00  0.00    +0.000 A 
ATOM     12  N   UNL     1       2.694   8.102  17.864  0.00  0.00    +0.000 NA
ATOM     13  N   UNL     1       3.229   6.901  18.144  0.00  0.00    +0.000 N 
ENDROOT
BRANCH  11  14
ATOM     14  C   UNL     1       0.996   9.468  18.982  0.00  0.00    +0.000 A 
ATOM     15  C   UNL     1       1.017  10.270  20.124  0.00  0.00    +0.000 A 
ATOM     16  C   UNL     1       0.135  11.341  20.269  0.00  0.00    +0.000 A 
ATOM     17  C   UNL     1      -0.781  11.627  19.260  0.00  0.00    +0.000 A 
ATOM     18  C   UNL     1      -0.803  10.852  18.104  0.00  0.00    +0.000 A 
ATOM     19  C   UNL     1       0.081   9.777  17.955  0.00  0.00    +0.000 A 
ENDBRANCH  11  14
BRANCH   5  20
ATOM     20  O   UNL     1       4.850   1.287  20.347  0.00  0.00    +0.000 OA
ATOM     21  C   UNL     1       5.588   0.705  21.389  0.00  0.00    +0.000 C 
ENDBRANCH   5  20
BRANCH   6  22
ATOM     22  O   UNL     1       2.477   2.635  22.265  0.00  0.00    +0.000 OA
ATOM     23  C   UNL     1       1.122   2.266  22.288  0.00  0.00    +0.000 C 
ENDBRANCH   6  22
BRANCH   1  24
ATOM     24  S   UNL     1       4.938   7.028  15.966  0.00  0.00    +0.000 S 
BRANCH  24  25
ATOM     25  C   UNL     1       6.006   5.685  15.322  0.00  0.00    +0.000 C 
BRANCH  25  26
ATOM     26  C   UNL     1       7.298   5.588  16.113  0.00  0.00    +0.000 C 
ATOM     27  O   UNL     1       7.809   4.551  16.506  0.00  0.00    +0.000 OA
BRANCH  26  28
ATOM     28  O   UNL     1       7.755   6.840  16.427  0.00  0.00    +0.000 OA
BRANCH  28  30
ATOM     29  C   UNL     1       8.205   8.523  18.084  0.00  0.00    +0.000 C 
ATOM     30  C   UNL     1       7.812   7.076  17.842  0.00  0.00    +0.000 C 
ENDBRANCH  28  30
ENDBRANCH  26  28
ENDBRANCH  25  26
ENDBRANCH  24  25
ENDBRANCH   1  24
TORSDOF 8
ENDMDL
MODEL 9
REMARK VINA RESULT:      -6.8      1.803      2.946
REMARK  Name = 
REMARK  11 active torsions:
REMARK  status: ('A' for Active; 'I' for Inactive)
REMARK    1  A    between atoms: C_1  and  C_2
REMARK    2  A    between atoms: C_2  and  O_3
REMARK    3  A    between atoms: O_3  and  C_4
REMARK    4  A    between atoms: C_4  and  C_6
REMARK    5  A    between atoms: C_6  and  S_7
REMARK    6  A    between atoms: S_7  and  C_8
REMARK    7  A    between atoms: C_12  and  O_13
REMARK    8  A    between atoms: O_13  and  C_14
REMARK    9  A    between atoms: C_15  and  O_16
REMARK   10  A    between atoms: O_16  and  C_17
REMARK   11  A    between atoms: C_22  and  C_23
REMARK                            x       y       z     vdW  Elec       q    Type
REMARK                         _______ _______ _______ _____ _____    ______ ____
ROOT
ATOM      1  C   UNL     1       2.001   6.473  20.348  0.00  0.00    +0.000 A 
ATOM      2  N   UNL     1       1.320   7.479  20.816  0.00  0.00    +0.000 NA
ATOM      3  C   UNL     1       1.327   8.715  20.115  0.00  0.00    +0.000 A 
ATOM      4  C   UNL     1       0.582   9.769  20.637  0.00  0.00    +0.000 A 
ATOM      5  C   UNL     1       0.478  11.045  20.027  0.00  0.00    +0.000 A 
ATOM      6  C   UNL     1       1.175  11.243  18.828  0.00  0.00    +0.000 A 
ATOM      7  C   UNL     1       1.962  10.164  18.310  0.00  0.00    +0.000 A 
ATOM      8  C   UNL     1       2.049   8.919  18.936  0.00  0.00    +0.000 A 
ATOM      9  C   UNL     1       2.825   7.782  18.451  0.00  0.00    +0.000 A 
ATOM     10  N   UNL     1       3.634   7.606  17.424  0.00  0.00    +0.000 NA
ATOM     11  C   UNL     1       3.991   6.261  17.528  0.00  0.00    +0.000 A 
ATOM     12  N   UNL     1       3.461   5.635  18.580  0.00  0.00    +0.000 NA
ATOM     13  N   UNL     1       2.741   6.610  19.163  0.00  0.00    +0.000 N 
ENDROOT
BRANCH  11  14
ATOM     14  C   UNL     1       4.819   5.559  16.543  0.00  0.00    +0.000 A 
ATOM     15  C   UNL     1       5.246   6.217  15.389  0.00  0.00    +0.000 A 
ATOM     16  C   UNL     1       5.957   5.543  14.396  0.00  0.00    +0.000 A 
ATOM     17  C   UNL     1       6.258   4.193  14.554  0.00  0.00    +0.000 A 
ATOM     18  C   UNL     1       5.860   3.524  15.708  0.00  0.00    +0.000 A 
ATOM     19  C   UNL     1       5.146   4.198  16.707  0.00  0.00    +0.000 A 
ENDBRANCH  11  14
BRANCH   5  20
ATOM     20  O   UNL     1      -0.331  11.785  20.828  0.00  0.00    +0.000 OA
ATOM     21  C   UNL     1      -1.026  11.381  21.980  0.00  0.00    +0.000 C 
ENDBRANCH   5  20
BRANCH   6  22
ATOM     22  O   UNL     1       1.298  12.287  17.961  0.00  0.00    +0.000 OA
ATOM     23  C   UNL     1       1.684  13.588  18.318  0.00  0.00    +0.000 C 
ENDBRANCH   6  22
BRANCH   1  24
ATOM     24  S   UNL     1       2.039   4.978  21.289  0.00  0.00    +0.000 S 
BRANCH  24  25
ATOM     25  C   UNL     1       1.053   3.855  20.229  0.00  0.00    +0.000 C 
BRANCH  25  26
ATOM     26  C   UNL     1       1.406   2.403  20.496  0.00  0.00    +0.000 C 
ATOM     27  O   UNL     1       1.754   1.948  21.574  0.00  0.00    +0.000 OA
BRANCH  26  28
ATOM     28  O   UNL     1       1.389   1.690  19.327  0.00  0.00    +0.000 OA
BRANCH  28  30
ATOM     29  C   UNL     1       3.574   1.459  18.350  0.00  0.00    +0.000 C 
ATOM     30  C   UNL     1       2.267   2.232  18.329  0.00  0.00    +0.000 C 
ENDBRANCH  28  30
ENDBRANCH  26  28
ENDBRANCH  25  26
ENDBRANCH  24  25
ENDBRANCH   1  24
TORSDOF 8
ENDMDL
