MODEL 1
REMARK VINA RESULT:      -7.9      0.000      0.000
REMARK  Name = 
REMARK  10 active torsions:
REMARK  status: ('A' for Active; 'I' for Inactive)
REMARK    1  A    between atoms: C_1  and  O_2
REMARK    2  A    between atoms: O_2  and  C_3
REMARK    3  A    between atoms: C_5  and  N_6
REMARK    4  A    between atoms: C_7  and  C_9
REMARK    5  A    between atoms: C_13  and  S_14
REMARK    6  A    between atoms: S_14  and  N_15
REMARK    7  A    between atoms: C_19  and  C_20
REMARK    8  A    between atoms: C_20  and  O_22
REMARK    9  A    between atoms: C_24  and  O_25
REMARK   10  A    between atoms: O_25  and  C_26
REMARK                            x       y       z     vdW  Elec       q    Type
REMARK                         _______ _______ _______ _____ _____    ______ ____
ROOT
ATOM      1  N   UNL     1       2.499   7.346  18.639  0.00  0.00    +0.000 N 
ATOM      2  C   UNL     1       2.019   8.573  18.205  0.00  0.00    +0.000 C 
ATOM      3  O   UNL     1       2.218   9.079  17.103  0.00  0.00    +0.000 OA
ATOM      4  H   UNL     1       2.074   6.928  19.469  0.00  0.00    +0.000 HD
ENDROOT
BRANCH   1   7
ATOM      5  C   UNL     1       5.639   6.250  16.871  0.00  0.00    +0.000 A 
ATOM      6  C   UNL     1       4.635   7.039  17.450  0.00  0.00    +0.000 A 
ATOM      7  C   UNL     1       3.421   6.518  17.921  0.00  0.00    +0.000 A 
ATOM      8  C   UNL     1       3.182   5.148  17.705  0.00  0.00    +0.000 A 
ATOM      9  C   UNL     1       4.146   4.366  17.035  0.00  0.00    +0.000 A 
ATOM     10  C   UNL     1       5.385   4.897  16.642  0.00  0.00    +0.000 A 
BRANCH   5  12
ATOM     11  C   UNL     1       7.552   7.504  17.533  0.00  0.00    +0.000 C 
ATOM     12  O   UNL     1       6.844   6.794  16.513  0.00  0.00    +0.000 OA
ENDBRANCH   5  12
BRANCH   8  13
ATOM     13  C   UNL     1       1.890   4.536  18.113  0.00  0.00    +0.000 C 
ATOM     14  O   UNL     1       1.095   4.083  17.305  0.00  0.00    +0.000 OA
BRANCH  13  15
ATOM     15  O   UNL     1       1.631   4.576  19.438  0.00  0.00    +0.000 OA
ATOM     16  H   UNL     1       1.777   5.430  19.883  0.00  0.00    +0.000 HD
ENDBRANCH  13  15
ENDBRANCH   8  13
BRANCH  10  17
ATOM     17  O   UNL     1       6.204   3.956  16.078  0.00  0.00    +0.000 OA
ATOM     18  C   UNL     1       6.259   3.858  14.660  0.00  0.00    +0.000 C 
ENDBRANCH  10  17
ENDBRANCH   1   7
BRANCH   2  19
ATOM     19  C   UNL     1       1.146   9.355  19.114  0.00  0.00    +0.000 A 
ATOM     20  C   UNL     1       1.127   8.951  20.460  0.00  0.00    +0.000 A 
ATOM     21  C   UNL     1       0.245   9.525  21.373  0.00  0.00    +0.000 A 
ATOM     22  C   UNL     1      -0.634  10.511  20.942  0.00  0.00    +0.000 A 
ATOM     23  C   UNL     1      -0.615  10.918  19.602  0.00  0.00    +0.000 A 
ATOM     24  C   UNL     1       0.261  10.340  18.670  0.00  0.00    +0.000 A 
BRANCH  23  25
ATOM     25  S   UNL     1      -1.771  12.160  19.087  0.00  0.00    +0.000 S 
ATOM     26  O   UNL     1      -3.012  11.525  18.729  0.00  0.00    +0.000 OA
ATOM     27  O   UNL     1      -1.703  13.279  19.995  0.00  0.00    +0.000 OA
BRANCH  25  28
ATOM     28  N   UNL     1      -1.068  12.669  17.655  0.00  0.00    +0.000 NA
ATOM     29  H   UNL     1      -1.082  13.686  17.594  0.00  0.00    +0.000 HD
ATOM     30  H   UNL     1      -0.142  12.256  17.543  0.00  0.00    +0.000 HD
ENDBRANCH  25  28
ENDBRANCH  23  25
ENDBRANCH   2  19
TORSDOF 8
ENDMDL
MODEL 2
REMARK VINA RESULT:      -7.9      2.076      2.538
REMARK  Name = 
REMARK  10 active torsions:
REMARK  status: ('A' for Active; 'I' for Inactive)
REMARK    1  A    between atoms: C_1  and  O_2
REMARK    2  A    between atoms: O_2  and  C_3
REMARK    3  A    between atoms: C_5  and  N_6
REMARK    4  A    between atoms: C_7  and  C_9
REMARK    5  A    between atoms: C_13  and  S_14
REMARK    6  A    between atoms: S_14  and  N_15
REMARK    7  A    between atoms: C_19  and  C_20
REMARK    8  A    between atoms: C_20  and  O_22
REMARK    9  A    between atoms: C_24  and  O_25
REMARK   10  A    between atoms: O_25  and  C_26
REMARK                            x       y       z     vdW  Elec       q    Type
REMARK                         _______ _______ _______ _____ _____    ______ ____
ROOT
ATOM      1  N   UNL     1       2.511   7.475  18.687  0.00  0.00    +0.000 N 
ATOM      2  C   UNL     1       1.987   8.658  18.185  0.00  0.00    +0.000 C 
ATOM      3  O   UNL     1       2.128   9.084  17.041  0.00  0.00    +0.000 OA
ATOM      4  H   UNL     1       2.130   7.113  19.563  0.00  0.00    +0.000 HD
ENDROOT
BRANCH   1   7
ATOM      5  C   UNL     1       5.622   6.288  16.929  0.00  0.00    +0.000 A 
ATOM      6  C   UNL     1       4.631   7.106  17.487  0.00  0.00    +0.000 A 
ATOM      7  C   UNL     1       3.419   6.612  17.992  0.00  0.00    +0.000 A 
ATOM      8  C   UNL     1       3.167   5.237  17.832  0.00  0.00    +0.000 A 
ATOM      9  C   UNL     1       4.118   4.422  17.183  0.00  0.00    +0.000 A 
ATOM     10  C   UNL     1       5.356   4.929  16.756  0.00  0.00    +0.000 A 
BRANCH   5  12
ATOM     11  C   UNL     1       7.596   7.470  17.545  0.00  0.00    +0.000 C 
ATOM     12  O   UNL     1       6.827   6.808  16.536  0.00  0.00    +0.000 OA
ENDBRANCH   5  12
BRANCH   8  13
ATOM     13  C   UNL     1       1.876   4.651  18.279  0.00  0.00    +0.000 C 
ATOM     14  O   UNL     1       1.537   4.631  19.452  0.00  0.00    +0.000 OA
BRANCH  13  15
ATOM     15  O   UNL     1       1.136   4.084  17.303  0.00  0.00    +0.000 OA
ATOM     16  H   UNL     1       1.200   3.116  17.216  0.00  0.00    +0.000 HD
ENDBRANCH  13  15
ENDBRANCH   8  13
BRANCH  10  17
ATOM     17  O   UNL     1       6.162   3.960  16.220  0.00  0.00    +0.000 OA
ATOM     18  C   UNL     1       6.315   3.902  14.807  0.00  0.00    +0.000 C 
ENDBRANCH  10  17
ENDBRANCH   1   7
BRANCH   2  19
ATOM     19  C   UNL     1       1.136   9.489  19.071  0.00  0.00    +0.000 A 
ATOM     20  C   UNL     1       0.654  10.691  18.523  0.00  0.00    +0.000 A 
ATOM     21  C   UNL     1      -0.041  11.611  19.304  0.00  0.00    +0.000 A 
ATOM     22  C   UNL     1      -0.257  11.338  20.649  0.00  0.00    +0.000 A 
ATOM     23  C   UNL     1       0.220  10.139  21.197  0.00  0.00    +0.000 A 
ATOM     24  C   UNL     1       0.931   9.209  20.423  0.00  0.00    +0.000 A 
BRANCH  23  25
ATOM     25  S   UNL     1      -0.054   9.840  22.923  0.00  0.00    +0.000 S 
ATOM     26  O   UNL     1       1.208   9.552  23.554  0.00  0.00    +0.000 OA
ATOM     27  O   UNL     1      -0.974  10.825  23.437  0.00  0.00    +0.000 OA
BRANCH  25  28
ATOM     28  N   UNL     1      -0.894   8.393  22.862  0.00  0.00    +0.000 NA
ATOM     29  H   UNL     1      -0.916   7.956  23.782  0.00  0.00    +0.000 HD
ATOM     30  H   UNL     1      -1.813   8.529  22.442  0.00  0.00    +0.000 HD
ENDBRANCH  25  28
ENDBRANCH  23  25
ENDBRANCH   2  19
TORSDOF 8
ENDMDL
MODEL 3
REMARK VINA RESULT:      -7.8      2.204      2.395
REMARK  Name = 
REMARK  10 active torsions:
REMARK  status: ('A' for Active; 'I' for Inactive)
REMARK    1  A    between atoms: C_1  and  O_2
REMARK    2  A    between atoms: O_2  and  C_3
REMARK    3  A    between atoms: C_5  and  N_6
REMARK    4  A    between atoms: C_7  and  C_9
REMARK    5  A    between atoms: C_13  and  S_14
REMARK    6  A    between atoms: S_14  and  N_15
REMARK    7  A    between atoms: C_19  and  C_20
REMARK    8  A    between atoms: C_20  and  O_22
REMARK    9  A    between atoms: C_24  and  O_25
REMARK   10  A    between atoms: O_25  and  C_26
REMARK                            x       y       z     vdW  Elec       q    Type
REMARK                         _______ _______ _______ _____ _____    ______ ____
ROOT
ATOM      1  N   UNL     1       2.510   7.313  18.550  0.00  0.00    +0.000 N 
ATOM      2  C   UNL     1       2.078   8.561  18.122  0.00  0.00    +0.000 C 
ATOM      3  O   UNL     1       2.338   9.085  17.042  0.00  0.00    +0.000 OA
ATOM      4  H   UNL     1       2.039   6.889  19.351  0.00  0.00    +0.000 HD
ENDROOT
BRANCH   1   7
ATOM      5  C   UNL     1       5.674   6.206  16.834  0.00  0.00    +0.000 A 
ATOM      6  C   UNL     1       4.660   6.999  17.389  0.00  0.00    +0.000 A 
ATOM      7  C   UNL     1       3.444   6.479  17.856  0.00  0.00    +0.000 A 
ATOM      8  C   UNL     1       3.213   5.105  17.658  0.00  0.00    +0.000 A 
ATOM      9  C   UNL     1       4.189   4.317  17.012  0.00  0.00    +0.000 A 
ATOM     10  C   UNL     1       5.430   4.849  16.624  0.00  0.00    +0.000 A 
BRANCH   5  12
ATOM     11  C   UNL     1       7.572   7.484  17.495  0.00  0.00    +0.000 C 
ATOM     12  O   UNL     1       6.881   6.751  16.480  0.00  0.00    +0.000 OA
ENDBRANCH   5  12
BRANCH   8  13
ATOM     13  C   UNL     1       1.921   4.493  18.062  0.00  0.00    +0.000 C 
ATOM     14  O   UNL     1       1.170   3.958  17.261  0.00  0.00    +0.000 OA
BRANCH  13  15
ATOM     15  O   UNL     1       1.605   4.629  19.368  0.00  0.00    +0.000 OA
ATOM     16  H   UNL     1       0.842   5.198  19.572  0.00  0.00    +0.000 HD
ENDBRANCH  13  15
ENDBRANCH   8  13
BRANCH  10  17
ATOM     17  O   UNL     1       6.260   3.903  16.084  0.00  0.00    +0.000 OA
ATOM     18  C   UNL     1       6.370   3.818  14.668  0.00  0.00    +0.000 C 
ENDBRANCH  10  17
ENDBRANCH   1   7
BRANCH   2  19
ATOM     19  C   UNL     1       1.183   9.344  19.008  0.00  0.00    +0.000 A 
ATOM     20  C   UNL     1       0.629  10.514  18.458  0.00  0.00    +0.000 A 
ATOM     21  C   UNL     1      -0.116  11.394  19.238  0.00  0.00    +0.000 A 
ATOM     22  C   UNL     1      -0.312  11.113  20.584  0.00  0.00    +0.000 A 
ATOM     23  C   UNL     1       0.236   9.947  21.135  0.00  0.00    +0.000 A 
ATOM     24  C   UNL     1       0.998   9.057  20.361  0.00  0.00    +0.000 A 
BRANCH  23  25
ATOM     25  S   UNL     1      -0.015   9.637  22.863  0.00  0.00    +0.000 S 
ATOM     26  O   UNL     1      -1.004   8.603  23.014  0.00  0.00    +0.000 OA
ATOM     27  O   UNL     1       1.264   9.594  23.528  0.00  0.00    +0.000 OA
BRANCH  25  28
ATOM     28  N   UNL     1      -0.747  11.067  23.335  0.00  0.00    +0.000 NA
ATOM     29  H   UNL     1      -0.651  11.200  24.341  0.00  0.00    +0.000 HD
ATOM     30  H   UNL     1      -0.404  11.847  22.776  0.00  0.00    +0.000 HD
ENDBRANCH  25  28
ENDBRANCH  23  25
ENDBRANCH   2  19
TORSDOF 8
ENDMDL
MODEL 4
REMARK VINA RESULT:      -7.7      0.864      1.096
REMARK  Name = 
REMARK  10 active torsions:
REMARK  status: ('A' for Active; 'I' for Inactive)
REMARK    1  A    between atoms: C_1  and  O_2
REMARK    2  A    between atoms: O_2  and  C_3
REMARK    3  A    between atoms: C_5  and  N_6
REMARK    4  A    between atoms: C_7  and  C_9
REMARK    5  A    between atoms: C_13  and  S_14
REMARK    6  A    between atoms: S_14  and  N_15
REMARK    7  A    between atoms: C_19  and  C_20
REMARK    8  A    between atoms: C_20  and  O_22
REMARK    9  A    between atoms: C_24  and  O_25
REMARK   10  A    between atoms: O_25  and  C_26
REMARK                            x       y       z     vdW  Elec       q    Type
REMARK                         _______ _______ _______ _____ _____    ______ ____
ROOT
ATOM      1  N   UNL     1       2.658   7.104  18.798  0.00  0.00    +0.000 N 
ATOM      2  C   UNL     1       2.099   8.321  18.435  0.00  0.00    +0.000 C 
ATOM      3  O   UNL     1       2.177   8.851  17.329  0.00  0.00    +0.000 OA
ATOM      4  H   UNL     1       2.327   6.659  19.655  0.00  0.00    +0.000 HD
ENDROOT
BRANCH   1   7
ATOM      5  C   UNL     1       5.714   6.091  16.844  0.00  0.00    +0.000 A 
ATOM      6  C   UNL     1       4.750   6.850  17.520  0.00  0.00    +0.000 A 
ATOM      7  C   UNL     1       3.536   6.320  17.981  0.00  0.00    +0.000 A 
ATOM      8  C   UNL     1       3.250   4.982  17.650  0.00  0.00    +0.000 A 
ATOM      9  C   UNL     1       4.172   4.239  16.884  0.00  0.00    +0.000 A 
ATOM     10  C   UNL     1       5.415   4.771  16.502  0.00  0.00    +0.000 A 
BRANCH   5  12
ATOM     11  C   UNL     1       7.566   7.442  17.488  0.00  0.00    +0.000 C 
ATOM     12  O   UNL     1       6.924   6.633  16.498  0.00  0.00    +0.000 OA
ENDBRANCH   5  12
BRANCH   8  13
ATOM     13  C   UNL     1       1.954   4.370  18.042  0.00  0.00    +0.000 C 
ATOM     14  O   UNL     1       1.131   3.997  17.221  0.00  0.00    +0.000 OA
BRANCH  13  15
ATOM     15  O   UNL     1       1.724   4.316  19.371  0.00  0.00    +0.000 OA
ATOM     16  H   UNL     1       2.042   5.071  19.897  0.00  0.00    +0.000 HD
ENDBRANCH  13  15
ENDBRANCH   8  13
BRANCH  10  17
ATOM     17  O   UNL     1       6.190   3.863  15.831  0.00  0.00    +0.000 OA
ATOM     18  C   UNL     1       6.218   3.906  14.410  0.00  0.00    +0.000 C 
ENDBRANCH  10  17
ENDBRANCH   1   7
BRANCH   2  19
ATOM     19  C   UNL     1       1.290   9.057  19.436  0.00  0.00    +0.000 A 
ATOM     20  C   UNL     1       1.269   8.521  20.735  0.00  0.00    +0.000 A 
ATOM     21  C   UNL     1       0.438   9.051  21.720  0.00  0.00    +0.000 A 
ATOM     22  C   UNL     1      -0.386  10.125  21.410  0.00  0.00    +0.000 A 
ATOM     23  C   UNL     1      -0.364  10.664  20.117  0.00  0.00    +0.000 A 
ATOM     24  C   UNL     1       0.460  10.132  19.113  0.00  0.00    +0.000 A 
BRANCH  23  25
ATOM     25  S   UNL     1      -1.450  12.018  19.755  0.00  0.00    +0.000 S 
ATOM     26  O   UNL     1      -0.661  13.174  19.419  0.00  0.00    +0.000 OA
ATOM     27  O   UNL     1      -2.534  11.550  18.926  0.00  0.00    +0.000 OA
BRANCH  25  28
ATOM     28  N   UNL     1      -2.102  12.312  21.269  0.00  0.00    +0.000 NA
ATOM     29  H   UNL     1      -1.662  13.128  21.692  0.00  0.00    +0.000 HD
ATOM     30  H   UNL     1      -3.119  12.365  21.217  0.00  0.00    +0.000 HD
ENDBRANCH  25  28
ENDBRANCH  23  25
ENDBRANCH   2  19
TORSDOF 8
ENDMDL
MODEL 5
REMARK VINA RESULT:      -7.3      1.048      1.349
REMARK  Name = 
REMARK  10 active torsions:
REMARK  status: ('A' for Active; 'I' for Inactive)
REMARK    1  A    between atoms: C_1  and  O_2
REMARK    2  A    between atoms: O_2  and  C_3
REMARK    3  A    between atoms: C_5  and  N_6
REMARK    4  A    between atoms: C_7  and  C_9
REMARK    5  A    between atoms: C_13  and  S_14
REMARK    6  A    between atoms: S_14  and  N_15
REMARK    7  A    between atoms: C_19  and  C_20
REMARK    8  A    between atoms: C_20  and  O_22
REMARK    9  A    between atoms: C_24  and  O_25
REMARK   10  A    between atoms: O_25  and  C_26
REMARK                            x       y       z     vdW  Elec       q    Type
REMARK                         _______ _______ _______ _____ _____    ______ ____
ROOT
ATOM      1  N   UNL     1       2.710   7.070  19.124  0.00  0.00    +0.000 N 
ATOM      2  C   UNL     1       2.009   8.229  18.824  0.00  0.00    +0.000 C 
ATOM      3  O   UNL     1       1.862   8.717  17.706  0.00  0.00    +0.000 OA
ATOM      4  H   UNL     1       2.560   6.639  20.038  0.00  0.00    +0.000 HD
ENDROOT
BRANCH   1   7
ATOM      5  C   UNL     1       5.577   6.088  16.889  0.00  0.00    +0.000 A 
ATOM      6  C   UNL     1       4.695   6.832  17.684  0.00  0.00    +0.000 A 
ATOM      7  C   UNL     1       3.496   6.314  18.195  0.00  0.00    +0.000 A 
ATOM      8  C   UNL     1       3.134   5.014  17.797  0.00  0.00    +0.000 A 
ATOM      9  C   UNL     1       3.969   4.293  16.917  0.00  0.00    +0.000 A 
ATOM     10  C   UNL     1       5.202   4.807  16.482  0.00  0.00    +0.000 A 
BRANCH   5  12
ATOM     11  C   UNL     1       7.509   7.350  17.476  0.00  0.00    +0.000 C 
ATOM     12  O   UNL     1       6.780   6.610  16.493  0.00  0.00    +0.000 OA
ENDBRANCH   5  12
BRANCH   8  13
ATOM     13  C   UNL     1       1.845   4.422  18.240  0.00  0.00    +0.000 C 
ATOM     14  O   UNL     1       1.545   4.313  19.419  0.00  0.00    +0.000 OA
BRANCH  13  15
ATOM     15  O   UNL     1       1.059   3.951  17.248  0.00  0.00    +0.000 OA
ATOM     16  H   UNL     1       0.127   4.234  17.263  0.00  0.00    +0.000 HD
ENDBRANCH  13  15
ENDBRANCH   8  13
BRANCH  10  17
ATOM     17  O   UNL     1       5.891   3.921  15.697  0.00  0.00    +0.000 OA
ATOM     18  C   UNL     1       5.898   4.118  14.289  0.00  0.00    +0.000 C 
ENDBRANCH  10  17
ENDBRANCH   1   7
BRANCH   2  19
ATOM     19  C   UNL     1       1.325   8.949  19.926  0.00  0.00    +0.000 A 
ATOM     20  C   UNL     1       0.888   8.163  21.007  0.00  0.00    +0.000 A 
ATOM     21  C   UNL     1       0.118   8.711  22.030  0.00  0.00    +0.000 A 
ATOM     22  C   UNL     1      -0.226  10.055  21.979  0.00  0.00    +0.000 A 
ATOM     23  C   UNL     1       0.210  10.841  20.905  0.00  0.00    +0.000 A 
ATOM     24  C   UNL     1       0.978  10.300  19.861  0.00  0.00    +0.000 A 
BRANCH  23  25
ATOM     25  S   UNL     1      -0.273  12.547  20.863  0.00  0.00    +0.000 S 
ATOM     26  O   UNL     1      -1.709  12.626  20.821  0.00  0.00    +0.000 OA
ATOM     27  O   UNL     1       0.519  13.289  21.813  0.00  0.00    +0.000 OA
BRANCH  25  28
ATOM     28  N   UNL     1       0.271  12.990  19.343  0.00  0.00    +0.000 NA
ATOM     29  H   UNL     1       0.810  12.233  18.924  0.00  0.00    +0.000 HD
ATOM     30  H   UNL     1      -0.503  13.320  18.767  0.00  0.00    +0.000 HD
ENDBRANCH  25  28
ENDBRANCH  23  25
ENDBRANCH   2  19
TORSDOF 8
ENDMDL
MODEL 6
REMARK VINA RESULT:      -7.2      1.705      1.986
REMARK  Name = 
REMARK  10 active torsions:
REMARK  status: ('A' for Active; 'I' for Inactive)
REMARK    1  A    between atoms: C_1  and  O_2
REMARK    2  A    between atoms: O_2  and  C_3
REMARK    3  A    between atoms: C_5  and  N_6
REMARK    4  A    between atoms: C_7  and  C_9
REMARK    5  A    between atoms: C_13  and  S_14
REMARK    6  A    between atoms: S_14  and  N_15
REMARK    7  A    between atoms: C_19  and  C_20
REMARK    8  A    between atoms: C_20  and  O_22
REMARK    9  A    between atoms: C_24  and  O_25
REMARK   10  A    between atoms: O_25  and  C_26
REMARK                            x       y       z     vdW  Elec       q    Type
REMARK                         _______ _______ _______ _____ _____    ______ ____
ROOT
ATOM      1  N   UNL     1       2.027   7.494  18.265  0.00  0.00    +0.000 N 
ATOM      2  C   UNL     1       1.823   8.834  17.971  0.00  0.00    +0.000 C 
ATOM      3  O   UNL     1       2.475   9.509  17.178  0.00  0.00    +0.000 OA
ATOM      4  H   UNL     1       1.283   6.987  18.748  0.00  0.00    +0.000 HD
ENDROOT
BRANCH   1   7
ATOM      5  C   UNL     1       5.461   6.586  17.013  0.00  0.00    +0.000 A 
ATOM      6  C   UNL     1       4.307   7.307  17.349  0.00  0.00    +0.000 A 
ATOM      7  C   UNL     1       3.122   6.701  17.791  0.00  0.00    +0.000 A 
ATOM      8  C   UNL     1       3.081   5.294  17.795  0.00  0.00    +0.000 A 
ATOM      9  C   UNL     1       4.205   4.559  17.364  0.00  0.00    +0.000 A 
ATOM     10  C   UNL     1       5.405   5.192  17.000  0.00  0.00    +0.000 A 
BRANCH   5  12
ATOM     11  C   UNL     1       7.588   7.389  17.720  0.00  0.00    +0.000 C 
ATOM     12  O   UNL     1       6.622   7.231  16.677  0.00  0.00    +0.000 OA
ENDBRANCH   5  12
BRANCH   8  13
ATOM     13  C   UNL     1       1.837   4.578  18.184  0.00  0.00    +0.000 C 
ATOM     14  O   UNL     1       1.100   4.053  17.364  0.00  0.00    +0.000 OA
BRANCH  13  15
ATOM     15  O   UNL     1       1.547   4.608  19.502  0.00  0.00    +0.000 OA
ATOM     16  H   UNL     1       1.150   3.801  19.877  0.00  0.00    +0.000 HD
ENDBRANCH  13  15
ENDBRANCH   8  13
BRANCH  10  17
ATOM     17  O   UNL     1       6.395   4.298  16.687  0.00  0.00    +0.000 OA
ATOM     18  C   UNL     1       6.620   3.979  15.319  0.00  0.00    +0.000 C 
ENDBRANCH  10  17
ENDBRANCH   1   7
BRANCH   2  19
ATOM     19  C   UNL     1       0.693   9.539  18.624  0.00  0.00    +0.000 A 
ATOM     20  C   UNL     1      -0.433   9.790  17.820  0.00  0.00    +0.000 A 
ATOM     21  C   UNL     1      -1.495  10.560  18.288  0.00  0.00    +0.000 A 
ATOM     22  C   UNL     1      -1.438  11.093  19.569  0.00  0.00    +0.000 A 
ATOM     23  C   UNL     1      -0.319  10.842  20.374  0.00  0.00    +0.000 A 
ATOM     24  C   UNL     1       0.763  10.076  19.911  0.00  0.00    +0.000 A 
BRANCH  23  25
ATOM     25  S   UNL     1      -0.272  11.562  21.994  0.00  0.00    +0.000 S 
ATOM     26  O   UNL     1       0.048  10.537  22.952  0.00  0.00    +0.000 OA
ATOM     27  O   UNL     1       0.432  12.819  21.936  0.00  0.00    +0.000 OA
BRANCH  25  28
ATOM     28  N   UNL     1      -1.889  11.933  22.219  0.00  0.00    +0.000 NA
ATOM     29  H   UNL     1      -2.460  11.484  21.504  0.00  0.00    +0.000 HD
ATOM     30  H   UNL     1      -2.176  11.723  23.174  0.00  0.00    +0.000 HD
ENDBRANCH  25  28
ENDBRANCH  23  25
ENDBRANCH   2  19
TORSDOF 8
ENDMDL
MODEL 7
REMARK VINA RESULT:      -7.1      3.114      8.365
REMARK  Name = 
REMARK  10 active torsions:
REMARK  status: ('A' for Active; 'I' for Inactive)
REMARK    1  A    between atoms: C_1  and  O_2
REMARK    2  A    between atoms: O_2  and  C_3
REMARK    3  A    between atoms: C_5  and  N_6
REMARK    4  A    between atoms: C_7  and  C_9
REMARK    5  A    between atoms: C_13  and  S_14
REMARK    6  A    between atoms: S_14  and  N_15
REMARK    7  A    between atoms: C_19  and  C_20
REMARK    8  A    between atoms: C_20  and  O_22
REMARK    9  A    between atoms: C_24  and  O_25
REMARK   10  A    between atoms: O_25  and  C_26
REMARK                            x       y       z     vdW  Elec       q    Type
REMARK                         _______ _______ _______ _____ _____    ______ ____
ROOT
ATOM      1  N   UNL     1       1.244   8.845  19.589  0.00  0.00    +0.000 N 
ATOM      2  C   UNL     1       2.014   8.611  18.459  0.00  0.00    +0.000 C 
ATOM      3  O   UNL     1       2.099   9.344  17.477  0.00  0.00    +0.000 OA
ATOM      4  H   UNL     1       1.440   8.296  20.428  0.00  0.00    +0.000 HD
ENDROOT
BRANCH   1   7
ATOM      5  C   UNL     1      -1.241  11.534  18.706  0.00  0.00    +0.000 A 
ATOM      6  C   UNL     1      -0.219  10.578  18.625  0.00  0.00    +0.000 A 
ATOM      7  C   UNL     1       0.310   9.920  19.746  0.00  0.00    +0.000 A 
ATOM      8  C   UNL     1      -0.156  10.326  21.010  0.00  0.00    +0.000 A 
ATOM      9  C   UNL     1      -1.114  11.357  21.106  0.00  0.00    +0.000 A 
ATOM     10  C   UNL     1      -1.683  11.944  19.964  0.00  0.00    +0.000 A 
BRANCH   5  12
ATOM     11  C   UNL     1      -2.644  11.227  16.806  0.00  0.00    +0.000 C 
ATOM     12  O   UNL     1      -1.788  12.078  17.573  0.00  0.00    +0.000 OA
ENDBRANCH   5  12
BRANCH   8  13
ATOM     13  C   UNL     1       0.406   9.725  22.248  0.00  0.00    +0.000 C 
ATOM     14  O   UNL     1       1.608   9.628  22.442  0.00  0.00    +0.000 OA
BRANCH  13  15
ATOM     15  O   UNL     1      -0.506   9.234  23.113  0.00  0.00    +0.000 OA
ATOM     16  H   UNL     1      -1.168   8.622  22.744  0.00  0.00    +0.000 HD
ENDBRANCH  13  15
ENDBRANCH   8  13
BRANCH  10  17
ATOM     17  O   UNL     1      -2.645  12.869  20.274  0.00  0.00    +0.000 OA
ATOM     18  C   UNL     1      -4.013  12.501  20.149  0.00  0.00    +0.000 C 
ENDBRANCH  10  17
ENDBRANCH   1   7
BRANCH   2  19
ATOM     19  C   UNL     1       2.861   7.395  18.417  0.00  0.00    +0.000 A 
ATOM     20  C   UNL     1       2.674   6.469  19.460  0.00  0.00    +0.000 A 
ATOM     21  C   UNL     1       3.504   5.360  19.595  0.00  0.00    +0.000 A 
ATOM     22  C   UNL     1       4.537   5.167  18.687  0.00  0.00    +0.000 A 
ATOM     23  C   UNL     1       4.724   6.085  17.645  0.00  0.00    +0.000 A 
ATOM     24  C   UNL     1       3.901   7.213  17.504  0.00  0.00    +0.000 A 
BRANCH  23  25
ATOM     25  S   UNL     1       6.070   5.817  16.522  0.00  0.00    +0.000 S 
ATOM     26  O   UNL     1       6.785   4.634  16.922  0.00  0.00    +0.000 OA
ATOM     27  O   UNL     1       5.611   6.029  15.171  0.00  0.00    +0.000 OA
BRANCH  25  28
ATOM     28  N   UNL     1       7.056   7.117  16.898  0.00  0.00    +0.000 NA
ATOM     29  H   UNL     1       7.061   7.791  16.133  0.00  0.00    +0.000 HD
ATOM     30  H   UNL     1       6.799   7.513  17.801  0.00  0.00    +0.000 HD
ENDBRANCH  25  28
ENDBRANCH  23  25
ENDBRANCH   2  19
TORSDOF 8
ENDMDL
MODEL 8
REMARK VINA RESULT:      -7.1      3.032      8.323
REMARK  Name = 
REMARK  10 active torsions:
REMARK  status: ('A' for Active; 'I' for Inactive)
REMARK    1  A    between atoms: C_1  and  O_2
REMARK    2  A    between atoms: O_2  and  C_3
REMARK    3  A    between atoms: C_5  and  N_6
REMARK    4  A    between atoms: C_7  and  C_9
REMARK    5  A    between atoms: C_13  and  S_14
REMARK    6  A    between atoms: S_14  and  N_15
REMARK    7  A    between atoms: C_19  and  C_20
REMARK    8  A    between atoms: C_20  and  O_22
REMARK    9  A    between atoms: C_24  and  O_25
REMARK   10  A    between atoms: O_25  and  C_26
REMARK                            x       y       z     vdW  Elec       q    Type
REMARK                         _______ _______ _______ _____ _____    ______ ____
ROOT
ATOM      1  N   UNL     1       1.708   8.412  19.287  0.00  0.00    +0.000 N 
ATOM      2  C   UNL     1       2.414   8.269  18.100  0.00  0.00    +0.000 C 
ATOM      3  O   UNL     1       2.489   9.101  17.199  0.00  0.00    +0.000 OA
ATOM      4  H   UNL     1       1.916   7.766  20.051  0.00  0.00    +0.000 HD
ENDROOT
BRANCH   1   7
ATOM      5  C   UNL     1      -0.756  11.222  18.832  0.00  0.00    +0.000 A 
ATOM      6  C   UNL     1       0.216  10.243  18.587  0.00  0.00    +0.000 A 
ATOM      7  C   UNL     1       0.836   9.502  19.604  0.00  0.00    +0.000 A 
ATOM      8  C   UNL     1       0.522   9.844  20.933  0.00  0.00    +0.000 A 
ATOM      9  C   UNL     1      -0.383  10.895  21.190  0.00  0.00    +0.000 A 
ATOM     10  C   UNL     1      -1.047  11.568  20.152  0.00  0.00    +0.000 A 
BRANCH   5  12
ATOM     11  C   UNL     1      -2.646  11.285  17.385  0.00  0.00    +0.000 C 
ATOM     12  O   UNL     1      -1.400  11.851  17.799  0.00  0.00    +0.000 OA
ENDBRANCH   5  12
BRANCH   8  13
ATOM     13  C   UNL     1       1.190   9.152  22.066  0.00  0.00    +0.000 C 
ATOM     14  O   UNL     1       1.320   9.669  23.165  0.00  0.00    +0.000 OA
BRANCH  13  15
ATOM     15  O   UNL     1       1.701   7.937  21.775  0.00  0.00    +0.000 OA
ATOM     16  H   UNL     1       1.548   7.233  22.431  0.00  0.00    +0.000 HD
ENDBRANCH  13  15
ENDBRANCH   8  13
BRANCH  10  17
ATOM     17  O   UNL     1      -1.936  12.501  20.617  0.00  0.00    +0.000 OA
ATOM     18  C   UNL     1      -1.491  13.839  20.800  0.00  0.00    +0.000 C 
ENDBRANCH  10  17
ENDBRANCH   1   7
BRANCH   2  19
ATOM     19  C   UNL     1       3.198   7.029  17.886  0.00  0.00    +0.000 A 
ATOM     20  C   UNL     1       2.671   5.853  18.449  0.00  0.00    +0.000 A 
ATOM     21  C   UNL     1       3.387   4.659  18.425  0.00  0.00    +0.000 A 
ATOM     22  C   UNL     1       4.645   4.631  17.838  0.00  0.00    +0.000 A 
ATOM     23  C   UNL     1       5.172   5.800  17.272  0.00  0.00    +0.000 A 
ATOM     24  C   UNL     1       4.465   7.012  17.299  0.00  0.00    +0.000 A 
BRANCH  23  25
ATOM     25  S   UNL     1       6.792   5.729  16.555  0.00  0.00    +0.000 S 
ATOM     26  O   UNL     1       7.581   4.764  17.276  0.00  0.00    +0.000 OA
ATOM     27  O   UNL     1       6.676   5.720  15.118  0.00  0.00    +0.000 OA
BRANCH  25  28
ATOM     28  N   UNL     1       7.388   7.236  16.974  0.00  0.00    +0.000 NA
ATOM     29  H   UNL     1       8.247   7.433  16.462  0.00  0.00    +0.000 HD
ATOM     30  H   UNL     1       6.666   7.949  16.868  0.00  0.00    +0.000 HD
ENDBRANCH  25  28
ENDBRANCH  23  25
ENDBRANCH   2  19
TORSDOF 8
ENDMDL
MODEL 9
REMARK VINA RESULT:      -7.0      3.145      8.513
REMARK  Name = 
REMARK  10 active torsions:
REMARK  status: ('A' for Active; 'I' for Inactive)
REMARK    1  A    between atoms: C_1  and  O_2
REMARK    2  A    between atoms: O_2  and  C_3
REMARK    3  A    between atoms: C_5  and  N_6
REMARK    4  A    between atoms: C_7  and  C_9
REMARK    5  A    between atoms: C_13  and  S_14
REMARK    6  A    between atoms: S_14  and  N_15
REMARK    7  A    between atoms: C_19  and  C_20
REMARK    8  A    between atoms: C_20  and  O_22
REMARK    9  A    between atoms: C_24  and  O_25
REMARK   10  A    between atoms: O_25  and  C_26
REMARK                            x       y       z     vdW  Elec       q    Type
REMARK                         _______ _______ _______ _____ _____    ______ ____
ROOT
ATOM      1  N   UNL     1       0.776   9.013  19.182  0.00  0.00    +0.000 N 
ATOM      2  C   UNL     1       1.816   8.908  18.269  0.00  0.00    +0.000 C 
ATOM      3  O   UNL     1       2.131   9.751  17.432  0.00  0.00    +0.000 OA
ATOM      4  H   UNL     1       0.765   8.368  19.974  0.00  0.00    +0.000 HD
ENDROOT
BRANCH   1   7
ATOM      5  C   UNL     1      -2.255  11.064  18.295  0.00  0.00    +0.000 A 
ATOM      6  C   UNL     1      -1.195  10.148  18.236  0.00  0.00    +0.000 A 
ATOM      7  C   UNL     1      -0.193  10.066  19.215  0.00  0.00    +0.000 A 
ATOM      8  C   UNL     1      -0.219  11.025  20.244  0.00  0.00    +0.000 A 
ATOM      9  C   UNL     1      -1.226  12.013  20.257  0.00  0.00    +0.000 A 
ATOM     10  C   UNL     1      -2.262  12.024  19.308  0.00  0.00    +0.000 A 
BRANCH   5  12
ATOM     11  C   UNL     1      -2.860  10.887  15.999  0.00  0.00    +0.000 C 
ATOM     12  O   UNL     1      -3.259  11.040  17.364  0.00  0.00    +0.000 OA
ENDBRANCH   5  12
BRANCH   8  13
ATOM     13  C   UNL     1       0.848  11.047  21.279  0.00  0.00    +0.000 C 
ATOM     14  O   UNL     1       1.019  10.127  22.064  0.00  0.00    +0.000 OA
BRANCH  13  15
ATOM     15  O   UNL     1       1.571  12.186  21.332  0.00  0.00    +0.000 OA
ATOM     16  H   UNL     1       2.513  12.112  21.095  0.00  0.00    +0.000 HD
ENDBRANCH  13  15
ENDBRANCH   8  13
BRANCH  10  17
ATOM     17  O   UNL     1      -3.176  13.017  19.541  0.00  0.00    +0.000 OA
ATOM     18  C   UNL     1      -3.999  12.931  20.698  0.00  0.00    +0.000 C 
ENDBRANCH  10  17
ENDBRANCH   1   7
BRANCH   2  19
ATOM     19  C   UNL     1       2.676   7.701  18.308  0.00  0.00    +0.000 A 
ATOM     20  C   UNL     1       2.491   6.840  19.404  0.00  0.00    +0.000 A 
ATOM     21  C   UNL     1       3.332   5.749  19.613  0.00  0.00    +0.000 A 
ATOM     22  C   UNL     1       4.373   5.511  18.724  0.00  0.00    +0.000 A 
ATOM     23  C   UNL     1       4.557   6.366  17.629  0.00  0.00    +0.000 A 
ATOM     24  C   UNL     1       3.723   7.474  17.413  0.00  0.00    +0.000 A 
BRANCH  23  25
ATOM     25  S   UNL     1       5.913   6.043  16.533  0.00  0.00    +0.000 S 
ATOM     26  O   UNL     1       6.576   4.836  16.951  0.00  0.00    +0.000 OA
ATOM     27  O   UNL     1       5.488   6.265  15.172  0.00  0.00    +0.000 OA
BRANCH  25  28
ATOM     28  N   UNL     1       6.939   7.307  16.922  0.00  0.00    +0.000 NA
ATOM     29  H   UNL     1       7.247   7.787  16.077  0.00  0.00    +0.000 HD
ATOM     30  H   UNL     1       6.509   7.918  17.615  0.00  0.00    +0.000 HD
ENDBRANCH  25  28
ENDBRANCH  23  25
ENDBRANCH   2  19
TORSDOF 8
ENDMDL
