MODEL 1
REMARK VINA RESULT:      -8.1      0.000      0.000
REMARK  Name = 
REMARK  6 active torsions:
REMARK  status: ('A' for Active; 'I' for Inactive)
REMARK    1  A    between atoms: C_1  and  C_2
REMARK    2  A    between atoms: C_5  and  S_6
REMARK    3  A    between atoms: S_6  and  C_7
REMARK    4  A    between atoms: C_7  and  C_8
REMARK    5  A    between atoms: N_10  and  C_11
REMARK    6  A    between atoms: N_23  and  C_24
REMARK                            x       y       z     vdW  Elec       q    Type
REMARK                         _______ _______ _______ _____ _____    ______ ____
ROOT
ATOM      1  C   UNL     1       2.505   5.414  19.298  0.00  0.00    +0.000 C 
ATOM      2  O   UNL     1       1.768   5.152  18.348  0.00  0.00    +0.000 OA
ATOM      3  N   UNL     1       2.685   6.665  19.875  0.00  0.00    +0.000 N 
ATOM      4  H   UNL     1       3.521   6.774  20.447  0.00  0.00    +0.000 HD
ENDROOT
BRANCH   3   5
ATOM      5  C   UNL     1       2.029   7.863  19.491  0.00  0.00    +0.000 A 
ATOM      6  C   UNL     1       2.129   8.366  18.173  0.00  0.00    +0.000 A 
ATOM      7  C   UNL     1       1.579   9.599  17.788  0.00  0.00    +0.000 A 
ATOM      8  C   UNL     1       0.924  10.312  18.775  0.00  0.00    +0.000 A 
ATOM      9  C   UNL     1       0.777   9.805  20.050  0.00  0.00    +0.000 A 
ATOM     10  C   UNL     1       0.086  10.688  20.859  0.00  0.00    +0.000 A 
ATOM     11  C   UNL     1      -0.191  10.391  22.184  0.00  0.00    +0.000 A 
ATOM     12  C   UNL     1       0.265   9.149  22.647  0.00  0.00    +0.000 A 
ATOM     13  C   UNL     1       0.981   8.264  21.813  0.00  0.00    +0.000 A 
ATOM     14  C   UNL     1       1.275   8.593  20.463  0.00  0.00    +0.000 A 
ATOM     15  C   UNL     1      -0.262  11.923  20.103  0.00  0.00    +0.000 C 
ATOM     16  C   UNL     1       0.295  11.656  18.670  0.00  0.00    +0.000 C 
ENDBRANCH   3   5
BRANCH   1  17
ATOM     17  C   UNL     1       3.355   4.321  19.924  0.00  0.00    +0.000 C 
BRANCH  17  18
ATOM     18  S   UNL     1       4.482   3.608  18.689  0.00  0.00    +0.000 S 
BRANCH  18  23
ATOM     19  C   UNL     1       7.619   7.607  17.462  0.00  0.00    +0.000 C 
ATOM     20  C   UNL     1       7.054   6.443  18.183  0.00  0.00    +0.000 A 
ATOM     21  N   UNL     1       7.487   5.930  19.317  0.00  0.00    +0.000 NA
ATOM     22  N   UNL     1       6.667   4.882  19.653  0.00  0.00    +0.000 NA
ATOM     23  C   UNL     1       5.761   4.765  18.711  0.00  0.00    +0.000 A 
ATOM     24  N   UNL     1       5.966   5.716  17.752  0.00  0.00    +0.000 N 
ATOM     25  C   UNL     1       5.226   5.964  16.544  0.00  0.00    +0.000 C 
ENDBRANCH  18  23
ENDBRANCH  17  18
ENDBRANCH   1  17
TORSDOF 4
ENDMDL
MODEL 2
REMARK VINA RESULT:      -8.1      1.398      1.690
REMARK  Name = 
REMARK  6 active torsions:
REMARK  status: ('A' for Active; 'I' for Inactive)
REMARK    1  A    between atoms: C_1  and  C_2
REMARK    2  A    between atoms: C_5  and  S_6
REMARK    3  A    between atoms: S_6  and  C_7
REMARK    4  A    between atoms: C_7  and  C_8
REMARK    5  A    between atoms: N_10  and  C_11
REMARK    6  A    between atoms: N_23  and  C_24
REMARK                            x       y       z     vdW  Elec       q    Type
REMARK                         _______ _______ _______ _____ _____    ______ ____
ROOT
ATOM      1  C   UNL     1       2.014   4.739  20.427  0.00  0.00    +0.000 C 
ATOM      2  O   UNL     1       0.980   4.466  19.819  0.00  0.00    +0.000 OA
ATOM      3  N   UNL     1       2.661   5.967  20.431  0.00  0.00    +0.000 N 
ATOM      4  H   UNL     1       3.633   5.956  20.738  0.00  0.00    +0.000 HD
ENDROOT
BRANCH   3   5
ATOM      5  C   UNL     1       2.231   7.140  19.758  0.00  0.00    +0.000 A 
ATOM      6  C   UNL     1       2.574   7.378  18.407  0.00  0.00    +0.000 A 
ATOM      7  C   UNL     1       2.253   8.573  17.742  0.00  0.00    +0.000 A 
ATOM      8  C   UNL     1       1.574   9.522  18.484  0.00  0.00    +0.000 A 
ATOM      9  C   UNL     1       1.192   9.278  19.787  0.00  0.00    +0.000 A 
ATOM     10  C   UNL     1       0.525  10.365  20.321  0.00  0.00    +0.000 A 
ATOM     11  C   UNL     1       0.036  10.348  21.619  0.00  0.00    +0.000 A 
ATOM     12  C   UNL     1       0.253   9.169  22.345  0.00  0.00    +0.000 A 
ATOM     13  C   UNL     1       0.947   8.073  21.790  0.00  0.00    +0.000 A 
ATOM     14  C   UNL     1       1.461   8.114  20.467  0.00  0.00    +0.000 A 
ATOM     15  C   UNL     1       0.453  11.471  19.327  0.00  0.00    +0.000 C 
ATOM     16  C   UNL     1       1.154  10.886  18.062  0.00  0.00    +0.000 C 
ENDBRANCH   3   5
BRANCH   1  17
ATOM     17  C   UNL     1       2.723   3.667  21.239  0.00  0.00    +0.000 C 
BRANCH  17  18
ATOM     18  S   UNL     1       3.583   2.503  20.141  0.00  0.00    +0.000 S 
BRANCH  18  23
ATOM     19  C   UNL     1       5.093   5.497  16.130  0.00  0.00    +0.000 C 
ATOM     20  C   UNL     1       5.080   4.841  17.458  0.00  0.00    +0.000 A 
ATOM     21  N   UNL     1       5.938   5.028  18.441  0.00  0.00    +0.000 NA
ATOM     22  N   UNL     1       5.548   4.251  19.503  0.00  0.00    +0.000 NA
ATOM     23  C   UNL     1       4.471   3.593  19.143  0.00  0.00    +0.000 A 
ATOM     24  N   UNL     1       4.139   3.918  17.858  0.00  0.00    +0.000 N 
ATOM     25  C   UNL     1       3.045   3.443  17.054  0.00  0.00    +0.000 C 
ENDBRANCH  18  23
ENDBRANCH  17  18
ENDBRANCH   1  17
TORSDOF 4
ENDMDL
MODEL 3
REMARK VINA RESULT:      -7.8      2.127      4.102
REMARK  Name = 
REMARK  6 active torsions:
REMARK  status: ('A' for Active; 'I' for Inactive)
REMARK    1  A    between atoms: C_1  and  C_2
REMARK    2  A    between atoms: C_5  and  S_6
REMARK    3  A    between atoms: S_6  and  C_7
REMARK    4  A    between atoms: C_7  and  C_8
REMARK    5  A    between atoms: N_10  and  C_11
REMARK    6  A    between atoms: N_23  and  C_24
REMARK                            x       y       z     vdW  Elec       q    Type
REMARK                         _______ _______ _______ _____ _____    ______ ____
ROOT
ATOM      1  C   UNL     1       4.355   5.995  17.853  0.00  0.00    +0.000 C 
ATOM      2  O   UNL     1       5.158   6.048  18.783  0.00  0.00    +0.000 OA
ATOM      3  N   UNL     1       3.037   6.432  17.883  0.00  0.00    +0.000 N 
ATOM      4  H   UNL     1       2.431   6.067  17.150  0.00  0.00    +0.000 HD
ENDROOT
BRANCH   3   5
ATOM      5  C   UNL     1       2.386   7.044  18.985  0.00  0.00    +0.000 A 
ATOM      6  C   UNL     1       2.079   6.313  20.156  0.00  0.00    +0.000 A 
ATOM      7  C   UNL     1       1.346   6.860  21.221  0.00  0.00    +0.000 A 
ATOM      8  C   UNL     1       0.929   8.169  21.069  0.00  0.00    +0.000 A 
ATOM      9  C   UNL     1       1.267   8.905  19.953  0.00  0.00    +0.000 A 
ATOM     10  C   UNL     1       0.746  10.184  20.024  0.00  0.00    +0.000 A 
ATOM     11  C   UNL     1       0.963  11.112  19.017  0.00  0.00    +0.000 A 
ATOM     12  C   UNL     1       1.741  10.678  17.934  0.00  0.00    +0.000 A 
ATOM     13  C   UNL     1       2.254   9.366  17.869  0.00  0.00    +0.000 A 
ATOM     14  C   UNL     1       2.005   8.420  18.900  0.00  0.00    +0.000 A 
ATOM     15  C   UNL     1      -0.040  10.356  21.277  0.00  0.00    +0.000 C 
ATOM     16  C   UNL     1       0.102   8.982  22.002  0.00  0.00    +0.000 C 
ENDBRANCH   3   5
BRANCH   1  17
ATOM     17  C   UNL     1       4.765   5.373  16.528  0.00  0.00    +0.000 C 
BRANCH  17  18
ATOM     18  S   UNL     1       4.769   3.560  16.653  0.00  0.00    +0.000 S 
BRANCH  18  23
ATOM     19  C   UNL     1       1.395   2.552  20.516  0.00  0.00    +0.000 C 
ATOM     20  C   UNL     1       1.924   2.875  19.172  0.00  0.00    +0.000 A 
ATOM     21  N   UNL     1       1.223   3.144  18.089  0.00  0.00    +0.000 NA
ATOM     22  N   UNL     1       2.099   3.416  17.068  0.00  0.00    +0.000 NA
ATOM     23  C   UNL     1       3.316   3.292  17.542  0.00  0.00    +0.000 A 
ATOM     24  N   UNL     1       3.265   2.940  18.861  0.00  0.00    +0.000 N 
ATOM     25  C   UNL     1       4.345   2.694  19.779  0.00  0.00    +0.000 C 
ENDBRANCH  18  23
ENDBRANCH  17  18
ENDBRANCH   1  17
TORSDOF 4
ENDMDL
MODEL 4
REMARK VINA RESULT:      -7.8      0.719      1.327
REMARK  Name = 
REMARK  6 active torsions:
REMARK  status: ('A' for Active; 'I' for Inactive)
REMARK    1  A    between atoms: C_1  and  C_2
REMARK    2  A    between atoms: C_5  and  S_6
REMARK    3  A    between atoms: S_6  and  C_7
REMARK    4  A    between atoms: C_7  and  C_8
REMARK    5  A    between atoms: N_10  and  C_11
REMARK    6  A    between atoms: N_23  and  C_24
REMARK                            x       y       z     vdW  Elec       q    Type
REMARK                         _______ _______ _______ _____ _____    ______ ____
ROOT
ATOM      1  C   UNL     1       2.657   5.544  19.081  0.00  0.00    +0.000 C 
ATOM      2  O   UNL     1       1.849   5.262  18.197  0.00  0.00    +0.000 OA
ATOM      3  N   UNL     1       2.849   6.799  19.645  0.00  0.00    +0.000 N 
ATOM      4  H   UNL     1       3.728   6.931  20.144  0.00  0.00    +0.000 HD
ENDROOT
BRANCH   3   5
ATOM      5  C   UNL     1       2.127   7.978  19.324  0.00  0.00    +0.000 A 
ATOM      6  C   UNL     1       2.246   8.589  18.054  0.00  0.00    +0.000 A 
ATOM      7  C   UNL     1       1.628   9.809  17.739  0.00  0.00    +0.000 A 
ATOM      8  C   UNL     1       0.885  10.397  18.747  0.00  0.00    +0.000 A 
ATOM      9  C   UNL     1       0.723   9.782  19.971  0.00  0.00    +0.000 A 
ATOM     10  C   UNL     1      -0.061  10.551  20.812  0.00  0.00    +0.000 A 
ATOM     11  C   UNL     1      -0.370  10.132  22.098  0.00  0.00    +0.000 A 
ATOM     12  C   UNL     1       0.152   8.890  22.484  0.00  0.00    +0.000 A 
ATOM     13  C   UNL     1       0.961   8.124  21.619  0.00  0.00    +0.000 A 
ATOM     14  C   UNL     1       1.286   8.577  20.313  0.00  0.00    +0.000 A 
ATOM     15  C   UNL     1      -0.462  11.816  20.137  0.00  0.00    +0.000 C 
ATOM     16  C   UNL     1       0.169  11.701  18.716  0.00  0.00    +0.000 C 
ENDBRANCH   3   5
BRANCH   1  17
ATOM     17  C   UNL     1       3.590   4.475  19.627  0.00  0.00    +0.000 C 
BRANCH  17  18
ATOM     18  S   UNL     1       4.597   3.768  18.289  0.00  0.00    +0.000 S 
BRANCH  18  23
ATOM     19  C   UNL     1       7.753   7.869  17.540  0.00  0.00    +0.000 C 
ATOM     20  C   UNL     1       6.654   6.895  17.342  0.00  0.00    +0.000 A 
ATOM     21  N   UNL     1       5.794   6.866  16.344  0.00  0.00    +0.000 NA
ATOM     22  N   UNL     1       4.963   5.789  16.527  0.00  0.00    +0.000 NA
ATOM     23  C   UNL     1       5.320   5.192  17.639  0.00  0.00    +0.000 A 
ATOM     24  N   UNL     1       6.374   5.855  18.201  0.00  0.00    +0.000 N 
ATOM     25  C   UNL     1       7.088   5.565  19.416  0.00  0.00    +0.000 C 
ENDBRANCH  18  23
ENDBRANCH  17  18
ENDBRANCH   1  17
TORSDOF 4
ENDMDL
MODEL 5
REMARK VINA RESULT:      -7.7      3.707      7.863
REMARK  Name = 
REMARK  6 active torsions:
REMARK  status: ('A' for Active; 'I' for Inactive)
REMARK    1  A    between atoms: C_1  and  C_2
REMARK    2  A    between atoms: C_5  and  S_6
REMARK    3  A    between atoms: S_6  and  C_7
REMARK    4  A    between atoms: C_7  and  C_8
REMARK    5  A    between atoms: N_10  and  C_11
REMARK    6  A    between atoms: N_23  and  C_24
REMARK                            x       y       z     vdW  Elec       q    Type
REMARK                         _______ _______ _______ _____ _____    ______ ____
ROOT
ATOM      1  C   UNL     1       1.546   8.966  18.901  0.00  0.00    +0.000 C 
ATOM      2  O   UNL     1       1.747   9.222  17.715  0.00  0.00    +0.000 OA
ATOM      3  N   UNL     1       1.900   7.794  19.557  0.00  0.00    +0.000 N 
ATOM      4  H   UNL     1       1.423   7.618  20.440  0.00  0.00    +0.000 HD
ENDROOT
BRANCH   3   5
ATOM      5  C   UNL     1       2.584   6.690  18.984  0.00  0.00    +0.000 A 
ATOM      6  C   UNL     1       3.560   6.873  17.978  0.00  0.00    +0.000 A 
ATOM      7  C   UNL     1       4.179   5.799  17.318  0.00  0.00    +0.000 A 
ATOM      8  C   UNL     1       3.783   4.533  17.706  0.00  0.00    +0.000 A 
ATOM      9  C   UNL     1       2.869   4.345  18.722  0.00  0.00    +0.000 A 
ATOM     10  C   UNL     1       2.633   3.000  18.936  0.00  0.00    +0.000 A 
ATOM     11  C   UNL     1       1.754   2.566  19.917  0.00  0.00    +0.000 A 
ATOM     12  C   UNL     1       1.131   3.567  20.674  0.00  0.00    +0.000 A 
ATOM     13  C   UNL     1       1.372   4.936  20.435  0.00  0.00    +0.000 A 
ATOM     14  C   UNL     1       2.259   5.365  19.412  0.00  0.00    +0.000 A 
ATOM     15  C   UNL     1       3.423   2.175  17.981  0.00  0.00    +0.000 C 
ATOM     16  C   UNL     1       4.226   3.224  17.152  0.00  0.00    +0.000 C 
ENDBRANCH   3   5
BRANCH   1  17
ATOM     17  C   UNL     1       0.815   9.966  19.781  0.00  0.00    +0.000 C 
BRANCH  17  18
ATOM     18  S   UNL     1       0.302  11.413  18.808  0.00  0.00    +0.000 S 
BRANCH  18  23
ATOM     19  C   UNL     1      -4.864  11.001  18.122  0.00  0.00    +0.000 C 
ATOM     20  C   UNL     1      -3.411  10.751  17.983  0.00  0.00    +0.000 A 
ATOM     21  N   UNL     1      -2.830   9.896  17.165  0.00  0.00    +0.000 NA
ATOM     22  N   UNL     1      -1.472   9.999  17.332  0.00  0.00    +0.000 NA
ATOM     23  C   UNL     1      -1.250  10.902  18.258  0.00  0.00    +0.000 A 
ATOM     24  N   UNL     1      -2.439  11.399  18.713  0.00  0.00    +0.000 N 
ATOM     25  C   UNL     1      -2.681  12.398  19.720  0.00  0.00    +0.000 C 
ENDBRANCH  18  23
ENDBRANCH  17  18
ENDBRANCH   1  17
TORSDOF 4
ENDMDL
MODEL 6
REMARK VINA RESULT:      -7.6      4.579      7.268
REMARK  Name = 
REMARK  6 active torsions:
REMARK  status: ('A' for Active; 'I' for Inactive)
REMARK    1  A    between atoms: C_1  and  C_2
REMARK    2  A    between atoms: C_5  and  S_6
REMARK    3  A    between atoms: S_6  and  C_7
REMARK    4  A    between atoms: C_7  and  C_8
REMARK    5  A    between atoms: N_10  and  C_11
REMARK    6  A    between atoms: N_23  and  C_24
REMARK                            x       y       z     vdW  Elec       q    Type
REMARK                         _______ _______ _______ _____ _____    ______ ____
ROOT
ATOM      1  C   UNL     1       7.920   8.196  17.880  0.00  0.00    +0.000 C 
ATOM      2  O   UNL     1       8.444   7.520  18.764  0.00  0.00    +0.000 OA
ATOM      3  N   UNL     1       6.903   7.785  17.028  0.00  0.00    +0.000 N 
ATOM      4  H   UNL     1       6.778   8.341  16.184  0.00  0.00    +0.000 HD
ENDROOT
BRANCH   3   5
ATOM      5  C   UNL     1       6.263   6.518  17.043  0.00  0.00    +0.000 A 
ATOM      6  C   UNL     1       6.934   5.352  16.607  0.00  0.00    +0.000 A 
ATOM      7  C   UNL     1       6.300   4.103  16.511  0.00  0.00    +0.000 A 
ATOM      8  C   UNL     1       4.964   4.067  16.869  0.00  0.00    +0.000 A 
ATOM      9  C   UNL     1       4.316   5.188  17.343  0.00  0.00    +0.000 A 
ATOM     10  C   UNL     1       2.995   4.910  17.640  0.00  0.00    +0.000 A 
ATOM     11  C   UNL     1       2.145   5.884  18.142  0.00  0.00    +0.000 A 
ATOM     12  C   UNL     1       2.706   7.155  18.332  0.00  0.00    +0.000 A 
ATOM     13  C   UNL     1       4.053   7.426  18.012  0.00  0.00    +0.000 A 
ATOM     14  C   UNL     1       4.905   6.423  17.478  0.00  0.00    +0.000 A 
ATOM     15  C   UNL     1       2.680   3.488  17.329  0.00  0.00    +0.000 C 
ATOM     16  C   UNL     1       4.034   2.906  16.819  0.00  0.00    +0.000 C 
ENDBRANCH   3   5
BRANCH   1  17
ATOM     17  C   UNL     1       8.408   9.612  17.615  0.00  0.00    +0.000 C 
BRANCH  17  18
ATOM     18  S   UNL     1       9.195  10.300  19.102  0.00  0.00    +0.000 S 
BRANCH  18  23
ATOM     19  C   UNL     1      10.992  14.723  16.971  0.00  0.00    +0.000 C 
ATOM     20  C   UNL     1      10.960  13.347  17.518  0.00  0.00    +0.000 A 
ATOM     21  N   UNL     1      11.985  12.533  17.673  0.00  0.00    +0.000 NA
ATOM     22  N   UNL     1      11.526  11.370  18.238  0.00  0.00    +0.000 NA
ATOM     23  C   UNL     1      10.229  11.488  18.401  0.00  0.00    +0.000 A 
ATOM     24  N   UNL     1       9.817  12.711  17.952  0.00  0.00    +0.000 N 
ATOM     25  C   UNL     1       8.492  13.273  17.929  0.00  0.00    +0.000 C 
ENDBRANCH  18  23
ENDBRANCH  17  18
ENDBRANCH   1  17
TORSDOF 4
ENDMDL
MODEL 7
REMARK VINA RESULT:      -7.6      3.803      8.068
REMARK  Name = 
REMARK  6 active torsions:
REMARK  status: ('A' for Active; 'I' for Inactive)
REMARK    1  A    between atoms: C_1  and  C_2
REMARK    2  A    between atoms: C_5  and  S_6
REMARK    3  A    between atoms: S_6  and  C_7
REMARK    4  A    between atoms: C_7  and  C_8
REMARK    5  A    between atoms: N_10  and  C_11
REMARK    6  A    between atoms: N_23  and  C_24
REMARK                            x       y       z     vdW  Elec       q    Type
REMARK                         _______ _______ _______ _____ _____    ______ ____
ROOT
ATOM      1  C   UNL     1       1.454   8.744  19.769  0.00  0.00    +0.000 C 
ATOM      2  O   UNL     1       1.262   9.057  18.595  0.00  0.00    +0.000 OA
ATOM      3  N   UNL     1       2.058   7.576  20.217  0.00  0.00    +0.000 N 
ATOM      4  H   UNL     1       1.888   7.335  21.192  0.00  0.00    +0.000 HD
ENDROOT
BRANCH   3   5
ATOM      5  C   UNL     1       2.589   6.545  19.400  0.00  0.00    +0.000 A 
ATOM      6  C   UNL     1       3.494   6.830  18.352  0.00  0.00    +0.000 A 
ATOM      7  C   UNL     1       3.958   5.848  17.462  0.00  0.00    +0.000 A 
ATOM      8  C   UNL     1       3.479   4.566  17.662  0.00  0.00    +0.000 A 
ATOM      9  C   UNL     1       2.637   4.270  18.713  0.00  0.00    +0.000 A 
ATOM     10  C   UNL     1       2.296   2.930  18.714  0.00  0.00    +0.000 A 
ATOM     11  C   UNL     1       1.463   2.395  19.685  0.00  0.00    +0.000 A 
ATOM     12  C   UNL     1       0.997   3.288  20.659  0.00  0.00    +0.000 A 
ATOM     13  C   UNL     1       1.342   4.656  20.636  0.00  0.00    +0.000 A 
ATOM     14  C   UNL     1       2.180   5.193  19.623  0.00  0.00    +0.000 A 
ATOM     15  C   UNL     1       2.929   2.232  17.560  0.00  0.00    +0.000 C 
ATOM     16  C   UNL     1       3.755   3.349  16.852  0.00  0.00    +0.000 C 
ENDBRANCH   3   5
BRANCH   1  17
ATOM     17  C   UNL     1       0.977   9.657  20.886  0.00  0.00    +0.000 C 
BRANCH  17  18
ATOM     18  S   UNL     1       0.236  11.167  20.199  0.00  0.00    +0.000 S 
BRANCH  18  23
ATOM     19  C   UNL     1      -3.787  12.975  23.006  0.00  0.00    +0.000 C 
ATOM     20  C   UNL     1      -2.457  12.419  22.666  0.00  0.00    +0.000 A 
ATOM     21  N   UNL     1      -1.519  12.042  23.511  0.00  0.00    +0.000 NA
ATOM     22  N   UNL     1      -0.458  11.559  22.785  0.00  0.00    +0.000 NA
ATOM     23  C   UNL     1      -0.763  11.666  21.513  0.00  0.00    +0.000 A 
ATOM     24  N   UNL     1      -2.007  12.214  21.380  0.00  0.00    +0.000 N 
ATOM     25  C   UNL     1      -2.745  12.517  20.182  0.00  0.00    +0.000 C 
ENDBRANCH  18  23
ENDBRANCH  17  18
ENDBRANCH   1  17
TORSDOF 4
ENDMDL
MODEL 8
REMARK VINA RESULT:      -7.5      3.361      7.684
REMARK  Name = 
REMARK  6 active torsions:
REMARK  status: ('A' for Active; 'I' for Inactive)
REMARK    1  A    between atoms: C_1  and  C_2
REMARK    2  A    between atoms: C_5  and  S_6
REMARK    3  A    between atoms: S_6  and  C_7
REMARK    4  A    between atoms: C_7  and  C_8
REMARK    5  A    between atoms: N_10  and  C_11
REMARK    6  A    between atoms: N_23  and  C_24
REMARK                            x       y       z     vdW  Elec       q    Type
REMARK                         _______ _______ _______ _____ _____    ______ ____
ROOT
ATOM      1  C   UNL     1       1.901   9.037  18.471  0.00  0.00    +0.000 C 
ATOM      2  O   UNL     1       1.944   9.117  17.245  0.00  0.00    +0.000 OA
ATOM      3  N   UNL     1       2.282   7.942  19.235  0.00  0.00    +0.000 N 
ATOM      4  H   UNL     1       1.926   7.920  20.189  0.00  0.00    +0.000 HD
ENDROOT
BRANCH   3   5
ATOM      5  C   UNL     1       2.818   6.724  18.740  0.00  0.00    +0.000 A 
ATOM      6  C   UNL     1       3.794   6.714  17.717  0.00  0.00    +0.000 A 
ATOM      7  C   UNL     1       4.269   5.529  17.134  0.00  0.00    +0.000 A 
ATOM      8  C   UNL     1       3.727   4.351  17.614  0.00  0.00    +0.000 A 
ATOM      9  C   UNL     1       2.812   4.349  18.646  0.00  0.00    +0.000 A 
ATOM     10  C   UNL     1       2.417   3.061  18.958  0.00  0.00    +0.000 A 
ATOM     11  C   UNL     1       1.507   2.809  19.973  0.00  0.00    +0.000 A 
ATOM     12  C   UNL     1       1.021   3.931  20.660  0.00  0.00    +0.000 A 
ATOM     13  C   UNL     1       1.423   5.239  20.320  0.00  0.00    +0.000 A 
ATOM     14  C   UNL     1       2.340   5.483  19.264  0.00  0.00    +0.000 A 
ATOM     15  C   UNL     1       3.088   2.080  18.061  0.00  0.00    +0.000 C 
ATOM     16  C   UNL     1       4.000   2.962  17.154  0.00  0.00    +0.000 C 
ENDBRANCH   3   5
BRANCH   1  17
ATOM     17  C   UNL     1       1.355  10.196  19.289  0.00  0.00    +0.000 C 
BRANCH  17  18
ATOM     18  S   UNL     1      -0.449  10.062  19.456  0.00  0.00    +0.000 S 
BRANCH  18  23
ATOM     19  C   UNL     1      -2.126  13.046  23.408  0.00  0.00    +0.000 C 
ATOM     20  C   UNL     1      -1.400  11.992  22.662  0.00  0.00    +0.000 A 
ATOM     21  N   UNL     1      -0.603  11.072  23.167  0.00  0.00    +0.000 NA
ATOM     22  N   UNL     1      -0.161  10.277  22.138  0.00  0.00    +0.000 NA
ATOM     23  C   UNL     1      -0.682  10.737  21.025  0.00  0.00    +0.000 A 
ATOM     24  N   UNL     1      -1.462  11.826  21.295  0.00  0.00    +0.000 N 
ATOM     25  C   UNL     1      -2.221  12.649  20.391  0.00  0.00    +0.000 C 
ENDBRANCH  18  23
ENDBRANCH  17  18
ENDBRANCH   1  17
TORSDOF 4
ENDMDL
MODEL 9
REMARK VINA RESULT:      -7.5      4.645      7.356
REMARK  Name = 
REMARK  6 active torsions:
REMARK  status: ('A' for Active; 'I' for Inactive)
REMARK    1  A    between atoms: C_1  and  C_2
REMARK    2  A    between atoms: C_5  and  S_6
REMARK    3  A    between atoms: S_6  and  C_7
REMARK    4  A    between atoms: C_7  and  C_8
REMARK    5  A    between atoms: N_10  and  C_11
REMARK    6  A    between atoms: N_23  and  C_24
REMARK                            x       y       z     vdW  Elec       q    Type
REMARK                         _______ _______ _______ _____ _____    ______ ____
ROOT
ATOM      1  C   UNL     1       7.834   8.114  17.899  0.00  0.00    +0.000 C 
ATOM      2  O   UNL     1       8.384   7.411  18.746  0.00  0.00    +0.000 OA
ATOM      3  N   UNL     1       6.801   7.724  17.057  0.00  0.00    +0.000 N 
ATOM      4  H   UNL     1       6.652   8.310  16.237  0.00  0.00    +0.000 HD
ENDROOT
BRANCH   3   5
ATOM      5  C   UNL     1       6.172   6.452  17.040  0.00  0.00    +0.000 A 
ATOM      6  C   UNL     1       6.847   5.306  16.559  0.00  0.00    +0.000 A 
ATOM      7  C   UNL     1       6.222   4.055  16.432  0.00  0.00    +0.000 A 
ATOM      8  C   UNL     1       4.893   3.995  16.806  0.00  0.00    +0.000 A 
ATOM      9  C   UNL     1       4.242   5.095  17.324  0.00  0.00    +0.000 A 
ATOM     10  C   UNL     1       2.927   4.796  17.630  0.00  0.00    +0.000 A 
ATOM     11  C   UNL     1       2.076   5.746  18.173  0.00  0.00    +0.000 A 
ATOM     12  C   UNL     1       2.628   7.015  18.396  0.00  0.00    +0.000 A 
ATOM     13  C   UNL     1       3.967   7.308  18.067  0.00  0.00    +0.000 A 
ATOM     14  C   UNL     1       4.821   6.330  17.491  0.00  0.00    +0.000 A 
ATOM     15  C   UNL     1       2.620   3.382  17.278  0.00  0.00    +0.000 C 
ATOM     16  C   UNL     1       3.972   2.828  16.733  0.00  0.00    +0.000 C 
ENDBRANCH   3   5
BRANCH   1  17
ATOM     17  C   UNL     1       8.304   9.542  17.676  0.00  0.00    +0.000 C 
BRANCH  17  18
ATOM     18  S   UNL     1       9.242  10.135  19.114  0.00  0.00    +0.000 S 
BRANCH  18  23
ATOM     19  C   UNL     1      11.910  14.564  18.345  0.00  0.00    +0.000 C 
ATOM     20  C   UNL     1      10.837  13.547  18.264  0.00  0.00    +0.000 A 
ATOM     21  N   UNL     1       9.736  13.613  17.543  0.00  0.00    +0.000 NA
ATOM     22  N   UNL     1       9.029  12.452  17.732  0.00  0.00    +0.000 NA
ATOM     23  C   UNL     1       9.703  11.707  18.577  0.00  0.00    +0.000 A 
ATOM     24  N   UNL     1      10.845  12.354  18.955  0.00  0.00    +0.000 N 
ATOM     25  C   UNL     1      11.877  11.924  19.861  0.00  0.00    +0.000 C 
ENDBRANCH  18  23
ENDBRANCH  17  18
ENDBRANCH   1  17
TORSDOF 4
ENDMDL
