MODEL 1
REMARK VINA RESULT:      -5.8      0.000      0.000
REMARK  Name = 
REMARK  19 active torsions:
REMARK  status: ('A' for Active; 'I' for Inactive)
REMARK    1  A    between atoms: C_1  and  C_2
REMARK    2  A    between atoms: C_2  and  C_3
REMARK    3  A    between atoms: C_3  and  C_4
REMARK    4  A    between atoms: N_6  and  C_7
REMARK    5  A    between atoms: C_7  and  C_8
REMARK    6  A    between atoms: C_9  and  C_10
REMARK    7  A    between atoms: C_10  and  C_11
REMARK    8  A    between atoms: C_11  and  C_12
REMARK    9  A    between atoms: C_12  and  C_13
REMARK   10  A    between atoms: C_13  and  C_14
REMARK   11  A    between atoms: C_14  and  C_15
REMARK   12  A    between atoms: C_15  and  C_16
REMARK   13  A    between atoms: C_16  and  C_17
REMARK   14  A    between atoms: C_17  and  C_18
REMARK   15  A    between atoms: C_18  and  C_19
REMARK   16  A    between atoms: C_19  and  C_20
REMARK   17  A    between atoms: C_20  and  C_21
REMARK   18  A    between atoms: C_21  and  C_22
REMARK   19  A    between atoms: C_22  and  O_24
REMARK                            x       y       z     vdW  Elec       q    Type
REMARK                         _______ _______ _______ _____ _____    ______ ____
ROOT
ATOM      1  C   UNL     1       2.398   5.791  19.910  0.00  0.00    +0.000 C 
ENDROOT
BRANCH   1   2
ATOM      2  C   UNL     1       2.329   5.740  18.390  0.00  0.00    +0.000 C 
BRANCH   2   3
ATOM      3  C   UNL     1       2.496   7.133  17.800  0.00  0.00    +0.000 C 
BRANCH   3   4
ATOM      4  C   UNL     1       2.062   8.207  18.772  0.00  0.00    +0.000 C 
BRANCH   4   5
ATOM      5  C   UNL     1       2.336   9.568  18.150  0.00  0.00    +0.000 C 
BRANCH   5   6
ATOM      6  C   UNL     1       1.178  10.506  18.425  0.00  0.00    +0.000 C 
BRANCH   6   7
ATOM      7  C   UNL     1      -0.139   9.827  18.085  0.00  0.00    +0.000 C 
BRANCH   7   8
ATOM      8  C   UNL     1      -1.226  10.297  19.039  0.00  0.00    +0.000 C 
BRANCH   8   9
ATOM      9  C   UNL     1      -2.361  10.962  18.272  0.00  0.00    +0.000 C 
BRANCH   9  10
ATOM     10  C   UNL     1      -3.034   9.963  17.344  0.00  0.00    +0.000 C 
BRANCH  10  11
ATOM     11  C   UNL     1      -2.897  10.372  15.900  0.00  0.00    +0.000 C 
ATOM     12  O   UNL     1      -3.089   9.620  14.964  0.00  0.00    +0.000 OA
BRANCH  11  13
ATOM     13  O   UNL     1      -2.524  11.662  15.734  0.00  0.00    +0.000 OA
ATOM     14  H   UNL     1      -1.667  11.882  16.153  0.00  0.00    +0.000 HD
ENDBRANCH  11  13
ENDBRANCH  10  11
ENDBRANCH   9  10
ENDBRANCH   8   9
ENDBRANCH   7   8
ENDBRANCH   6   7
ENDBRANCH   5   6
ENDBRANCH   4   5
ENDBRANCH   3   4
ENDBRANCH   2   3
ENDBRANCH   1   2
BRANCH   1  15
ATOM     15  C   UNL     1       1.356   4.902  20.589  0.00  0.00    +0.000 C 
BRANCH  15  16
ATOM     16  C   UNL     1       1.902   3.548  21.073  0.00  0.00    +0.000 C 
BRANCH  16  18
ATOM     17  C   UNL     1       3.040   2.124  19.340  0.00  0.00    +0.000 C 
ATOM     18  C   UNL     1       1.927   2.494  20.000  0.00  0.00    +0.000 C 
BRANCH  17  19
ATOM     19  C   UNL     1       4.386   2.713  19.592  0.00  0.00    +0.000 C 
BRANCH  19  22
ATOM     20  C   UNL     1       5.748   4.379  18.556  0.00  0.00    +0.000 C 
ATOM     21  O   UNL     1       5.999   4.903  19.639  0.00  0.00    +0.000 OA
ATOM     22  N   UNL     1       4.888   3.314  18.401  0.00  0.00    +0.000 N 
ATOM     23  H   UNL     1       4.961   2.750  17.565  0.00  0.00    +0.000 HD
BRANCH  20  24
ATOM     24  C   UNL     1       6.388   4.841  17.277  0.00  0.00    +0.000 C 
BRANCH  24  26
ATOM     25  C   UNL     1       5.604   4.469  14.928  0.00  0.00    +0.000 C 
ATOM     26  C   UNL     1       5.323   5.172  16.241  0.00  0.00    +0.000 C 
ENDBRANCH  24  26
ENDBRANCH  20  24
ENDBRANCH  19  22
ENDBRANCH  17  19
ENDBRANCH  16  18
ENDBRANCH  15  16
ENDBRANCH   1  15
TORSDOF 18
ENDMDL
MODEL 2
REMARK VINA RESULT:      -5.8      2.346      4.378
REMARK  Name = 
REMARK  19 active torsions:
REMARK  status: ('A' for Active; 'I' for Inactive)
REMARK    1  A    between atoms: C_1  and  C_2
REMARK    2  A    between atoms: C_2  and  C_3
REMARK    3  A    between atoms: C_3  and  C_4
REMARK    4  A    between atoms: N_6  and  C_7
REMARK    5  A    between atoms: C_7  and  C_8
REMARK    6  A    between atoms: C_9  and  C_10
REMARK    7  A    between atoms: C_10  and  C_11
REMARK    8  A    between atoms: C_11  and  C_12
REMARK    9  A    between atoms: C_12  and  C_13
REMARK   10  A    between atoms: C_13  and  C_14
REMARK   11  A    between atoms: C_14  and  C_15
REMARK   12  A    between atoms: C_15  and  C_16
REMARK   13  A    between atoms: C_16  and  C_17
REMARK   14  A    between atoms: C_17  and  C_18
REMARK   15  A    between atoms: C_18  and  C_19
REMARK   16  A    between atoms: C_19  and  C_20
REMARK   17  A    between atoms: C_20  and  C_21
REMARK   18  A    between atoms: C_21  and  C_22
REMARK   19  A    between atoms: C_22  and  O_24
REMARK                            x       y       z     vdW  Elec       q    Type
REMARK                         _______ _______ _______ _____ _____    ______ ____
ROOT
ATOM      1  C   UNL     1       3.779   3.155  18.028  0.00  0.00    +0.000 C 
ENDROOT
BRANCH   1   2
ATOM      2  C   UNL     1       2.697   2.174  17.595  0.00  0.00    +0.000 C 
BRANCH   2   3
ATOM      3  C   UNL     1       1.460   2.321  18.470  0.00  0.00    +0.000 C 
BRANCH   3   4
ATOM      4  C   UNL     1       1.822   2.686  19.891  0.00  0.00    +0.000 C 
BRANCH   4   5
ATOM      5  C   UNL     1       1.000   3.896  20.309  0.00  0.00    +0.000 C 
BRANCH   5   6
ATOM      6  C   UNL     1       1.909   4.975  20.862  0.00  0.00    +0.000 C 
BRANCH   6   7
ATOM      7  C   UNL     1       1.157   6.292  20.965  0.00  0.00    +0.000 C 
BRANCH   7   8
ATOM      8  C   UNL     1       2.109   7.453  20.724  0.00  0.00    +0.000 C 
BRANCH   8   9
ATOM      9  C   UNL     1       1.830   8.103  19.376  0.00  0.00    +0.000 C 
BRANCH   9  10
ATOM     10  C   UNL     1       1.012   9.373  19.555  0.00  0.00    +0.000 C 
BRANCH  10  11
ATOM     11  C   UNL     1       0.663   9.995  18.228  0.00  0.00    +0.000 C 
ATOM     12  O   UNL     1      -0.460  10.350  17.924  0.00  0.00    +0.000 OA
BRANCH  11  13
ATOM     13  O   UNL     1       1.717  10.114  17.389  0.00  0.00    +0.000 OA
ATOM     14  H   UNL     1       2.056   9.257  17.057  0.00  0.00    +0.000 HD
ENDBRANCH  11  13
ENDBRANCH  10  11
ENDBRANCH   9  10
ENDBRANCH   8   9
ENDBRANCH   7   8
ENDBRANCH   6   7
ENDBRANCH   5   6
ENDBRANCH   4   5
ENDBRANCH   3   4
ENDBRANCH   2   3
ENDBRANCH   1   2
BRANCH   1  15
ATOM     15  C   UNL     1       3.578   4.560  17.460  0.00  0.00    +0.000 C 
BRANCH  15  16
ATOM     16  C   UNL     1       4.316   5.665  18.235  0.00  0.00    +0.000 C 
BRANCH  16  18
ATOM     17  C   UNL     1       6.556   5.306  19.322  0.00  0.00    +0.000 C 
ATOM     18  C   UNL     1       5.221   5.137  19.315  0.00  0.00    +0.000 C 
BRANCH  17  19
ATOM     19  C   UNL     1       7.303   6.038  18.260  0.00  0.00    +0.000 C 
BRANCH  19  22
ATOM     20  C   UNL     1       6.818   5.752  15.939  0.00  0.00    +0.000 C 
ATOM     21  O   UNL     1       6.147   6.780  15.912  0.00  0.00    +0.000 OA
ATOM     22  N   UNL     1       7.390   5.239  17.082  0.00  0.00    +0.000 N 
ATOM     23  H   UNL     1       8.159   4.590  16.990  0.00  0.00    +0.000 HD
BRANCH  20  24
ATOM     24  C   UNL     1       7.110   4.956  14.698  0.00  0.00    +0.000 C 
BRANCH  24  26
ATOM     25  C   UNL     1       5.864   3.519  13.068  0.00  0.00    +0.000 C 
ATOM     26  C   UNL     1       6.087   3.841  14.531  0.00  0.00    +0.000 C 
ENDBRANCH  24  26
ENDBRANCH  20  24
ENDBRANCH  19  22
ENDBRANCH  17  19
ENDBRANCH  16  18
ENDBRANCH  15  16
ENDBRANCH   1  15
TORSDOF 18
ENDMDL
MODEL 3
REMARK VINA RESULT:      -5.7      2.655      8.138
REMARK  Name = 
REMARK  19 active torsions:
REMARK  status: ('A' for Active; 'I' for Inactive)
REMARK    1  A    between atoms: C_1  and  C_2
REMARK    2  A    between atoms: C_2  and  C_3
REMARK    3  A    between atoms: C_3  and  C_4
REMARK    4  A    between atoms: N_6  and  C_7
REMARK    5  A    between atoms: C_7  and  C_8
REMARK    6  A    between atoms: C_9  and  C_10
REMARK    7  A    between atoms: C_10  and  C_11
REMARK    8  A    between atoms: C_11  and  C_12
REMARK    9  A    between atoms: C_12  and  C_13
REMARK   10  A    between atoms: C_13  and  C_14
REMARK   11  A    between atoms: C_14  and  C_15
REMARK   12  A    between atoms: C_15  and  C_16
REMARK   13  A    between atoms: C_16  and  C_17
REMARK   14  A    between atoms: C_17  and  C_18
REMARK   15  A    between atoms: C_18  and  C_19
REMARK   16  A    between atoms: C_19  and  C_20
REMARK   17  A    between atoms: C_20  and  C_21
REMARK   18  A    between atoms: C_21  and  C_22
REMARK   19  A    between atoms: C_22  and  O_24
REMARK                            x       y       z     vdW  Elec       q    Type
REMARK                         _______ _______ _______ _____ _____    ______ ____
ROOT
ATOM      1  C   UNL     1       2.984   5.228  20.042  0.00  0.00    +0.000 C 
ENDROOT
BRANCH   1   2
ATOM      2  C   UNL     1       2.200   4.737  21.252  0.00  0.00    +0.000 C 
BRANCH   2   3
ATOM      3  C   UNL     1       1.474   3.440  20.929  0.00  0.00    +0.000 C 
BRANCH   3   4
ATOM      4  C   UNL     1       0.737   3.525  19.612  0.00  0.00    +0.000 C 
BRANCH   4   5
ATOM      5  C   UNL     1       0.873   2.193  18.889  0.00  0.00    +0.000 C 
BRANCH   5   6
ATOM      6  C   UNL     1       2.327   1.936  18.544  0.00  0.00    +0.000 C 
BRANCH   6   7
ATOM      7  C   UNL     1       2.718   2.722  17.304  0.00  0.00    +0.000 C 
BRANCH   7   8
ATOM      8  C   UNL     1       4.078   3.371  17.508  0.00  0.00    +0.000 C 
BRANCH   8   9
ATOM      9  C   UNL     1       4.470   4.191  16.287  0.00  0.00    +0.000 C 
BRANCH   9  10
ATOM     10  C   UNL     1       5.965   4.468  16.288  0.00  0.00    +0.000 C 
BRANCH  10  11
ATOM     11  C   UNL     1       6.253   5.937  16.115  0.00  0.00    +0.000 C 
ATOM     12  O   UNL     1       5.422   6.751  15.761  0.00  0.00    +0.000 OA
BRANCH  11  13
ATOM     13  O   UNL     1       7.537   6.274  16.378  0.00  0.00    +0.000 OA
ATOM     14  H   UNL     1       7.897   5.854  17.186  0.00  0.00    +0.000 HD
ENDBRANCH  11  13
ENDBRANCH  10  11
ENDBRANCH   9  10
ENDBRANCH   8   9
ENDBRANCH   7   8
ENDBRANCH   6   7
ENDBRANCH   5   6
ENDBRANCH   4   5
ENDBRANCH   3   4
ENDBRANCH   2   3
ENDBRANCH   1   2
BRANCH   1  15
ATOM     15  C   UNL     1       2.699   6.688  19.693  0.00  0.00    +0.000 C 
BRANCH  15  16
ATOM     16  C   UNL     1       2.094   6.895  18.294  0.00  0.00    +0.000 C 
BRANCH  16  18
ATOM     17  C   UNL     1       2.083   9.394  18.008  0.00  0.00    +0.000 C 
ATOM     18  C   UNL     1       2.524   8.178  17.637  0.00  0.00    +0.000 C 
BRANCH  17  19
ATOM     19  C   UNL     1       1.113   9.619  19.117  0.00  0.00    +0.000 C 
BRANCH  19  22
ATOM     20  C   UNL     1      -0.495  11.302  18.581  0.00  0.00    +0.000 C 
ATOM     21  O   UNL     1       0.186  12.177  19.109  0.00  0.00    +0.000 OA
ATOM     22  N   UNL     1      -0.165   9.965  18.588  0.00  0.00    +0.000 N 
ATOM     23  H   UNL     1      -0.585   9.358  17.896  0.00  0.00    +0.000 HD
BRANCH  20  24
ATOM     24  C   UNL     1      -1.764  11.616  17.839  0.00  0.00    +0.000 C 
BRANCH  24  26
ATOM     25  C   UNL     1      -3.546   9.951  17.272  0.00  0.00    +0.000 C 
ATOM     26  C   UNL     1      -2.155  10.451  16.941  0.00  0.00    +0.000 C 
ENDBRANCH  24  26
ENDBRANCH  20  24
ENDBRANCH  19  22
ENDBRANCH  17  19
ENDBRANCH  16  18
ENDBRANCH  15  16
ENDBRANCH   1  15
TORSDOF 18
ENDMDL
MODEL 4
REMARK VINA RESULT:      -5.7      6.160      8.923
REMARK  Name = 
REMARK  19 active torsions:
REMARK  status: ('A' for Active; 'I' for Inactive)
REMARK    1  A    between atoms: C_1  and  C_2
REMARK    2  A    between atoms: C_2  and  C_3
REMARK    3  A    between atoms: C_3  and  C_4
REMARK    4  A    between atoms: N_6  and  C_7
REMARK    5  A    between atoms: C_7  and  C_8
REMARK    6  A    between atoms: C_9  and  C_10
REMARK    7  A    between atoms: C_10  and  C_11
REMARK    8  A    between atoms: C_11  and  C_12
REMARK    9  A    between atoms: C_12  and  C_13
REMARK   10  A    between atoms: C_13  and  C_14
REMARK   11  A    between atoms: C_14  and  C_15
REMARK   12  A    between atoms: C_15  and  C_16
REMARK   13  A    between atoms: C_16  and  C_17
REMARK   14  A    between atoms: C_17  and  C_18
REMARK   15  A    between atoms: C_18  and  C_19
REMARK   16  A    between atoms: C_19  and  C_20
REMARK   17  A    between atoms: C_20  and  C_21
REMARK   18  A    between atoms: C_21  and  C_22
REMARK   19  A    between atoms: C_22  and  O_24
REMARK                            x       y       z     vdW  Elec       q    Type
REMARK                         _______ _______ _______ _____ _____    ______ ____
ROOT
ATOM      1  C   UNL     1       6.525   7.168  17.315  0.00  0.00    +0.000 C 
ENDROOT
BRANCH   1   2
ATOM      2  C   UNL     1       6.487   5.675  17.020  0.00  0.00    +0.000 C 
BRANCH   2   3
ATOM      3  C   UNL     1       5.299   5.335  16.131  0.00  0.00    +0.000 C 
BRANCH   3   4
ATOM      4  C   UNL     1       4.219   4.607  16.898  0.00  0.00    +0.000 C 
BRANCH   4   5
ATOM      5  C   UNL     1       4.074   5.251  18.269  0.00  0.00    +0.000 C 
BRANCH   5   6
ATOM      6  C   UNL     1       2.804   6.076  18.323  0.00  0.00    +0.000 C 
BRANCH   6   7
ATOM      7  C   UNL     1       2.345   6.238  19.762  0.00  0.00    +0.000 C 
BRANCH   7   8
ATOM      8  C   UNL     1       2.515   4.927  20.513  0.00  0.00    +0.000 C 
BRANCH   8   9
ATOM      9  C   UNL     1       1.196   4.168  20.571  0.00  0.00    +0.000 C 
BRANCH   9  10
ATOM     10  C   UNL     1       1.400   2.713  20.179  0.00  0.00    +0.000 C 
BRANCH  10  11
ATOM     11  C   UNL     1       1.555   2.561  18.688  0.00  0.00    +0.000 C 
ATOM     12  O   UNL     1       0.875   3.158  17.875  0.00  0.00    +0.000 OA
BRANCH  11  13
ATOM     13  O   UNL     1       2.517   1.682  18.328  0.00  0.00    +0.000 OA
ATOM     14  H   UNL     1       2.886   1.843  17.435  0.00  0.00    +0.000 HD
ENDBRANCH  11  13
ENDBRANCH  10  11
ENDBRANCH   9  10
ENDBRANCH   8   9
ENDBRANCH   7   8
ENDBRANCH   6   7
ENDBRANCH   5   6
ENDBRANCH   4   5
ENDBRANCH   3   4
ENDBRANCH   2   3
ENDBRANCH   1   2
BRANCH   1  15
ATOM     15  C   UNL     1       7.866   7.635  17.882  0.00  0.00    +0.000 C 
BRANCH  15  16
ATOM     16  C   UNL     1       8.059   9.162  17.867  0.00  0.00    +0.000 C 
BRANCH  16  18
ATOM     17  C   UNL     1       9.488  10.920  18.958  0.00  0.00    +0.000 C 
ATOM     18  C   UNL     1       9.048   9.651  18.890  0.00  0.00    +0.000 C 
BRANCH  17  19
ATOM     19  C   UNL     1       9.050  11.999  18.029  0.00  0.00    +0.000 C 
BRANCH  19  22
ATOM     20  C   UNL     1      10.640  13.749  17.688  0.00  0.00    +0.000 C 
ATOM     21  O   UNL     1      11.191  13.126  16.784  0.00  0.00    +0.000 OA
ATOM     22  N   UNL     1       9.597  13.251  18.438  0.00  0.00    +0.000 N 
ATOM     23  H   UNL     1       9.004  13.901  18.936  0.00  0.00    +0.000 HD
BRANCH  20  24
ATOM     24  C   UNL     1      11.041  15.151  18.052  0.00  0.00    +0.000 C 
BRANCH  24  26
ATOM     25  C   UNL     1      11.017  17.536  17.289  0.00  0.00    +0.000 C 
ATOM     26  C   UNL     1      10.795  16.094  16.883  0.00  0.00    +0.000 C 
ENDBRANCH  24  26
ENDBRANCH  20  24
ENDBRANCH  19  22
ENDBRANCH  17  19
ENDBRANCH  16  18
ENDBRANCH  15  16
ENDBRANCH   1  15
TORSDOF 18
ENDMDL
MODEL 5
REMARK VINA RESULT:      -5.7      2.470      8.711
REMARK  Name = 
REMARK  19 active torsions:
REMARK  status: ('A' for Active; 'I' for Inactive)
REMARK    1  A    between atoms: C_1  and  C_2
REMARK    2  A    between atoms: C_2  and  C_3
REMARK    3  A    between atoms: C_3  and  C_4
REMARK    4  A    between atoms: N_6  and  C_7
REMARK    5  A    between atoms: C_7  and  C_8
REMARK    6  A    between atoms: C_9  and  C_10
REMARK    7  A    between atoms: C_10  and  C_11
REMARK    8  A    between atoms: C_11  and  C_12
REMARK    9  A    between atoms: C_12  and  C_13
REMARK   10  A    between atoms: C_13  and  C_14
REMARK   11  A    between atoms: C_14  and  C_15
REMARK   12  A    between atoms: C_15  and  C_16
REMARK   13  A    between atoms: C_16  and  C_17
REMARK   14  A    between atoms: C_17  and  C_18
REMARK   15  A    between atoms: C_18  and  C_19
REMARK   16  A    between atoms: C_19  and  C_20
REMARK   17  A    between atoms: C_20  and  C_21
REMARK   18  A    between atoms: C_21  and  C_22
REMARK   19  A    between atoms: C_22  and  O_24
REMARK                            x       y       z     vdW  Elec       q    Type
REMARK                         _______ _______ _______ _____ _____    ______ ____
ROOT
ATOM      1  C   UNL     1       1.869   5.445  18.789  0.00  0.00    +0.000 C 
ENDROOT
BRANCH   1   2
ATOM      2  C   UNL     1       1.580   5.698  20.262  0.00  0.00    +0.000 C 
BRANCH   2   3
ATOM      3  C   UNL     1       2.304   4.681  21.133  0.00  0.00    +0.000 C 
BRANCH   3   4
ATOM      4  C   UNL     1       1.625   3.331  21.097  0.00  0.00    +0.000 C 
BRANCH   4   5
ATOM      5  C   UNL     1       2.616   2.298  20.583  0.00  0.00    +0.000 C 
BRANCH   5   6
ATOM      6  C   UNL     1       2.381   2.041  19.108  0.00  0.00    +0.000 C 
BRANCH   6   7
ATOM      7  C   UNL     1       3.706   1.988  18.367  0.00  0.00    +0.000 C 
BRANCH   7   8
ATOM      8  C   UNL     1       4.483   3.274  18.600  0.00  0.00    +0.000 C 
BRANCH   8   9
ATOM      9  C   UNL     1       5.012   3.826  17.283  0.00  0.00    +0.000 C 
BRANCH   9  10
ATOM     10  C   UNL     1       5.865   5.061  17.527  0.00  0.00    +0.000 C 
BRANCH  10  11
ATOM     11  C   UNL     1       7.162   4.996  16.763  0.00  0.00    +0.000 C 
ATOM     12  O   UNL     1       7.407   5.683  15.790  0.00  0.00    +0.000 OA
BRANCH  11  13
ATOM     13  O   UNL     1       8.035   4.086  17.251  0.00  0.00    +0.000 OA
ATOM     14  H   UNL     1       7.617   3.242  17.520  0.00  0.00    +0.000 HD
ENDBRANCH  11  13
ENDBRANCH  10  11
ENDBRANCH   9  10
ENDBRANCH   8   9
ENDBRANCH   7   8
ENDBRANCH   6   7
ENDBRANCH   5   6
ENDBRANCH   4   5
ENDBRANCH   3   4
ENDBRANCH   2   3
ENDBRANCH   1   2
BRANCH   1  15
ATOM     15  C   UNL     1       2.533   6.633  18.094  0.00  0.00    +0.000 C 
BRANCH  15  16
ATOM     16  C   UNL     1       2.273   7.988  18.775  0.00  0.00    +0.000 C 
BRANCH  16  18
ATOM     17  C   UNL     1       1.522  10.251  17.976  0.00  0.00    +0.000 C 
ATOM     18  C   UNL     1       2.281   9.151  17.821  0.00  0.00    +0.000 C 
BRANCH  17  19
ATOM     19  C   UNL     1       0.579  10.454  19.112  0.00  0.00    +0.000 C 
BRANCH  19  22
ATOM     20  C   UNL     1      -1.483  11.351  18.309  0.00  0.00    +0.000 C 
ATOM     21  O   UNL     1      -1.081  12.503  18.446  0.00  0.00    +0.000 OA
ATOM     22  N   UNL     1      -0.762  10.238  18.681  0.00  0.00    +0.000 N 
ATOM     23  H   UNL     1      -1.004   9.345  18.273  0.00  0.00    +0.000 HD
BRANCH  20  24
ATOM     24  C   UNL     1      -2.815  11.038  17.686  0.00  0.00    +0.000 C 
BRANCH  24  26
ATOM     25  C   UNL     1      -2.871  10.631  15.216  0.00  0.00    +0.000 C 
ATOM     26  C   UNL     1      -2.653  10.006  16.579  0.00  0.00    +0.000 C 
ENDBRANCH  24  26
ENDBRANCH  20  24
ENDBRANCH  19  22
ENDBRANCH  17  19
ENDBRANCH  16  18
ENDBRANCH  15  16
ENDBRANCH   1  15
TORSDOF 18
ENDMDL
MODEL 6
REMARK VINA RESULT:      -5.7      2.817      8.231
REMARK  Name = 
REMARK  19 active torsions:
REMARK  status: ('A' for Active; 'I' for Inactive)
REMARK    1  A    between atoms: C_1  and  C_2
REMARK    2  A    between atoms: C_2  and  C_3
REMARK    3  A    between atoms: C_3  and  C_4
REMARK    4  A    between atoms: N_6  and  C_7
REMARK    5  A    between atoms: C_7  and  C_8
REMARK    6  A    between atoms: C_9  and  C_10
REMARK    7  A    between atoms: C_10  and  C_11
REMARK    8  A    between atoms: C_11  and  C_12
REMARK    9  A    between atoms: C_12  and  C_13
REMARK   10  A    between atoms: C_13  and  C_14
REMARK   11  A    between atoms: C_14  and  C_15
REMARK   12  A    between atoms: C_15  and  C_16
REMARK   13  A    between atoms: C_16  and  C_17
REMARK   14  A    between atoms: C_17  and  C_18
REMARK   15  A    between atoms: C_18  and  C_19
REMARK   16  A    between atoms: C_19  and  C_20
REMARK   17  A    between atoms: C_20  and  C_21
REMARK   18  A    between atoms: C_21  and  C_22
REMARK   19  A    between atoms: C_22  and  O_24
REMARK                            x       y       z     vdW  Elec       q    Type
REMARK                         _______ _______ _______ _____ _____    ______ ____
ROOT
ATOM      1  C   UNL     1       2.559   5.198  20.993  0.00  0.00    +0.000 C 
ENDROOT
BRANCH   1   2
ATOM      2  C   UNL     1       1.988   3.787  21.046  0.00  0.00    +0.000 C 
BRANCH   2   3
ATOM      3  C   UNL     1       0.803   3.653  20.101  0.00  0.00    +0.000 C 
BRANCH   3   4
ATOM      4  C   UNL     1       1.033   2.575  19.066  0.00  0.00    +0.000 C 
BRANCH   4   5
ATOM      5  C   UNL     1       1.914   3.139  17.961  0.00  0.00    +0.000 C 
BRANCH   5   6
ATOM      6  C   UNL     1       3.185   2.321  17.843  0.00  0.00    +0.000 C 
BRANCH   6   7
ATOM      7  C   UNL     1       4.294   3.162  17.235  0.00  0.00    +0.000 C 
BRANCH   7   8
ATOM      8  C   UNL     1       4.186   4.598  17.725  0.00  0.00    +0.000 C 
BRANCH   8   9
ATOM      9  C   UNL     1       4.692   5.565  16.664  0.00  0.00    +0.000 C 
BRANCH   9  10
ATOM     10  C   UNL     1       5.504   6.681  17.303  0.00  0.00    +0.000 C 
BRANCH  10  11
ATOM     11  C   UNL     1       6.976   6.521  17.025  0.00  0.00    +0.000 C 
ATOM     12  O   UNL     1       7.505   5.453  16.786  0.00  0.00    +0.000 OA
BRANCH  11  13
ATOM     13  O   UNL     1       7.669   7.681  17.079  0.00  0.00    +0.000 OA
ATOM     14  H   UNL     1       7.343   8.305  17.761  0.00  0.00    +0.000 HD
ENDBRANCH  11  13
ENDBRANCH  10  11
ENDBRANCH   9  10
ENDBRANCH   8   9
ENDBRANCH   7   8
ENDBRANCH   6   7
ENDBRANCH   5   6
ENDBRANCH   4   5
ENDBRANCH   3   4
ENDBRANCH   2   3
ENDBRANCH   1   2
BRANCH   1  15
ATOM     15  C   UNL     1       1.847   6.096  19.982  0.00  0.00    +0.000 C 
BRANCH  15  16
ATOM     16  C   UNL     1       1.956   7.600  20.290  0.00  0.00    +0.000 C 
BRANCH  16  18
ATOM     17  C   UNL     1       0.201   9.223  21.074  0.00  0.00    +0.000 C 
ATOM     18  C   UNL     1       0.909   8.092  21.251  0.00  0.00    +0.000 C 
BRANCH  17  19
ATOM     19  C   UNL     1       0.367  10.127  19.901  0.00  0.00    +0.000 C 
BRANCH  19  22
ATOM     20  C   UNL     1      -1.540  11.271  19.031  0.00  0.00    +0.000 C 
ATOM     21  O   UNL     1      -1.306  12.265  19.714  0.00  0.00    +0.000 OA
ATOM     22  N   UNL     1      -0.809  10.106  19.095  0.00  0.00    +0.000 N 
ATOM     23  H   UNL     1      -0.853   9.461  18.318  0.00  0.00    +0.000 HD
BRANCH  20  24
ATOM     24  C   UNL     1      -2.652  11.241  18.020  0.00  0.00    +0.000 C 
BRANCH  24  26
ATOM     25  C   UNL     1      -2.701  10.237  15.727  0.00  0.00    +0.000 C 
ATOM     26  C   UNL     1      -2.599   9.953  17.211  0.00  0.00    +0.000 C 
ENDBRANCH  24  26
ENDBRANCH  20  24
ENDBRANCH  19  22
ENDBRANCH  17  19
ENDBRANCH  16  18
ENDBRANCH  15  16
ENDBRANCH   1  15
TORSDOF 18
ENDMDL
MODEL 7
REMARK VINA RESULT:      -5.7      2.824      3.480
REMARK  Name = 
REMARK  19 active torsions:
REMARK  status: ('A' for Active; 'I' for Inactive)
REMARK    1  A    between atoms: C_1  and  C_2
REMARK    2  A    between atoms: C_2  and  C_3
REMARK    3  A    between atoms: C_3  and  C_4
REMARK    4  A    between atoms: N_6  and  C_7
REMARK    5  A    between atoms: C_7  and  C_8
REMARK    6  A    between atoms: C_9  and  C_10
REMARK    7  A    between atoms: C_10  and  C_11
REMARK    8  A    between atoms: C_11  and  C_12
REMARK    9  A    between atoms: C_12  and  C_13
REMARK   10  A    between atoms: C_13  and  C_14
REMARK   11  A    between atoms: C_14  and  C_15
REMARK   12  A    between atoms: C_15  and  C_16
REMARK   13  A    between atoms: C_16  and  C_17
REMARK   14  A    between atoms: C_17  and  C_18
REMARK   15  A    between atoms: C_18  and  C_19
REMARK   16  A    between atoms: C_19  and  C_20
REMARK   17  A    between atoms: C_20  and  C_21
REMARK   18  A    between atoms: C_21  and  C_22
REMARK   19  A    between atoms: C_22  and  O_24
REMARK                            x       y       z     vdW  Elec       q    Type
REMARK                         _______ _______ _______ _____ _____    ______ ____
ROOT
ATOM      1  C   UNL     1       3.111   5.943  19.816  0.00  0.00    +0.000 C 
ENDROOT
BRANCH   1   2
ATOM      2  C   UNL     1       2.878   6.758  18.551  0.00  0.00    +0.000 C 
BRANCH   2   3
ATOM      3  C   UNL     1       1.913   7.903  18.822  0.00  0.00    +0.000 C 
BRANCH   3   4
ATOM      4  C   UNL     1       2.159   9.072  17.896  0.00  0.00    +0.000 C 
BRANCH   4   5
ATOM      5  C   UNL     1       1.231  10.211  18.289  0.00  0.00    +0.000 C 
BRANCH   5   6
ATOM      6  C   UNL     1      -0.206   9.841  17.978  0.00  0.00    +0.000 C 
BRANCH   6   7
ATOM      7  C   UNL     1      -1.118  10.282  19.110  0.00  0.00    +0.000 C 
BRANCH   7   8
ATOM      8  C   UNL     1      -0.794  11.713  19.511  0.00  0.00    +0.000 C 
BRANCH   8   9
ATOM      9  C   UNL     1      -0.850  11.872  21.024  0.00  0.00    +0.000 C 
BRANCH   9  10
ATOM     10  C   UNL     1       0.112  10.905  21.698  0.00  0.00    +0.000 C 
BRANCH  10  11
ATOM     11  C   UNL     1      -0.424  10.429  23.023  0.00  0.00    +0.000 C 
ATOM     12  O   UNL     1       0.190   9.696  23.775  0.00  0.00    +0.000 OA
BRANCH  11  13
ATOM     13  O   UNL     1      -1.668  10.880  23.300  0.00  0.00    +0.000 OA
ATOM     14  H   UNL     1      -2.297  10.174  23.555  0.00  0.00    +0.000 HD
ENDBRANCH  11  13
ENDBRANCH  10  11
ENDBRANCH   9  10
ENDBRANCH   8   9
ENDBRANCH   7   8
ENDBRANCH   6   7
ENDBRANCH   5   6
ENDBRANCH   4   5
ENDBRANCH   3   4
ENDBRANCH   2   3
ENDBRANCH   1   2
BRANCH   1  15
ATOM     15  C   UNL     1       1.815   5.512  20.501  0.00  0.00    +0.000 C 
BRANCH  15  16
ATOM     16  C   UNL     1       1.678   3.991  20.691  0.00  0.00    +0.000 C 
BRANCH  16  18
ATOM     17  C   UNL     1       1.217   2.629  18.628  0.00  0.00    +0.000 C 
ATOM     18  C   UNL     1       0.774   3.339  19.681  0.00  0.00    +0.000 C 
BRANCH  17  19
ATOM     19  C   UNL     1       2.660   2.400  18.332  0.00  0.00    +0.000 C 
BRANCH  19  22
ATOM     20  C   UNL     1       4.383   3.742  17.366  0.00  0.00    +0.000 C 
ATOM     21  O   UNL     1       5.124   3.554  18.327  0.00  0.00    +0.000 OA
ATOM     22  N   UNL     1       3.091   3.272  17.289  0.00  0.00    +0.000 N 
ATOM     23  H   UNL     1       2.656   3.194  16.380  0.00  0.00    +0.000 HD
BRANCH  20  24
ATOM     24  C   UNL     1       4.834   4.495  16.146  0.00  0.00    +0.000 C 
BRANCH  24  26
ATOM     25  C   UNL     1       6.134   3.974  14.069  0.00  0.00    +0.000 C 
ATOM     26  C   UNL     1       6.106   3.877  15.581  0.00  0.00    +0.000 C 
ENDBRANCH  24  26
ENDBRANCH  20  24
ENDBRANCH  19  22
ENDBRANCH  17  19
ENDBRANCH  16  18
ENDBRANCH  15  16
ENDBRANCH   1  15
TORSDOF 18
ENDMDL
MODEL 8
REMARK VINA RESULT:      -5.6      4.654      7.335
REMARK  Name = 
REMARK  19 active torsions:
REMARK  status: ('A' for Active; 'I' for Inactive)
REMARK    1  A    between atoms: C_1  and  C_2
REMARK    2  A    between atoms: C_2  and  C_3
REMARK    3  A    between atoms: C_3  and  C_4
REMARK    4  A    between atoms: N_6  and  C_7
REMARK    5  A    between atoms: C_7  and  C_8
REMARK    6  A    between atoms: C_9  and  C_10
REMARK    7  A    between atoms: C_10  and  C_11
REMARK    8  A    between atoms: C_11  and  C_12
REMARK    9  A    between atoms: C_12  and  C_13
REMARK   10  A    between atoms: C_13  and  C_14
REMARK   11  A    between atoms: C_14  and  C_15
REMARK   12  A    between atoms: C_15  and  C_16
REMARK   13  A    between atoms: C_16  and  C_17
REMARK   14  A    between atoms: C_17  and  C_18
REMARK   15  A    between atoms: C_18  and  C_19
REMARK   16  A    between atoms: C_19  and  C_20
REMARK   17  A    between atoms: C_20  and  C_21
REMARK   18  A    between atoms: C_21  and  C_22
REMARK   19  A    between atoms: C_22  and  O_24
REMARK                            x       y       z     vdW  Elec       q    Type
REMARK                         _______ _______ _______ _____ _____    ______ ____
ROOT
ATOM      1  C   UNL     1       6.043   5.126  17.745  0.00  0.00    +0.000 C 
ENDROOT
BRANCH   1   2
ATOM      2  C   UNL     1       4.590   5.454  17.427  0.00  0.00    +0.000 C 
BRANCH   2   3
ATOM      3  C   UNL     1       4.371   6.960  17.416  0.00  0.00    +0.000 C 
BRANCH   3   4
ATOM      4  C   UNL     1       3.003   7.328  17.945  0.00  0.00    +0.000 C 
BRANCH   4   5
ATOM      5  C   UNL     1       2.407   6.116  18.644  0.00  0.00    +0.000 C 
BRANCH   5   6
ATOM      6  C   UNL     1       2.244   6.399  20.124  0.00  0.00    +0.000 C 
BRANCH   6   7
ATOM      7  C   UNL     1       1.795   5.142  20.852  0.00  0.00    +0.000 C 
BRANCH   7   8
ATOM      8  C   UNL     1       1.245   4.134  19.855  0.00  0.00    +0.000 C 
BRANCH   8   9
ATOM      9  C   UNL     1       1.620   2.717  20.265  0.00  0.00    +0.000 C 
BRANCH   9  10
ATOM     10  C   UNL     1       2.200   1.956  19.083  0.00  0.00    +0.000 C 
BRANCH  10  11
ATOM     11  C   UNL     1       3.695   2.125  18.999  0.00  0.00    +0.000 C 
ATOM     12  O   UNL     1       4.406   2.335  19.963  0.00  0.00    +0.000 OA
BRANCH  11  13
ATOM     13  O   UNL     1       4.182   2.035  17.740  0.00  0.00    +0.000 OA
ATOM     14  H   UNL     1       5.160   2.069  17.692  0.00  0.00    +0.000 HD
ENDBRANCH  11  13
ENDBRANCH  10  11
ENDBRANCH   9  10
ENDBRANCH   8   9
ENDBRANCH   7   8
ENDBRANCH   6   7
ENDBRANCH   5   6
ENDBRANCH   4   5
ENDBRANCH   3   4
ENDBRANCH   2   3
ENDBRANCH   1   2
BRANCH   1  15
ATOM     15  C   UNL     1       7.030   5.761  16.765  0.00  0.00    +0.000 C 
BRANCH  15  16
ATOM     16  C   UNL     1       6.883   5.270  15.315  0.00  0.00    +0.000 C 
BRANCH  16  18
ATOM     17  C   UNL     1       6.055   3.268  14.037  0.00  0.00    +0.000 C 
ATOM     18  C   UNL     1       6.306   3.885  15.206  0.00  0.00    +0.000 C 
BRANCH  17  19
ATOM     19  C   UNL     1       6.319   3.881  12.705  0.00  0.00    +0.000 C 
BRANCH  19  22
ATOM     20  C   UNL     1       4.617   2.892  11.352  0.00  0.00    +0.000 C 
ATOM     21  O   UNL     1       5.232   1.832  11.283  0.00  0.00    +0.000 OA
ATOM     22  N   UNL     1       5.100   4.020  11.979  0.00  0.00    +0.000 N 
ATOM     23  H   UNL     1       4.444   4.735  12.263  0.00  0.00    +0.000 HD
BRANCH  20  24
ATOM     24  C   UNL     1       3.241   3.057  10.770  0.00  0.00    +0.000 C 
BRANCH  24  26
ATOM     25  C   UNL     1       2.163   4.850   9.393  0.00  0.00    +0.000 C 
ATOM     26  C   UNL     1       3.304   3.857   9.476  0.00  0.00    +0.000 C 
ENDBRANCH  24  26
ENDBRANCH  20  24
ENDBRANCH  19  22
ENDBRANCH  17  19
ENDBRANCH  16  18
ENDBRANCH  15  16
ENDBRANCH   1  15
TORSDOF 18
ENDMDL
MODEL 9
REMARK VINA RESULT:      -5.5      5.569      8.786
REMARK  Name = 
REMARK  19 active torsions:
REMARK  status: ('A' for Active; 'I' for Inactive)
REMARK    1  A    between atoms: C_1  and  C_2
REMARK    2  A    between atoms: C_2  and  C_3
REMARK    3  A    between atoms: C_3  and  C_4
REMARK    4  A    between atoms: N_6  and  C_7
REMARK    5  A    between atoms: C_7  and  C_8
REMARK    6  A    between atoms: C_9  and  C_10
REMARK    7  A    between atoms: C_10  and  C_11
REMARK    8  A    between atoms: C_11  and  C_12
REMARK    9  A    between atoms: C_12  and  C_13
REMARK   10  A    between atoms: C_13  and  C_14
REMARK   11  A    between atoms: C_14  and  C_15
REMARK   12  A    between atoms: C_15  and  C_16
REMARK   13  A    between atoms: C_16  and  C_17
REMARK   14  A    between atoms: C_17  and  C_18
REMARK   15  A    between atoms: C_18  and  C_19
REMARK   16  A    between atoms: C_19  and  C_20
REMARK   17  A    between atoms: C_20  and  C_21
REMARK   18  A    between atoms: C_21  and  C_22
REMARK   19  A    between atoms: C_22  and  O_24
REMARK                            x       y       z     vdW  Elec       q    Type
REMARK                         _______ _______ _______ _____ _____    ______ ____
ROOT
ATOM      1  C   UNL     1       6.150   7.377  17.392  0.00  0.00    +0.000 C 
ENDROOT
BRANCH   1   2
ATOM      2  C   UNL     1       5.397   6.377  16.524  0.00  0.00    +0.000 C 
BRANCH   2   3
ATOM      3  C   UNL     1       6.241   5.134  16.286  0.00  0.00    +0.000 C 
BRANCH   3   4
ATOM      4  C   UNL     1       5.385   3.893  16.166  0.00  0.00    +0.000 C 
BRANCH   4   5
ATOM      5  C   UNL     1       4.035   4.166  16.811  0.00  0.00    +0.000 C 
BRANCH   5   6
ATOM      6  C   UNL     1       3.754   3.134  17.884  0.00  0.00    +0.000 C 
BRANCH   6   7
ATOM      7  C   UNL     1       2.619   2.221  17.450  0.00  0.00    +0.000 C 
BRANCH   7   8
ATOM      8  C   UNL     1       1.508   2.245  18.487  0.00  0.00    +0.000 C 
BRANCH   8   9
ATOM      9  C   UNL     1       1.321   3.652  19.039  0.00  0.00    +0.000 C 
BRANCH   9  10
ATOM     10  C   UNL     1       0.892   3.600  20.497  0.00  0.00    +0.000 C 
BRANCH  10  11
ATOM     11  C   UNL     1       2.060   3.820  21.423  0.00  0.00    +0.000 C 
ATOM     12  O   UNL     1       2.418   3.014  22.261  0.00  0.00    +0.000 OA
BRANCH  11  13
ATOM     13  O   UNL     1       2.675   5.012  21.250  0.00  0.00    +0.000 OA
ATOM     14  H   UNL     1       2.274   5.564  20.547  0.00  0.00    +0.000 HD
ENDBRANCH  11  13
ENDBRANCH  10  11
ENDBRANCH   9  10
ENDBRANCH   8   9
ENDBRANCH   7   8
ENDBRANCH   6   7
ENDBRANCH   5   6
ENDBRANCH   4   5
ENDBRANCH   3   4
ENDBRANCH   2   3
ENDBRANCH   1   2
BRANCH   1  15
ATOM     15  C   UNL     1       7.404   6.788  18.038  0.00  0.00    +0.000 C 
BRANCH  15  16
ATOM     16  C   UNL     1       8.476   7.831  18.398  0.00  0.00    +0.000 C 
BRANCH  16  18
ATOM     17  C   UNL     1       8.684  10.337  18.402  0.00  0.00    +0.000 C 
ATOM     18  C   UNL     1       8.171   9.209  17.878  0.00  0.00    +0.000 C 
BRANCH  17  19
ATOM     19  C   UNL     1       9.619  10.361  19.562  0.00  0.00    +0.000 C 
BRANCH  19  22
ATOM     20  C   UNL     1      11.262  12.088  19.701  0.00  0.00    +0.000 C 
ATOM     21  O   UNL     1      12.161  11.313  19.383  0.00  0.00    +0.000 OA
ATOM     22  N   UNL     1       9.953  11.706  19.895  0.00  0.00    +0.000 N 
ATOM     23  H   UNL     1       9.230  12.412  19.851  0.00  0.00    +0.000 HD
BRANCH  20  24
ATOM     24  C   UNL     1      11.505  13.560  19.886  0.00  0.00    +0.000 C 
BRANCH  24  26
ATOM     25  C   UNL     1      10.227  15.496  20.829  0.00  0.00    +0.000 C 
ATOM     26  C   UNL     1      10.186  14.320  19.875  0.00  0.00    +0.000 C 
ENDBRANCH  24  26
ENDBRANCH  20  24
ENDBRANCH  19  22
ENDBRANCH  17  19
ENDBRANCH  16  18
ENDBRANCH  15  16
ENDBRANCH   1  15
TORSDOF 18
ENDMDL
