MODEL 1
REMARK VINA RESULT:      -5.9      0.000      0.000
REMARK  Name = 
REMARK  6 active torsions:
REMARK  status: ('A' for Active; 'I' for Inactive)
REMARK    1  A    between atoms: C_2  and  C_3
REMARK    2  A    between atoms: C_3  and  C_4
REMARK    3  A    between atoms: C_4  and  C_5
REMARK    4  A    between atoms: C_5  and  C_6
REMARK    5  A    between atoms: C_10  and  C_11
REMARK    6  A    between atoms: C_12  and  O_13
REMARK                            x       y       z     vdW  Elec       q    Type
REMARK                         _______ _______ _______ _____ _____    ______ ____
ROOT
ATOM      1  C   UNL     1       4.924   4.927  16.932  0.00  0.00    +0.000 C 
ATOM      2  C   UNL     1       3.472   4.769  17.395  0.00  0.00    +0.000 C 
ATOM      3  S   UNL     1       5.147   6.658  16.349  0.00  0.00    +0.000 S 
ATOM      4  C   UNL     1       6.640   6.859  17.239  0.00  0.00    +0.000 C 
ATOM      5  O   UNL     1       7.424   7.771  17.049  0.00  0.00    +0.000 OA
ATOM      6  C   UNL     1       6.823   5.780  18.231  0.00  0.00    +0.000 C 
ATOM      7  C   UNL     1       7.965   5.820  19.182  0.00  0.00    +0.000 C 
ATOM      8  C   UNL     1       5.907   4.813  18.079  0.00  0.00    +0.000 C 
ENDROOT
BRANCH   8   9
ATOM      9  O   UNL     1       5.830   3.680  18.857  0.00  0.00    +0.000 OA
ATOM     10  H   UNL     1       6.613   3.622  19.431  0.00  0.00    +0.000 HD
ENDBRANCH   8   9
BRANCH   1  11
ATOM     11  C   UNL     1       5.250   3.922  15.796  0.00  0.00    +0.000 C 
BRANCH  11  12
ATOM     12  C   UNL     1       5.944   4.531  14.563  0.00  0.00    +0.000 C 
BRANCH  12  14
ATOM     13  C   UNL     1       6.664   3.788  12.289  0.00  0.00    +0.000 C 
ATOM     14  C   UNL     1       5.890   3.625  13.368  0.00  0.00    +0.000 C 
ENDBRANCH  12  14
ENDBRANCH  11  12
ENDBRANCH   1  11
TORSDOF 4
ENDMDL
MODEL 2
REMARK VINA RESULT:      -5.9      2.493      3.821
REMARK  Name = 
REMARK  6 active torsions:
REMARK  status: ('A' for Active; 'I' for Inactive)
REMARK    1  A    between atoms: C_2  and  C_3
REMARK    2  A    between atoms: C_3  and  C_4
REMARK    3  A    between atoms: C_4  and  C_5
REMARK    4  A    between atoms: C_5  and  C_6
REMARK    5  A    between atoms: C_10  and  C_11
REMARK    6  A    between atoms: C_12  and  O_13
REMARK                            x       y       z     vdW  Elec       q    Type
REMARK                         _______ _______ _______ _____ _____    ______ ____
ROOT
ATOM      1  C   UNL     1       3.872   5.049  18.409  0.00  0.00    +0.000 C 
ATOM      2  C   UNL     1       3.255   5.347  19.780  0.00  0.00    +0.000 C 
ATOM      3  S   UNL     1       4.135   6.653  17.548  0.00  0.00    +0.000 S 
ATOM      4  C   UNL     1       5.764   6.230  17.070  0.00  0.00    +0.000 C 
ATOM      5  O   UNL     1       6.401   6.834  16.225  0.00  0.00    +0.000 OA
ATOM      6  C   UNL     1       6.252   5.049  17.810  0.00  0.00    +0.000 C 
ATOM      7  C   UNL     1       7.656   4.588  17.650  0.00  0.00    +0.000 C 
ATOM      8  C   UNL     1       5.271   4.477  18.523  0.00  0.00    +0.000 C 
ENDROOT
BRANCH   8   9
ATOM      9  O   UNL     1       5.425   3.359  19.310  0.00  0.00    +0.000 OA
ATOM     10  H   UNL     1       5.615   3.626  20.226  0.00  0.00    +0.000 HD
ENDBRANCH   8   9
BRANCH   1  11
ATOM     11  C   UNL     1       2.942   4.128  17.576  0.00  0.00    +0.000 C 
BRANCH  11  12
ATOM     12  C   UNL     1       1.477   4.077  18.050  0.00  0.00    +0.000 C 
BRANCH  12  14
ATOM     13  C   UNL     1       1.841   1.975  19.349  0.00  0.00    +0.000 C 
ATOM     14  C   UNL     1       1.078   2.716  18.538  0.00  0.00    +0.000 C 
ENDBRANCH  12  14
ENDBRANCH  11  12
ENDBRANCH   1  11
TORSDOF 4
ENDMDL
MODEL 3
REMARK VINA RESULT:      -5.7      2.528      4.029
REMARK  Name = 
REMARK  6 active torsions:
REMARK  status: ('A' for Active; 'I' for Inactive)
REMARK    1  A    between atoms: C_2  and  C_3
REMARK    2  A    between atoms: C_3  and  C_4
REMARK    3  A    between atoms: C_4  and  C_5
REMARK    4  A    between atoms: C_5  and  C_6
REMARK    5  A    between atoms: C_10  and  C_11
REMARK    6  A    between atoms: C_12  and  O_13
REMARK                            x       y       z     vdW  Elec       q    Type
REMARK                         _______ _______ _______ _____ _____    ______ ____
ROOT
ATOM      1  C   UNL     1       4.314   4.332  17.880  0.00  0.00    +0.000 C 
ATOM      2  C   UNL     1       3.058   5.148  17.556  0.00  0.00    +0.000 C 
ATOM      3  S   UNL     1       5.290   4.157  16.330  0.00  0.00    +0.000 S 
ATOM      4  C   UNL     1       6.789   4.589  17.122  0.00  0.00    +0.000 C 
ATOM      5  O   UNL     1       7.890   4.409  16.632  0.00  0.00    +0.000 OA
ATOM      6  C   UNL     1       6.543   5.183  18.451  0.00  0.00    +0.000 C 
ATOM      7  C   UNL     1       7.671   5.735  19.248  0.00  0.00    +0.000 C 
ATOM      8  C   UNL     1       5.256   5.073  18.807  0.00  0.00    +0.000 C 
ENDROOT
BRANCH   8   9
ATOM      9  O   UNL     1       4.730   5.533  19.993  0.00  0.00    +0.000 OA
ATOM     10  H   UNL     1       3.770   5.660  19.899  0.00  0.00    +0.000 HD
ENDBRANCH   8   9
BRANCH   1  11
ATOM     11  C   UNL     1       3.933   2.938  18.446  0.00  0.00    +0.000 C 
BRANCH  11  12
ATOM     12  C   UNL     1       2.600   2.365  17.929  0.00  0.00    +0.000 C 
BRANCH  12  14
ATOM     13  C   UNL     1       1.240   2.938  19.945  0.00  0.00    +0.000 C 
ATOM     14  C   UNL     1       1.645   2.040  19.040  0.00  0.00    +0.000 C 
ENDBRANCH  12  14
ENDBRANCH  11  12
ENDBRANCH   1  11
TORSDOF 4
ENDMDL
MODEL 4
REMARK VINA RESULT:      -5.7      2.466      4.489
REMARK  Name = 
REMARK  6 active torsions:
REMARK  status: ('A' for Active; 'I' for Inactive)
REMARK    1  A    between atoms: C_2  and  C_3
REMARK    2  A    between atoms: C_3  and  C_4
REMARK    3  A    between atoms: C_4  and  C_5
REMARK    4  A    between atoms: C_5  and  C_6
REMARK    5  A    between atoms: C_10  and  C_11
REMARK    6  A    between atoms: C_12  and  O_13
REMARK                            x       y       z     vdW  Elec       q    Type
REMARK                         _______ _______ _______ _____ _____    ______ ____
ROOT
ATOM      1  C   UNL     1       4.538   5.105  17.579  0.00  0.00    +0.000 C 
ATOM      2  C   UNL     1       4.218   4.053  16.511  0.00  0.00    +0.000 C 
ATOM      3  S   UNL     1       5.363   4.250  18.984  0.00  0.00    +0.000 S 
ATOM      4  C   UNL     1       6.625   5.457  19.091  0.00  0.00    +0.000 C 
ATOM      5  O   UNL     1       7.379   5.566  20.042  0.00  0.00    +0.000 OA
ATOM      6  C   UNL     1       6.645   6.322  17.895  0.00  0.00    +0.000 C 
ATOM      7  C   UNL     1       7.716   7.338  17.720  0.00  0.00    +0.000 C 
ATOM      8  C   UNL     1       5.581   6.099  17.110  0.00  0.00    +0.000 C 
ENDROOT
BRANCH   8   9
ATOM      9  O   UNL     1       5.329   6.757  15.928  0.00  0.00    +0.000 OA
ATOM     10  H   UNL     1       4.811   6.184  15.337  0.00  0.00    +0.000 HD
ENDBRANCH   8   9
BRANCH   1  11
ATOM     11  C   UNL     1       3.243   5.815  18.056  0.00  0.00    +0.000 C 
BRANCH  11  12
ATOM     12  C   UNL     1       2.749   5.402  19.455  0.00  0.00    +0.000 C 
BRANCH  12  14
ATOM     13  C   UNL     1       1.069   3.865  20.482  0.00  0.00    +0.000 C 
ATOM     14  C   UNL     1       1.598   4.442  19.398  0.00  0.00    +0.000 C 
ENDBRANCH  12  14
ENDBRANCH  11  12
ENDBRANCH   1  11
TORSDOF 4
ENDMDL
MODEL 5
REMARK VINA RESULT:      -5.7      2.161      4.456
REMARK  Name = 
REMARK  6 active torsions:
REMARK  status: ('A' for Active; 'I' for Inactive)
REMARK    1  A    between atoms: C_2  and  C_3
REMARK    2  A    between atoms: C_3  and  C_4
REMARK    3  A    between atoms: C_4  and  C_5
REMARK    4  A    between atoms: C_5  and  C_6
REMARK    5  A    between atoms: C_10  and  C_11
REMARK    6  A    between atoms: C_12  and  O_13
REMARK                            x       y       z     vdW  Elec       q    Type
REMARK                         _______ _______ _______ _____ _____    ______ ____
ROOT
ATOM      1  C   UNL     1       3.886   4.962  18.140  0.00  0.00    +0.000 C 
ATOM      2  C   UNL     1       4.348   4.805  19.593  0.00  0.00    +0.000 C 
ATOM      3  S   UNL     1       4.348   6.653  17.580  0.00  0.00    +0.000 S 
ATOM      4  C   UNL     1       5.017   6.066  16.073  0.00  0.00    +0.000 C 
ATOM      5  O   UNL     1       5.280   6.783  15.124  0.00  0.00    +0.000 OA
ATOM      6  C   UNL     1       5.208   4.602  16.104  0.00  0.00    +0.000 C 
ATOM      7  C   UNL     1       5.879   3.908  14.974  0.00  0.00    +0.000 C 
ATOM      8  C   UNL     1       4.650   4.057  17.195  0.00  0.00    +0.000 C 
ENDROOT
BRANCH   8   9
ATOM      9  O   UNL     1       4.665   2.713  17.493  0.00  0.00    +0.000 OA
ATOM     10  H   UNL     1       4.662   2.195  16.670  0.00  0.00    +0.000 HD
ENDBRANCH   8   9
BRANCH   1  11
ATOM     11  C   UNL     1       2.354   4.748  18.024  0.00  0.00    +0.000 C 
BRANCH  11  12
ATOM     12  C   UNL     1       1.606   4.635  19.366  0.00  0.00    +0.000 C 
BRANCH  12  14
ATOM     13  C   UNL     1       1.072   2.294  18.675  0.00  0.00    +0.000 C 
ATOM     14  C   UNL     1       1.045   3.263  19.597  0.00  0.00    +0.000 C 
ENDBRANCH  12  14
ENDBRANCH  11  12
ENDBRANCH   1  11
TORSDOF 4
ENDMDL
MODEL 6
REMARK VINA RESULT:      -5.6      2.353      3.837
REMARK  Name = 
REMARK  6 active torsions:
REMARK  status: ('A' for Active; 'I' for Inactive)
REMARK    1  A    between atoms: C_2  and  C_3
REMARK    2  A    between atoms: C_3  and  C_4
REMARK    3  A    between atoms: C_4  and  C_5
REMARK    4  A    between atoms: C_5  and  C_6
REMARK    5  A    between atoms: C_10  and  C_11
REMARK    6  A    between atoms: C_12  and  O_13
REMARK                            x       y       z     vdW  Elec       q    Type
REMARK                         _______ _______ _______ _____ _____    ______ ____
ROOT
ATOM      1  C   UNL     1       4.133   5.869  17.640  0.00  0.00    +0.000 C 
ATOM      2  C   UNL     1       3.080   6.905  18.051  0.00  0.00    +0.000 C 
ATOM      3  S   UNL     1       5.010   6.512  16.156  0.00  0.00    +0.000 S 
ATOM      4  C   UNL     1       6.586   6.128  16.812  0.00  0.00    +0.000 C 
ATOM      5  O   UNL     1       7.608   6.105  16.150  0.00  0.00    +0.000 OA
ATOM      6  C   UNL     1       6.508   5.827  18.256  0.00  0.00    +0.000 C 
ATOM      7  C   UNL     1       7.747   5.593  19.042  0.00  0.00    +0.000 C 
ATOM      8  C   UNL     1       5.236   5.735  18.670  0.00  0.00    +0.000 C 
ENDROOT
BRANCH   8   9
ATOM      9  O   UNL     1       4.852   5.461  19.963  0.00  0.00    +0.000 OA
ATOM     10  H   UNL     1       5.268   4.634  20.260  0.00  0.00    +0.000 HD
ENDBRANCH   8   9
BRANCH   1  11
ATOM     11  C   UNL     1       3.467   4.503  17.332  0.00  0.00    +0.000 C 
BRANCH  11  12
ATOM     12  C   UNL     1       2.018   4.352  17.834  0.00  0.00    +0.000 C 
BRANCH  12  14
ATOM     13  C   UNL     1       0.924   3.674  19.976  0.00  0.00    +0.000 C 
ATOM     14  C   UNL     1       1.930   3.554  19.101  0.00  0.00    +0.000 C 
ENDBRANCH  12  14
ENDBRANCH  11  12
ENDBRANCH   1  11
TORSDOF 4
ENDMDL
MODEL 7
REMARK VINA RESULT:      -5.6      2.855      4.856
REMARK  Name = 
REMARK  6 active torsions:
REMARK  status: ('A' for Active; 'I' for Inactive)
REMARK    1  A    between atoms: C_2  and  C_3
REMARK    2  A    between atoms: C_3  and  C_4
REMARK    3  A    between atoms: C_4  and  C_5
REMARK    4  A    between atoms: C_5  and  C_6
REMARK    5  A    between atoms: C_10  and  C_11
REMARK    6  A    between atoms: C_12  and  O_13
REMARK                            x       y       z     vdW  Elec       q    Type
REMARK                         _______ _______ _______ _____ _____    ______ ____
ROOT
ATOM      1  C   UNL     1       3.801   3.989  18.365  0.00  0.00    +0.000 C 
ATOM      2  C   UNL     1       4.593   3.186  19.403  0.00  0.00    +0.000 C 
ATOM      3  S   UNL     1       3.306   5.582  19.140  0.00  0.00    +0.000 S 
ATOM      4  C   UNL     1       3.816   6.517  17.751  0.00  0.00    +0.000 C 
ATOM      5  O   UNL     1       3.506   7.681  17.567  0.00  0.00    +0.000 OA
ATOM      6  C   UNL     1       4.653   5.712  16.839  0.00  0.00    +0.000 C 
ATOM      7  C   UNL     1       5.296   6.342  15.657  0.00  0.00    +0.000 C 
ATOM      8  C   UNL     1       4.662   4.419  17.195  0.00  0.00    +0.000 C 
ENDROOT
BRANCH   8   9
ATOM      9  O   UNL     1       5.352   3.430  16.531  0.00  0.00    +0.000 OA
ATOM     10  H   UNL     1       4.998   2.559  16.781  0.00  0.00    +0.000 HD
ENDBRANCH   8   9
BRANCH   1  11
ATOM     11  C   UNL     1       2.551   3.198  17.896  0.00  0.00    +0.000 C 
BRANCH  11  12
ATOM     12  C   UNL     1       1.223   3.626  18.550  0.00  0.00    +0.000 C 
BRANCH  12  14
ATOM     13  C   UNL     1       1.189   2.995  20.967  0.00  0.00    +0.000 C 
ATOM     14  C   UNL     1       0.839   2.744  19.700  0.00  0.00    +0.000 C 
ENDBRANCH  12  14
ENDBRANCH  11  12
ENDBRANCH   1  11
TORSDOF 4
ENDMDL
MODEL 8
REMARK VINA RESULT:      -5.6      3.123      5.274
REMARK  Name = 
REMARK  6 active torsions:
REMARK  status: ('A' for Active; 'I' for Inactive)
REMARK    1  A    between atoms: C_2  and  C_3
REMARK    2  A    between atoms: C_3  and  C_4
REMARK    3  A    between atoms: C_4  and  C_5
REMARK    4  A    between atoms: C_5  and  C_6
REMARK    5  A    between atoms: C_10  and  C_11
REMARK    6  A    between atoms: C_12  and  O_13
REMARK                            x       y       z     vdW  Elec       q    Type
REMARK                         _______ _______ _______ _____ _____    ______ ____
ROOT
ATOM      1  C   UNL     1       2.965   4.786  18.597  0.00  0.00    +0.000 C 
ATOM      2  C   UNL     1       1.750   4.379  17.756  0.00  0.00    +0.000 C 
ATOM      3  S   UNL     1       4.216   3.444  18.469  0.00  0.00    +0.000 S 
ATOM      4  C   UNL     1       5.521   4.569  18.165  0.00  0.00    +0.000 C 
ATOM      5  O   UNL     1       6.701   4.273  18.234  0.00  0.00    +0.000 OA
ATOM      6  C   UNL     1       5.005   5.912  17.829  0.00  0.00    +0.000 C 
ATOM      7  C   UNL     1       5.938   6.992  17.415  0.00  0.00    +0.000 C 
ATOM      8  C   UNL     1       3.681   5.991  18.023  0.00  0.00    +0.000 C 
ENDROOT
BRANCH   8   9
ATOM      9  O   UNL     1       2.924   7.119  17.798  0.00  0.00    +0.000 OA
ATOM     10  H   UNL     1       3.459   7.912  17.971  0.00  0.00    +0.000 HD
ENDBRANCH   8   9
BRANCH   1  11
ATOM     11  C   UNL     1       2.557   5.013  20.077  0.00  0.00    +0.000 C 
BRANCH  11  12
ATOM     12  C   UNL     1       1.179   4.447  20.470  0.00  0.00    +0.000 C 
BRANCH  12  14
ATOM     13  C   UNL     1       2.445   2.654  21.664  0.00  0.00    +0.000 C 
ATOM     14  C   UNL     1       1.283   3.162  21.236  0.00  0.00    +0.000 C 
ENDBRANCH  12  14
ENDBRANCH  11  12
ENDBRANCH   1  11
TORSDOF 4
ENDMDL
MODEL 9
REMARK VINA RESULT:      -5.6      3.622      6.038
REMARK  Name = 
REMARK  6 active torsions:
REMARK  status: ('A' for Active; 'I' for Inactive)
REMARK    1  A    between atoms: C_2  and  C_3
REMARK    2  A    between atoms: C_3  and  C_4
REMARK    3  A    between atoms: C_4  and  C_5
REMARK    4  A    between atoms: C_5  and  C_6
REMARK    5  A    between atoms: C_10  and  C_11
REMARK    6  A    between atoms: C_12  and  O_13
REMARK                            x       y       z     vdW  Elec       q    Type
REMARK                         _______ _______ _______ _____ _____    ______ ____
ROOT
ATOM      1  C   UNL     1       3.457   4.954  18.531  0.00  0.00    +0.000 C 
ATOM      2  C   UNL     1       4.148   5.958  17.601  0.00  0.00    +0.000 C 
ATOM      3  S   UNL     1       1.814   4.552  17.808  0.00  0.00    +0.000 S 
ATOM      4  C   UNL     1       2.035   2.832  18.037  0.00  0.00    +0.000 C 
ATOM      5  O   UNL     1       1.133   2.017  17.962  0.00  0.00    +0.000 OA
ATOM      6  C   UNL     1       3.443   2.508  18.343  0.00  0.00    +0.000 C 
ATOM      7  C   UNL     1       3.880   1.091  18.455  0.00  0.00    +0.000 C 
ATOM      8  C   UNL     1       4.167   3.616  18.557  0.00  0.00    +0.000 C 
ENDROOT
BRANCH   8   9
ATOM      9  O   UNL     1       5.508   3.626  18.866  0.00  0.00    +0.000 OA
ATOM     10  H   UNL     1       6.004   3.134  18.189  0.00  0.00    +0.000 HD
ENDBRANCH   8   9
BRANCH   1  11
ATOM     11  C   UNL     1       3.297   5.546  19.956  0.00  0.00    +0.000 C 
BRANCH  11  12
ATOM     12  C   UNL     1       2.025   5.108  20.707  0.00  0.00    +0.000 C 
BRANCH  12  14
ATOM     13  C   UNL     1       1.481   2.822  21.555  0.00  0.00    +0.000 C 
ATOM     14  C   UNL     1       2.257   3.912  21.581  0.00  0.00    +0.000 C 
ENDBRANCH  12  14
ENDBRANCH  11  12
ENDBRANCH   1  11
TORSDOF 4
ENDMDL
