MODEL 1
REMARK VINA RESULT:      -7.9      0.000      0.000
REMARK  Name = 
REMARK  5 active torsions:
REMARK  status: ('A' for Active; 'I' for Inactive)
REMARK    1  A    between atoms: C_2  and  C_3
REMARK    2  A    between atoms: C_3  and  N_4
REMARK    3  A    between atoms: C_13  and  N_14
REMARK    4  A    between atoms: N_21  and  C_22
REMARK    5  A    between atoms: C_22  and  C_23
REMARK                            x       y       z     vdW  Elec       q    Type
REMARK                         _______ _______ _______ _____ _____    ______ ____
ROOT
ATOM      1  N   UNL     1       5.935   6.104  16.448  0.00  0.00    +0.000 N 
ATOM      2  C   UNL     1       6.640   5.095  15.807  0.00  0.00    +0.000 C 
ATOM      3  O   UNL     1       7.728   5.264  15.255  0.00  0.00    +0.000 OA
ATOM      4  C   UNL     1       5.966   3.730  15.779  0.00  0.00    +0.000 C 
ATOM      5  O   UNL     1       4.915   3.423  16.667  0.00  0.00    +0.000 OA
ATOM      6  C   UNL     1       4.225   4.503  17.134  0.00  0.00    +0.000 A 
ATOM      7  C   UNL     1       3.015   4.190  17.757  0.00  0.00    +0.000 A 
ATOM      8  C   UNL     1       2.245   5.194  18.329  0.00  0.00    +0.000 A 
ATOM      9  F   UNL     1       1.125   4.839  18.976  0.00  0.00    +0.000 F 
ATOM     10  C   UNL     1       2.686   6.519  18.328  0.00  0.00    +0.000 A 
ATOM     11  C   UNL     1       3.902   6.824  17.683  0.00  0.00    +0.000 A 
ATOM     12  C   UNL     1       4.687   5.826  17.075  0.00  0.00    +0.000 A 
ENDROOT
BRANCH  10  13
ATOM     13  N   UNL     1       1.962   7.520  19.034  0.00  0.00    +0.000 N 
ATOM     14  N   UNL     1       1.716   7.232  20.386  0.00  0.00    +0.000 NA
ATOM     15  N   UNL     1       1.121   8.061  21.134  0.00  0.00    +0.000 NA
ATOM     16  C   UNL     1       0.827   9.271  20.619  0.00  0.00    +0.000 A 
ATOM     17  C   UNL     1       1.065   9.682  19.341  0.00  0.00    +0.000 A 
ATOM     18  C   UNL     1       0.675  11.021  19.287  0.00  0.00    +0.000 A 
ATOM     19  N   UNL     1       0.171  11.437  20.456  0.00  0.00    +0.000 NA
ATOM     20  N   UNL     1       0.271  10.343  21.262  0.00  0.00    +0.000 N 
ATOM     21  C   UNL     1       1.666   8.759  18.433  0.00  0.00    +0.000 A 
ATOM     22  O   UNL     1       1.921   9.074  17.272  0.00  0.00    +0.000 OA
BRANCH  20  23
ATOM     23  C   UNL     1      -0.110  10.447  22.664  0.00  0.00    +0.000 C 
BRANCH  23  24
ATOM     24  C   UNL     1      -0.928  11.678  22.951  0.00  0.00    +0.000 C 
ATOM     25  C   UNL     1      -2.226  11.667  23.281  0.00  0.00    +0.000 C 
ENDBRANCH  23  24
ENDBRANCH  20  23
ENDBRANCH  10  13
BRANCH   1  26
ATOM     26  C   UNL     1       6.561   7.417  16.497  0.00  0.00    +0.000 C 
BRANCH  26  28
ATOM     27  C   UNL     1       8.424   7.648  18.607  0.00  0.00    +0.000 C 
ATOM     28  C   UNL     1       7.565   7.542  17.633  0.00  0.00    +0.000 C 
ENDBRANCH  26  28
ENDBRANCH   1  26
TORSDOF 5
ENDMDL
MODEL 2
REMARK VINA RESULT:      -7.5      1.491      2.017
REMARK  Name = 
REMARK  5 active torsions:
REMARK  status: ('A' for Active; 'I' for Inactive)
REMARK    1  A    between atoms: C_2  and  C_3
REMARK    2  A    between atoms: C_3  and  N_4
REMARK    3  A    between atoms: C_13  and  N_14
REMARK    4  A    between atoms: N_21  and  C_22
REMARK    5  A    between atoms: C_22  and  C_23
REMARK                            x       y       z     vdW  Elec       q    Type
REMARK                         _______ _______ _______ _____ _____    ______ ____
ROOT
ATOM      1  N   UNL     1       6.053   5.913  16.362  0.00  0.00    +0.000 N 
ATOM      2  C   UNL     1       6.677   4.844  15.736  0.00  0.00    +0.000 C 
ATOM      3  O   UNL     1       7.792   4.912  15.214  0.00  0.00    +0.000 OA
ATOM      4  C   UNL     1       5.881   3.548  15.682  0.00  0.00    +0.000 C 
ATOM      5  O   UNL     1       4.781   3.338  16.540  0.00  0.00    +0.000 OA
ATOM      6  C   UNL     1       4.182   4.477  16.993  0.00  0.00    +0.000 A 
ATOM      7  C   UNL     1       2.932   4.276  17.581  0.00  0.00    +0.000 A 
ATOM      8  C   UNL     1       2.243   5.346  18.136  0.00  0.00    +0.000 A 
ATOM      9  F   UNL     1       1.077   5.096  18.751  0.00  0.00    +0.000 F 
ATOM     10  C   UNL     1       2.805   6.625  18.154  0.00  0.00    +0.000 A 
ATOM     11  C   UNL     1       4.061   6.817  17.544  0.00  0.00    +0.000 A 
ATOM     12  C   UNL     1       4.767   5.751  16.953  0.00  0.00    +0.000 A 
ENDROOT
BRANCH  10  13
ATOM     13  N   UNL     1       2.158   7.688  18.845  0.00  0.00    +0.000 N 
ATOM     14  N   UNL     1       1.748   8.759  18.035  0.00  0.00    +0.000 NA
ATOM     15  N   UNL     1       1.122   9.744  18.523  0.00  0.00    +0.000 NA
ATOM     16  C   UNL     1       0.769   9.682  19.821  0.00  0.00    +0.000 A 
ATOM     17  C   UNL     1       1.063   8.673  20.689  0.00  0.00    +0.000 A 
ATOM     18  C   UNL     1       0.427   8.998  21.889  0.00  0.00    +0.000 A 
ATOM     19  N   UNL     1      -0.205  10.176  21.810  0.00  0.00    +0.000 NA
ATOM     20  N   UNL     1       0.020  10.582  20.530  0.00  0.00    +0.000 N 
ATOM     21  C   UNL     1       1.833   7.571  20.211  0.00  0.00    +0.000 A 
ATOM     22  O   UNL     1       2.118   6.622  20.939  0.00  0.00    +0.000 OA
BRANCH  20  23
ATOM     23  C   UNL     1      -0.601  11.809  20.046  0.00  0.00    +0.000 C 
BRANCH  23  24
ATOM     24  C   UNL     1      -1.853  11.548  19.252  0.00  0.00    +0.000 C 
ATOM     25  C   UNL     1      -1.939  11.641  17.919  0.00  0.00    +0.000 C 
ENDBRANCH  23  24
ENDBRANCH  20  23
ENDBRANCH  10  13
BRANCH   1  26
ATOM     26  C   UNL     1       6.796   7.162  16.435  0.00  0.00    +0.000 C 
BRANCH  26  28
ATOM     27  C   UNL     1       8.334   7.367  18.794  0.00  0.00    +0.000 C 
ATOM     28  C   UNL     1       7.625   7.273  17.705  0.00  0.00    +0.000 C 
ENDBRANCH  26  28
ENDBRANCH   1  26
TORSDOF 5
ENDMDL
MODEL 3
REMARK VINA RESULT:      -7.4      2.523      4.219
REMARK  Name = 
REMARK  5 active torsions:
REMARK  status: ('A' for Active; 'I' for Inactive)
REMARK    1  A    between atoms: C_2  and  C_3
REMARK    2  A    between atoms: C_3  and  N_4
REMARK    3  A    between atoms: C_13  and  N_14
REMARK    4  A    between atoms: N_21  and  C_22
REMARK    5  A    between atoms: C_22  and  C_23
REMARK                            x       y       z     vdW  Elec       q    Type
REMARK                         _______ _______ _______ _____ _____    ______ ____
ROOT
ATOM      1  N   UNL     1       2.403   3.805  18.328  0.00  0.00    +0.000 N 
ATOM      2  C   UNL     1       3.230   2.804  17.838  0.00  0.00    +0.000 C 
ATOM      3  O   UNL     1       2.974   1.601  17.924  0.00  0.00    +0.000 OA
ATOM      4  C   UNL     1       4.533   3.269  17.204  0.00  0.00    +0.000 C 
ATOM      5  O   UNL     1       4.699   4.608  16.790  0.00  0.00    +0.000 OA
ATOM      6  C   UNL     1       3.907   5.510  17.437  0.00  0.00    +0.000 A 
ATOM      7  C   UNL     1       4.281   6.843  17.254  0.00  0.00    +0.000 A 
ATOM      8  C   UNL     1       3.521   7.863  17.809  0.00  0.00    +0.000 A 
ATOM      9  F   UNL     1       3.879   9.130  17.550  0.00  0.00    +0.000 F 
ATOM     10  C   UNL     1       2.354   7.577  18.521  0.00  0.00    +0.000 A 
ATOM     11  C   UNL     1       1.996   6.227  18.712  0.00  0.00    +0.000 A 
ATOM     12  C   UNL     1       2.764   5.175  18.179  0.00  0.00    +0.000 A 
ENDROOT
BRANCH  10  13
ATOM     13  N   UNL     1       1.507   8.629  18.970  0.00  0.00    +0.000 N 
ATOM     14  N   UNL     1       0.830   9.320  17.952  0.00  0.00    +0.000 NA
ATOM     15  N   UNL     1       0.013  10.247  18.224  0.00  0.00    +0.000 NA
ATOM     16  C   UNL     1      -0.266  10.476  19.521  0.00  0.00    +0.000 A 
ATOM     17  C   UNL     1       0.286   9.835  20.590  0.00  0.00    +0.000 A 
ATOM     18  C   UNL     1      -0.361  10.340  21.720  0.00  0.00    +0.000 A 
ATOM     19  N   UNL     1      -1.250  11.288  21.398  0.00  0.00    +0.000 NA
ATOM     20  N   UNL     1      -1.174  11.359  20.040  0.00  0.00    +0.000 N 
ATOM     21  C   UNL     1       1.270   8.832  20.343  0.00  0.00    +0.000 A 
ATOM     22  O   UNL     1       1.795   8.206  21.263  0.00  0.00    +0.000 OA
BRANCH  20  23
ATOM     23  C   UNL     1      -2.079  12.242  19.315  0.00  0.00    +0.000 C 
BRANCH  23  24
ATOM     24  C   UNL     1      -3.232  11.502  18.692  0.00  0.00    +0.000 C 
ATOM     25  C   UNL     1      -3.485  11.460  17.378  0.00  0.00    +0.000 C 
ENDBRANCH  23  24
ENDBRANCH  20  23
ENDBRANCH  10  13
BRANCH   1  26
ATOM     26  C   UNL     1       1.147   3.388  18.932  0.00  0.00    +0.000 C 
BRANCH  26  28
ATOM     27  C   UNL     1       1.438   2.678  21.650  0.00  0.00    +0.000 C 
ATOM     28  C   UNL     1       1.304   3.006  20.395  0.00  0.00    +0.000 C 
ENDBRANCH  26  28
ENDBRANCH   1  26
TORSDOF 5
ENDMDL
MODEL 4
REMARK VINA RESULT:      -7.3      2.218      3.593
REMARK  Name = 
REMARK  5 active torsions:
REMARK  status: ('A' for Active; 'I' for Inactive)
REMARK    1  A    between atoms: C_2  and  C_3
REMARK    2  A    between atoms: C_3  and  N_4
REMARK    3  A    between atoms: C_13  and  N_14
REMARK    4  A    between atoms: N_21  and  C_22
REMARK    5  A    between atoms: C_22  and  C_23
REMARK                            x       y       z     vdW  Elec       q    Type
REMARK                         _______ _______ _______ _____ _____    ______ ____
ROOT
ATOM      1  N   UNL     1       2.543   3.784  18.423  0.00  0.00    +0.000 N 
ATOM      2  C   UNL     1       3.385   2.901  17.761  0.00  0.00    +0.000 C 
ATOM      3  O   UNL     1       3.244   1.677  17.779  0.00  0.00    +0.000 OA
ATOM      4  C   UNL     1       4.555   3.531  17.019  0.00  0.00    +0.000 C 
ATOM      5  O   UNL     1       4.555   4.904  16.698  0.00  0.00    +0.000 OA
ATOM      6  C   UNL     1       3.775   5.680  17.504  0.00  0.00    +0.000 A 
ATOM      7  C   UNL     1       4.008   7.052  17.385  0.00  0.00    +0.000 A 
ATOM      8  C   UNL     1       3.239   7.955  18.106  0.00  0.00    +0.000 A 
ATOM      9  F   UNL     1       3.452   9.265  17.910  0.00  0.00    +0.000 F 
ATOM     10  C   UNL     1       2.197   7.511  18.924  0.00  0.00    +0.000 A 
ATOM     11  C   UNL     1       1.981   6.123  19.046  0.00  0.00    +0.000 A 
ATOM     12  C   UNL     1       2.765   5.189  18.343  0.00  0.00    +0.000 A 
ENDROOT
BRANCH  10  13
ATOM     13  N   UNL     1       1.325   8.445  19.551  0.00  0.00    +0.000 N 
ATOM     14  N   UNL     1       1.398   8.475  20.953  0.00  0.00    +0.000 NA
ATOM     15  N   UNL     1       0.707   9.293  21.627  0.00  0.00    +0.000 NA
ATOM     16  C   UNL     1      -0.020  10.204  20.951  0.00  0.00    +0.000 A 
ATOM     17  C   UNL     1      -0.127  10.305  19.595  0.00  0.00    +0.000 A 
ATOM     18  C   UNL     1      -0.910  11.435  19.353  0.00  0.00    +0.000 A 
ATOM     19  N   UNL     1      -1.322  12.005  20.493  0.00  0.00    +0.000 NA
ATOM     20  N   UNL     1      -0.766  11.229  21.465  0.00  0.00    +0.000 N 
ATOM     21  C   UNL     1       0.573   9.359  18.789  0.00  0.00    +0.000 A 
ATOM     22  O   UNL     1       0.531   9.407  17.560  0.00  0.00    +0.000 OA
BRANCH  20  23
ATOM     23  C   UNL     1      -0.931  11.602  22.864  0.00  0.00    +0.000 C 
BRANCH  23  24
ATOM     24  C   UNL     1      -2.066  12.569  23.074  0.00  0.00    +0.000 C 
ATOM     25  C   UNL     1      -3.253  12.242  23.600  0.00  0.00    +0.000 C 
ENDBRANCH  23  24
ENDBRANCH  20  23
ENDBRANCH  10  13
BRANCH   1  26
ATOM     26  C   UNL     1       1.411   3.209  19.134  0.00  0.00    +0.000 C 
BRANCH  26  28
ATOM     27  C   UNL     1       1.963   2.764  21.868  0.00  0.00    +0.000 C 
ATOM     28  C   UNL     1       1.709   2.970  20.606  0.00  0.00    +0.000 C 
ENDBRANCH  26  28
ENDBRANCH   1  26
TORSDOF 5
ENDMDL
MODEL 5
REMARK VINA RESULT:      -7.3      3.538      8.508
REMARK  Name = 
REMARK  5 active torsions:
REMARK  status: ('A' for Active; 'I' for Inactive)
REMARK    1  A    between atoms: C_2  and  C_3
REMARK    2  A    between atoms: C_3  and  N_4
REMARK    3  A    between atoms: C_13  and  N_14
REMARK    4  A    between atoms: N_21  and  C_22
REMARK    5  A    between atoms: C_22  and  C_23
REMARK                            x       y       z     vdW  Elec       q    Type
REMARK                         _______ _______ _______ _____ _____    ______ ____
ROOT
ATOM      1  N   UNL     1      -3.223  10.907  18.458  0.00  0.00    +0.000 N 
ATOM      2  C   UNL     1      -4.161  11.908  18.671  0.00  0.00    +0.000 C 
ATOM      3  O   UNL     1      -5.266  11.938  18.126  0.00  0.00    +0.000 OA
ATOM      4  C   UNL     1      -3.734  13.029  19.608  0.00  0.00    +0.000 C 
ATOM      5  O   UNL     1      -2.647  12.861  20.491  0.00  0.00    +0.000 OA
ATOM      6  C   UNL     1      -1.734  11.925  20.102  0.00  0.00    +0.000 A 
ATOM      7  C   UNL     1      -0.525  11.974  20.801  0.00  0.00    +0.000 A 
ATOM      8  C   UNL     1       0.467  11.037  20.544  0.00  0.00    +0.000 A 
ATOM      9  F   UNL     1       1.584  11.080  21.286  0.00  0.00    +0.000 F 
ATOM     10  C   UNL     1       0.258  10.011  19.618  0.00  0.00    +0.000 A 
ATOM     11  C   UNL     1      -0.961   9.983  18.909  0.00  0.00    +0.000 A 
ATOM     12  C   UNL     1      -1.971  10.936  19.136  0.00  0.00    +0.000 A 
ENDROOT
BRANCH  10  13
ATOM     13  N   UNL     1       1.221   8.976  19.459  0.00  0.00    +0.000 N 
ATOM     14  N   UNL     1       1.192   7.982  20.450  0.00  0.00    +0.000 NA
ATOM     15  N   UNL     1       1.968   6.984  20.396  0.00  0.00    +0.000 NA
ATOM     16  C   UNL     1       2.747   6.853  19.305  0.00  0.00    +0.000 A 
ATOM     17  C   UNL     1       2.821   7.723  18.259  0.00  0.00    +0.000 A 
ATOM     18  C   UNL     1       3.686   7.139  17.331  0.00  0.00    +0.000 A 
ATOM     19  N   UNL     1       4.177   5.976  17.777  0.00  0.00    +0.000 NA
ATOM     20  N   UNL     1       3.589   5.820  18.996  0.00  0.00    +0.000 N 
ATOM     21  C   UNL     1       2.022   8.905  18.303  0.00  0.00    +0.000 A 
ATOM     22  O   UNL     1       2.031   9.721  17.383  0.00  0.00    +0.000 OA
BRANCH  20  23
ATOM     23  C   UNL     1       3.825   4.599  19.756  0.00  0.00    +0.000 C 
BRANCH  23  24
ATOM     24  C   UNL     1       2.688   3.619  19.644  0.00  0.00    +0.000 C 
ATOM     25  C   UNL     1       1.843   3.320  20.639  0.00  0.00    +0.000 C 
ENDBRANCH  23  24
ENDBRANCH  20  23
ENDBRANCH  10  13
BRANCH   1  26
ATOM     26  C   UNL     1      -3.609   9.819  17.573  0.00  0.00    +0.000 C 
BRANCH  26  28
ATOM     27  C   UNL     1      -2.899  10.311  14.884  0.00  0.00    +0.000 C 
ATOM     28  C   UNL     1      -3.227  10.083  16.125  0.00  0.00    +0.000 C 
ENDBRANCH  26  28
ENDBRANCH   1  26
TORSDOF 5
ENDMDL
MODEL 6
REMARK VINA RESULT:      -7.3      1.497      1.908
REMARK  Name = 
REMARK  5 active torsions:
REMARK  status: ('A' for Active; 'I' for Inactive)
REMARK    1  A    between atoms: C_2  and  C_3
REMARK    2  A    between atoms: C_3  and  N_4
REMARK    3  A    between atoms: C_13  and  N_14
REMARK    4  A    between atoms: N_21  and  C_22
REMARK    5  A    between atoms: C_22  and  C_23
REMARK                            x       y       z     vdW  Elec       q    Type
REMARK                         _______ _______ _______ _____ _____    ______ ____
ROOT
ATOM      1  N   UNL     1       6.054   5.836  16.411  0.00  0.00    +0.000 N 
ATOM      2  C   UNL     1       6.671   4.775  15.762  0.00  0.00    +0.000 C 
ATOM      3  O   UNL     1       7.793   4.842  15.256  0.00  0.00    +0.000 OA
ATOM      4  C   UNL     1       5.856   3.494  15.662  0.00  0.00    +0.000 C 
ATOM      5  O   UNL     1       4.743   3.276  16.500  0.00  0.00    +0.000 OA
ATOM      6  C   UNL     1       4.155   4.411  16.977  0.00  0.00    +0.000 A 
ATOM      7  C   UNL     1       2.894   4.212  17.544  0.00  0.00    +0.000 A 
ATOM      8  C   UNL     1       2.214   5.276  18.121  0.00  0.00    +0.000 A 
ATOM      9  F   UNL     1       1.037   5.027  18.714  0.00  0.00    +0.000 F 
ATOM     10  C   UNL     1       2.794   6.546  18.182  0.00  0.00    +0.000 A 
ATOM     11  C   UNL     1       4.061   6.736  17.593  0.00  0.00    +0.000 A 
ATOM     12  C   UNL     1       4.758   5.677  16.981  0.00  0.00    +0.000 A 
ENDROOT
BRANCH  10  13
ATOM     13  N   UNL     1       2.155   7.598  18.895  0.00  0.00    +0.000 N 
ATOM     14  N   UNL     1       1.733   8.679  18.104  0.00  0.00    +0.000 NA
ATOM     15  N   UNL     1       1.111   9.657  18.612  0.00  0.00    +0.000 NA
ATOM     16  C   UNL     1       0.774   9.577  19.914  0.00  0.00    +0.000 A 
ATOM     17  C   UNL     1       1.081   8.558  20.765  0.00  0.00    +0.000 A 
ATOM     18  C   UNL     1       0.460   8.866  21.976  0.00  0.00    +0.000 A 
ATOM     19  N   UNL     1      -0.176  10.043  21.921  0.00  0.00    +0.000 NA
ATOM     20  N   UNL     1       0.033  10.467  20.643  0.00  0.00    +0.000 N 
ATOM     21  C   UNL     1       1.847   7.464  20.263  0.00  0.00    +0.000 A 
ATOM     22  O   UNL     1       2.143   6.506  20.975  0.00  0.00    +0.000 OA
BRANCH  20  23
ATOM     23  C   UNL     1      -0.596  11.698  20.183  0.00  0.00    +0.000 C 
BRANCH  23  24
ATOM     24  C   UNL     1       0.133  12.929  20.651  0.00  0.00    +0.000 C 
ATOM     25  C   UNL     1       1.465  13.053  20.691  0.00  0.00    +0.000 C 
ENDBRANCH  23  24
ENDBRANCH  20  23
ENDBRANCH  10  13
BRANCH   1  26
ATOM     26  C   UNL     1       6.814   7.071  16.527  0.00  0.00    +0.000 C 
BRANCH  26  28
ATOM     27  C   UNL     1       8.348   7.174  18.897  0.00  0.00    +0.000 C 
ATOM     28  C   UNL     1       7.640   7.127  17.803  0.00  0.00    +0.000 C 
ENDBRANCH  26  28
ENDBRANCH   1  26
TORSDOF 5
ENDMDL
MODEL 7
REMARK VINA RESULT:      -7.2      3.476      7.963
REMARK  Name = 
REMARK  5 active torsions:
REMARK  status: ('A' for Active; 'I' for Inactive)
REMARK    1  A    between atoms: C_2  and  C_3
REMARK    2  A    between atoms: C_3  and  N_4
REMARK    3  A    between atoms: C_13  and  N_14
REMARK    4  A    between atoms: N_21  and  C_22
REMARK    5  A    between atoms: C_22  and  C_23
REMARK                            x       y       z     vdW  Elec       q    Type
REMARK                         _______ _______ _______ _____ _____    ______ ____
ROOT
ATOM      1  N   UNL     1       1.389  14.300  20.261  0.00  0.00    +0.000 N 
ATOM      2  C   UNL     1       0.735  15.525  20.231  0.00  0.00    +0.000 C 
ATOM      3  O   UNL     1       1.290  16.602  20.458  0.00  0.00    +0.000 OA
ATOM      4  C   UNL     1      -0.757  15.474  19.937  0.00  0.00    +0.000 C 
ATOM      5  O   UNL     1      -1.342  14.332  19.353  0.00  0.00    +0.000 OA
ATOM      6  C   UNL     1      -0.658  13.170  19.558  0.00  0.00    +0.000 A 
ATOM      7  C   UNL     1      -1.379  12.014  19.251  0.00  0.00    +0.000 A 
ATOM      8  C   UNL     1      -0.776  10.767  19.359  0.00  0.00    +0.000 A 
ATOM      9  F   UNL     1      -1.484   9.689  18.988  0.00  0.00    +0.000 F 
ATOM     10  C   UNL     1       0.565  10.652  19.732  0.00  0.00    +0.000 A 
ATOM     11  C   UNL     1       1.277  11.826  20.054  0.00  0.00    +0.000 A 
ATOM     12  C   UNL     1       0.679  13.098  19.976  0.00  0.00    +0.000 A 
ENDROOT
BRANCH  10  13
ATOM     13  N   UNL     1       1.215   9.387  19.708  0.00  0.00    +0.000 N 
ATOM     14  N   UNL     1       1.035   8.606  20.861  0.00  0.00    +0.000 NA
ATOM     15  N   UNL     1       1.524   7.442  20.944  0.00  0.00    +0.000 NA
ATOM     16  C   UNL     1       2.131   6.937  19.852  0.00  0.00    +0.000 A 
ATOM     17  C   UNL     1       2.317   7.580  18.664  0.00  0.00    +0.000 A 
ATOM     18  C   UNL     1       2.909   6.647  17.810  0.00  0.00    +0.000 A 
ATOM     19  N   UNL     1       3.133   5.481  18.429  0.00  0.00    +0.000 NA
ATOM     20  N   UNL     1       2.650   5.682  19.687  0.00  0.00    +0.000 N 
ATOM     21  C   UNL     1       1.851   8.922  18.540  0.00  0.00    +0.000 A 
ATOM     22  O   UNL     1       1.974   9.551  17.490  0.00  0.00    +0.000 OA
BRANCH  20  23
ATOM     23  C   UNL     1       2.645   4.578  20.639  0.00  0.00    +0.000 C 
BRANCH  23  24
ATOM     24  C   UNL     1       1.317   3.873  20.699  0.00  0.00    +0.000 C 
ATOM     25  C   UNL     1       0.801   3.142  19.703  0.00  0.00    +0.000 C 
ENDBRANCH  23  24
ENDBRANCH  20  23
ENDBRANCH  10  13
BRANCH   1  26
ATOM     26  C   UNL     1       2.818  14.321  20.532  0.00  0.00    +0.000 C 
BRANCH  26  28
ATOM     27  C   UNL     1       4.356  14.690  18.192  0.00  0.00    +0.000 C 
ATOM     28  C   UNL     1       3.646  14.520  19.272  0.00  0.00    +0.000 C 
ENDBRANCH  26  28
ENDBRANCH   1  26
TORSDOF 5
ENDMDL
MODEL 8
REMARK VINA RESULT:      -7.2      3.429      7.767
REMARK  Name = 
REMARK  5 active torsions:
REMARK  status: ('A' for Active; 'I' for Inactive)
REMARK    1  A    between atoms: C_2  and  C_3
REMARK    2  A    between atoms: C_3  and  N_4
REMARK    3  A    between atoms: C_13  and  N_14
REMARK    4  A    between atoms: N_21  and  C_22
REMARK    5  A    between atoms: C_22  and  C_23
REMARK                            x       y       z     vdW  Elec       q    Type
REMARK                         _______ _______ _______ _____ _____    ______ ____
ROOT
ATOM      1  N   UNL     1       1.973  14.217  19.372  0.00  0.00    +0.000 N 
ATOM      2  C   UNL     1       1.414  15.473  19.181  0.00  0.00    +0.000 C 
ATOM      3  O   UNL     1       2.046  16.526  19.289  0.00  0.00    +0.000 OA
ATOM      4  C   UNL     1      -0.074  15.497  18.862  0.00  0.00    +0.000 C 
ATOM      5  O   UNL     1      -0.735  14.338  18.406  0.00  0.00    +0.000 OA
ATOM      6  C   UNL     1      -0.143  13.162  18.764  0.00  0.00    +0.000 A 
ATOM      7  C   UNL     1      -0.945  12.034  18.582  0.00  0.00    +0.000 A 
ATOM      8  C   UNL     1      -0.440  10.769  18.851  0.00  0.00    +0.000 A 
ATOM      9  F   UNL     1      -1.222   9.709  18.597  0.00  0.00    +0.000 F 
ATOM     10  C   UNL     1       0.884  10.602  19.266  0.00  0.00    +0.000 A 
ATOM     11  C   UNL     1       1.678  11.751  19.461  0.00  0.00    +0.000 A 
ATOM     12  C   UNL     1       1.179  13.045  19.217  0.00  0.00    +0.000 A 
ENDROOT
BRANCH  10  13
ATOM     13  N   UNL     1       1.436   9.299  19.408  0.00  0.00    +0.000 N 
ATOM     14  N   UNL     1       1.110   8.643  20.606  0.00  0.00    +0.000 NA
ATOM     15  N   UNL     1       1.502   7.462  20.832  0.00  0.00    +0.000 NA
ATOM     16  C   UNL     1       2.152   6.817  19.844  0.00  0.00    +0.000 A 
ATOM     17  C   UNL     1       2.477   7.331  18.624  0.00  0.00    +0.000 A 
ATOM     18  C   UNL     1       3.062   6.284  17.908  0.00  0.00    +0.000 A 
ATOM     19  N   UNL     1       3.149   5.169  18.644  0.00  0.00    +0.000 NA
ATOM     20  N   UNL     1       2.586   5.519  19.835  0.00  0.00    +0.000 N 
ATOM     21  C   UNL     1       2.125   8.684  18.343  0.00  0.00    +0.000 A 
ATOM     22  O   UNL     1       2.375   9.202  17.256  0.00  0.00    +0.000 OA
BRANCH  20  23
ATOM     23  C   UNL     1       2.425   4.513  20.876  0.00  0.00    +0.000 C 
BRANCH  23  24
ATOM     24  C   UNL     1       1.131   3.753  20.751  0.00  0.00    +0.000 C 
ATOM     25  C   UNL     1       0.752   3.078  19.659  0.00  0.00    +0.000 C 
ENDBRANCH  23  24
ENDBRANCH  20  23
ENDBRANCH  10  13
BRANCH   1  26
ATOM     26  C   UNL     1       3.396  14.165  19.671  0.00  0.00    +0.000 C 
BRANCH  26  28
ATOM     27  C   UNL     1       3.957  14.780  22.370  0.00  0.00    +0.000 C 
ATOM     28  C   UNL     1       3.698  14.497  21.124  0.00  0.00    +0.000 C 
ENDBRANCH  26  28
ENDBRANCH   1  26
TORSDOF 5
ENDMDL
MODEL 9
REMARK VINA RESULT:      -7.2      2.668      4.234
REMARK  Name = 
REMARK  5 active torsions:
REMARK  status: ('A' for Active; 'I' for Inactive)
REMARK    1  A    between atoms: C_2  and  C_3
REMARK    2  A    between atoms: C_3  and  N_4
REMARK    3  A    between atoms: C_13  and  N_14
REMARK    4  A    between atoms: N_21  and  C_22
REMARK    5  A    between atoms: C_22  and  C_23
REMARK                            x       y       z     vdW  Elec       q    Type
REMARK                         _______ _______ _______ _____ _____    ______ ____
ROOT
ATOM      1  N   UNL     1       2.972   5.428  19.771  0.00  0.00    +0.000 N 
ATOM      2  C   UNL     1       3.875   4.574  19.152  0.00  0.00    +0.000 C 
ATOM      3  O   UNL     1       4.116   3.431  19.546  0.00  0.00    +0.000 OA
ATOM      4  C   UNL     1       4.611   5.145  17.948  0.00  0.00    +0.000 C 
ATOM      5  O   UNL     1       4.128   6.289  17.280  0.00  0.00    +0.000 OA
ATOM      6  C   UNL     1       3.345   7.108  18.040  0.00  0.00    +0.000 A 
ATOM      7  C   UNL     1       3.124   8.371  17.487  0.00  0.00    +0.000 A 
ATOM      8  C   UNL     1       2.295   9.280  18.131  0.00  0.00    +0.000 A 
ATOM      9  F   UNL     1       2.057  10.455  17.530  0.00  0.00    +0.000 F 
ATOM     10  C   UNL     1       1.639   8.932  19.315  0.00  0.00    +0.000 A 
ATOM     11  C   UNL     1       1.883   7.660  19.871  0.00  0.00    +0.000 A 
ATOM     12  C   UNL     1       2.738   6.732  19.247  0.00  0.00    +0.000 A 
ENDROOT
BRANCH  10  13
ATOM     13  N   UNL     1       0.686   9.814  19.896  0.00  0.00    +0.000 N 
ATOM     14  N   UNL     1       1.047  10.334  21.149  0.00  0.00    +0.000 NA
ATOM     15  N   UNL     1       0.305  11.165  21.750  0.00  0.00    +0.000 NA
ATOM     16  C   UNL     1      -0.787  11.613  21.103  0.00  0.00    +0.000 A 
ATOM     17  C   UNL     1      -1.209  11.221  19.866  0.00  0.00    +0.000 A 
ATOM     18  C   UNL     1      -2.325  12.006  19.572  0.00  0.00    +0.000 A 
ATOM     19  N   UNL     1      -2.633  12.827  20.585  0.00  0.00    +0.000 NA
ATOM     20  N   UNL     1      -1.676  12.567  21.518  0.00  0.00    +0.000 N 
ATOM     21  C   UNL     1      -0.450  10.230  19.175  0.00  0.00    +0.000 A 
ATOM     22  O   UNL     1      -0.768   9.846  18.051  0.00  0.00    +0.000 OA
BRANCH  20  23
ATOM     23  C   UNL     1      -1.639  13.350  22.747  0.00  0.00    +0.000 C 
BRANCH  23  24
ATOM     24  C   UNL     1      -2.975  13.406  23.437  0.00  0.00    +0.000 C 
ATOM     25  C   UNL     1      -3.606  12.345  23.956  0.00  0.00    +0.000 C 
ENDBRANCH  23  24
ENDBRANCH  20  23
ENDBRANCH  10  13
BRANCH   1  26
ATOM     26  C   UNL     1       2.249   4.904  20.919  0.00  0.00    +0.000 C 
BRANCH  26  28
ATOM     27  C   UNL     1       0.462   2.832  20.217  0.00  0.00    +0.000 C 
ATOM     28  C   UNL     1       1.286   3.789  20.542  0.00  0.00    +0.000 C 
ENDBRANCH  26  28
ENDBRANCH   1  26
TORSDOF 5
ENDMDL
