MODEL 1
REMARK VINA RESULT:      -6.5      0.000      0.000
REMARK  Name = 
REMARK  15 active torsions:
REMARK  status: ('A' for Active; 'I' for Inactive)
REMARK    1  A    between atoms: C_1  and  C_2
REMARK    2  A    between atoms: C_2  and  C_3
REMARK    3  A    between atoms: C_3  and  C_4
REMARK    4  A    between atoms: C_4  and  O_5
REMARK    5  A    between atoms: O_5  and  C_6
REMARK    6  A    between atoms: C_7  and  O_8
REMARK    7  A    between atoms: O_8  and  C_9
REMARK    8  A    between atoms: C_11  and  C_12
REMARK    9  A    between atoms: N_14  and  C_15
REMARK   10  A    between atoms: C_15  and  C_16
REMARK   11  A    between atoms: C_16  and  N_17
REMARK   12  A    between atoms: N_17  and  C_18
REMARK   13  A    between atoms: N_17  and  C_19
REMARK   14  A    between atoms: C_26  and  O_27
REMARK   15  A    between atoms: O_27  and  C_28
REMARK                            x       y       z     vdW  Elec       q    Type
REMARK                         _______ _______ _______ _____ _____    ______ ____
ROOT
ATOM      1  C   UNL     1       4.416   5.727  18.067  0.00  0.00    +0.000 A 
ATOM      2  C   UNL     1       4.384   6.733  17.053  0.00  0.00    +0.000 A 
ATOM      3  C   UNL     1       3.480   7.796  17.147  0.00  0.00    +0.000 A 
ATOM      4  C   UNL     1       2.579   7.883  18.202  0.00  0.00    +0.000 A 
ATOM      5  C   UNL     1       2.547   6.877  19.158  0.00  0.00    +0.000 A 
ATOM      6  C   UNL     1       3.459   5.806  19.111  0.00  0.00    +0.000 A 
ENDROOT
BRANCH   4   7
ATOM      7  C   UNL     1       1.695   9.071  18.241  0.00  0.00    +0.000 C 
ATOM      8  O   UNL     1       1.943  10.032  17.523  0.00  0.00    +0.000 OA
ATOM      9  N   UNL     1       0.653   9.047  19.141  0.00  0.00    +0.000 N 
ATOM     10  H   UNL     1       0.569   8.310  19.827  0.00  0.00    +0.000 HD
BRANCH   9  11
ATOM     11  C   UNL     1      -0.202  10.199  19.330  0.00  0.00    +0.000 C 
BRANCH  11  12
ATOM     12  C   UNL     1      -0.040  10.852  20.754  0.00  0.00    +0.000 C 
ATOM     13  C   UNL     1       1.245  11.730  20.757  0.00  0.00    +0.000 C 
ATOM     14  C   UNL     1       1.174  12.944  19.825  0.00  0.00    +0.000 C 
ATOM     15  C   UNL     1      -0.064  13.793  20.085  0.00  0.00    +0.000 C 
ATOM     16  C   UNL     1      -1.346  12.972  20.022  0.00  0.00    +0.000 C 
ATOM     17  C   UNL     1      -1.279  11.782  20.984  0.00  0.00    +0.000 C 
BRANCH  12  18
ATOM     18  N   UNL     1      -0.009   9.764  21.804  0.00  0.00    +0.000 NA
ATOM     19  C   UNL     1       1.346   9.355  22.207  0.00  0.00    +0.000 C 
ATOM     20  C   UNL     1      -0.757  10.074  23.032  0.00  0.00    +0.000 C 
ENDBRANCH  12  18
ENDBRANCH  11  12
ENDBRANCH   9  11
ENDBRANCH   4   7
BRANCH   2  21
ATOM     21  O   UNL     1       5.315   6.741  16.044  0.00  0.00    +0.000 OA
ATOM     22  C   UNL     1       5.393   5.611  15.178  0.00  0.00    +0.000 C 
ENDBRANCH   2  21
BRANCH   6  23
ATOM     23  O   UNL     1       3.234   4.956  20.162  0.00  0.00    +0.000 OA
ATOM     24  C   UNL     1       1.971   4.932  20.800  0.00  0.00    +0.000 C 
ENDBRANCH   6  23
BRANCH   1  25
ATOM     25  O   UNL     1       5.302   4.661  18.108  0.00  0.00    +0.000 OA
BRANCH  25  26
ATOM     26  C   UNL     1       6.468   4.832  18.914  0.00  0.00    +0.000 C 
BRANCH  26  27
ATOM     27  C   UNL     1       7.675   5.382  18.153  0.00  0.00    +0.000 C 
BRANCH  27  29
ATOM     28  C   UNL     1       7.923   7.889  17.740  0.00  0.00    +0.000 C 
ATOM     29  C   UNL     1       8.023   6.756  18.743  0.00  0.00    +0.000 C 
ENDBRANCH  27  29
ENDBRANCH  26  27
ENDBRANCH  25  26
ENDBRANCH   1  25
TORSDOF 10
ENDMDL
MODEL 2
REMARK VINA RESULT:      -6.5      1.518      2.370
REMARK  Name = 
REMARK  15 active torsions:
REMARK  status: ('A' for Active; 'I' for Inactive)
REMARK    1  A    between atoms: C_1  and  C_2
REMARK    2  A    between atoms: C_2  and  C_3
REMARK    3  A    between atoms: C_3  and  C_4
REMARK    4  A    between atoms: C_4  and  O_5
REMARK    5  A    between atoms: O_5  and  C_6
REMARK    6  A    between atoms: C_7  and  O_8
REMARK    7  A    between atoms: O_8  and  C_9
REMARK    8  A    between atoms: C_11  and  C_12
REMARK    9  A    between atoms: N_14  and  C_15
REMARK   10  A    between atoms: C_15  and  C_16
REMARK   11  A    between atoms: C_16  and  N_17
REMARK   12  A    between atoms: N_17  and  C_18
REMARK   13  A    between atoms: N_17  and  C_19
REMARK   14  A    between atoms: C_26  and  O_27
REMARK   15  A    between atoms: O_27  and  C_28
REMARK                            x       y       z     vdW  Elec       q    Type
REMARK                         _______ _______ _______ _____ _____    ______ ____
ROOT
ATOM      1  C   UNL     1       4.216   5.614  18.984  0.00  0.00    +0.000 A 
ATOM      2  C   UNL     1       4.445   6.501  17.887  0.00  0.00    +0.000 A 
ATOM      3  C   UNL     1       3.595   7.592  17.677  0.00  0.00    +0.000 A 
ATOM      4  C   UNL     1       2.501   7.821  18.503  0.00  0.00    +0.000 A 
ATOM      5  C   UNL     1       2.221   6.929  19.531  0.00  0.00    +0.000 A 
ATOM      6  C   UNL     1       3.069   5.835  19.788  0.00  0.00    +0.000 A 
ENDROOT
BRANCH   4   7
ATOM      7  C   UNL     1       1.688   9.029  18.232  0.00  0.00    +0.000 C 
ATOM      8  O   UNL     1       1.999   9.771  17.309  0.00  0.00    +0.000 OA
ATOM      9  N   UNL     1       0.637   9.282  19.086  0.00  0.00    +0.000 N 
ATOM     10  H   UNL     1       0.503   8.739  19.928  0.00  0.00    +0.000 HD
BRANCH   9  11
ATOM     11  C   UNL     1      -0.150  10.490  18.968  0.00  0.00    +0.000 C 
BRANCH  11  12
ATOM     12  C   UNL     1      -0.055  11.406  20.246  0.00  0.00    +0.000 C 
ATOM     13  C   UNL     1       1.419  11.881  20.410  0.00  0.00    +0.000 C 
ATOM     14  C   UNL     1       1.907  12.801  19.286  0.00  0.00    +0.000 C 
ATOM     15  C   UNL     1       0.975  13.987  19.071  0.00  0.00    +0.000 C 
ATOM     16  C   UNL     1      -0.466  13.550  18.842  0.00  0.00    +0.000 C 
ATOM     17  C   UNL     1      -0.956  12.661  19.989  0.00  0.00    +0.000 C 
BRANCH  12  18
ATOM     18  N   UNL     1      -0.561  10.644  21.449  0.00  0.00    +0.000 NA
ATOM     19  C   UNL     1       0.493   9.969  22.223  0.00  0.00    +0.000 C 
ATOM     20  C   UNL     1      -1.354  11.445  22.395  0.00  0.00    +0.000 C 
ENDBRANCH  12  18
ENDBRANCH  11  12
ENDBRANCH   9  11
ENDBRANCH   4   7
BRANCH   2  21
ATOM     21  O   UNL     1       5.563   6.371  17.101  0.00  0.00    +0.000 OA
ATOM     22  C   UNL     1       5.406   5.918  15.759  0.00  0.00    +0.000 C 
ENDBRANCH   2  21
BRANCH   6  23
ATOM     23  O   UNL     1       2.589   5.114  20.850  0.00  0.00    +0.000 OA
ATOM     24  C   UNL     1       1.370   4.405  20.737  0.00  0.00    +0.000 C 
ENDBRANCH   6  23
BRANCH   1  25
ATOM     25  O   UNL     1       5.021   4.536  19.321  0.00  0.00    +0.000 OA
BRANCH  25  26
ATOM     26  C   UNL     1       4.858   3.350  18.544  0.00  0.00    +0.000 C 
BRANCH  26  27
ATOM     27  C   UNL     1       3.970   2.293  19.200  0.00  0.00    +0.000 C 
BRANCH  27  29
ATOM     28  C   UNL     1       2.285   2.959  17.402  0.00  0.00    +0.000 C 
ATOM     29  C   UNL     1       2.942   1.823  18.161  0.00  0.00    +0.000 C 
ENDBRANCH  27  29
ENDBRANCH  26  27
ENDBRANCH  25  26
ENDBRANCH   1  25
TORSDOF 10
ENDMDL
MODEL 3
REMARK VINA RESULT:      -6.4      1.709      2.949
REMARK  Name = 
REMARK  15 active torsions:
REMARK  status: ('A' for Active; 'I' for Inactive)
REMARK    1  A    between atoms: C_1  and  C_2
REMARK    2  A    between atoms: C_2  and  C_3
REMARK    3  A    between atoms: C_3  and  C_4
REMARK    4  A    between atoms: C_4  and  O_5
REMARK    5  A    between atoms: O_5  and  C_6
REMARK    6  A    between atoms: C_7  and  O_8
REMARK    7  A    between atoms: O_8  and  C_9
REMARK    8  A    between atoms: C_11  and  C_12
REMARK    9  A    between atoms: N_14  and  C_15
REMARK   10  A    between atoms: C_15  and  C_16
REMARK   11  A    between atoms: C_16  and  N_17
REMARK   12  A    between atoms: N_17  and  C_18
REMARK   13  A    between atoms: N_17  and  C_19
REMARK   14  A    between atoms: C_26  and  O_27
REMARK   15  A    between atoms: O_27  and  C_28
REMARK                            x       y       z     vdW  Elec       q    Type
REMARK                         _______ _______ _______ _____ _____    ______ ____
ROOT
ATOM      1  C   UNL     1       4.249   5.208  18.437  0.00  0.00    +0.000 A 
ATOM      2  C   UNL     1       4.480   6.163  17.400  0.00  0.00    +0.000 A 
ATOM      3  C   UNL     1       3.769   7.367  17.384  0.00  0.00    +0.000 A 
ATOM      4  C   UNL     1       2.809   7.649  18.349  0.00  0.00    +0.000 A 
ATOM      5  C   UNL     1       2.521   6.703  19.324  0.00  0.00    +0.000 A 
ATOM      6  C   UNL     1       3.234   5.491  19.387  0.00  0.00    +0.000 A 
ENDROOT
BRANCH   4   7
ATOM      7  C   UNL     1       2.145   8.971  18.278  0.00  0.00    +0.000 C 
ATOM      8  O   UNL     1       2.050   9.541  17.198  0.00  0.00    +0.000 OA
ATOM      9  N   UNL     1       1.709   9.518  19.465  0.00  0.00    +0.000 N 
ATOM     10  H   UNL     1       1.941   9.097  20.353  0.00  0.00    +0.000 HD
BRANCH   9  11
ATOM     11  C   UNL     1       1.143  10.849  19.514  0.00  0.00    +0.000 C 
BRANCH  11  12
ATOM     12  C   UNL     1      -0.275  10.884  20.199  0.00  0.00    +0.000 C 
ATOM     13  C   UNL     1      -0.871  12.313  20.036  0.00  0.00    +0.000 C 
ATOM     14  C   UNL     1      -1.177  12.699  18.585  0.00  0.00    +0.000 C 
ATOM     15  C   UNL     1      -2.051  11.663  17.888  0.00  0.00    +0.000 C 
ATOM     16  C   UNL     1      -1.457  10.263  17.974  0.00  0.00    +0.000 C 
ATOM     17  C   UNL     1      -1.190   9.872  19.430  0.00  0.00    +0.000 C 
BRANCH  12  18
ATOM     18  N   UNL     1      -0.143  10.466  21.646  0.00  0.00    +0.000 NA
ATOM     19  C   UNL     1      -0.916  11.294  22.585  0.00  0.00    +0.000 C 
ATOM     20  C   UNL     1      -0.489   9.061  21.913  0.00  0.00    +0.000 C 
ENDBRANCH  12  18
ENDBRANCH  11  12
ENDBRANCH   9  11
ENDBRANCH   4   7
BRANCH   2  21
ATOM     21  O   UNL     1       5.481   5.971  16.480  0.00  0.00    +0.000 OA
ATOM     22  C   UNL     1       6.820   6.286  16.852  0.00  0.00    +0.000 C 
ENDBRANCH   2  21
BRANCH   6  23
ATOM     23  O   UNL     1       2.776   4.734  20.434  0.00  0.00    +0.000 OA
ATOM     24  C   UNL     1       1.454   4.906  20.911  0.00  0.00    +0.000 C 
ENDBRANCH   6  23
BRANCH   1  25
ATOM     25  O   UNL     1       4.930   4.009  18.586  0.00  0.00    +0.000 OA
BRANCH  25  26
ATOM     26  C   UNL     1       4.532   2.938  17.731  0.00  0.00    +0.000 C 
BRANCH  26  27
ATOM     27  C   UNL     1       3.520   1.982  18.361  0.00  0.00    +0.000 C 
BRANCH  27  29
ATOM     28  C   UNL     1       1.007   2.209  18.754  0.00  0.00    +0.000 C 
ATOM     29  C   UNL     1       2.142   2.278  17.751  0.00  0.00    +0.000 C 
ENDBRANCH  27  29
ENDBRANCH  26  27
ENDBRANCH  25  26
ENDBRANCH   1  25
TORSDOF 10
ENDMDL
MODEL 4
REMARK VINA RESULT:      -6.4      1.895      3.845
REMARK  Name = 
REMARK  15 active torsions:
REMARK  status: ('A' for Active; 'I' for Inactive)
REMARK    1  A    between atoms: C_1  and  C_2
REMARK    2  A    between atoms: C_2  and  C_3
REMARK    3  A    between atoms: C_3  and  C_4
REMARK    4  A    between atoms: C_4  and  O_5
REMARK    5  A    between atoms: O_5  and  C_6
REMARK    6  A    between atoms: C_7  and  O_8
REMARK    7  A    between atoms: O_8  and  C_9
REMARK    8  A    between atoms: C_11  and  C_12
REMARK    9  A    between atoms: N_14  and  C_15
REMARK   10  A    between atoms: C_15  and  C_16
REMARK   11  A    between atoms: C_16  and  N_17
REMARK   12  A    between atoms: N_17  and  C_18
REMARK   13  A    between atoms: N_17  and  C_19
REMARK   14  A    between atoms: C_26  and  O_27
REMARK   15  A    between atoms: O_27  and  C_28
REMARK                            x       y       z     vdW  Elec       q    Type
REMARK                         _______ _______ _______ _____ _____    ______ ____
ROOT
ATOM      1  C   UNL     1       4.141   4.721  19.175  0.00  0.00    +0.000 A 
ATOM      2  C   UNL     1       3.144   5.313  20.009  0.00  0.00    +0.000 A 
ATOM      3  C   UNL     1       2.565   6.535  19.651  0.00  0.00    +0.000 A 
ATOM      4  C   UNL     1       2.964   7.212  18.503  0.00  0.00    +0.000 A 
ATOM      5  C   UNL     1       3.982   6.686  17.719  0.00  0.00    +0.000 A 
ATOM      6  C   UNL     1       4.569   5.446  18.034  0.00  0.00    +0.000 A 
ENDROOT
BRANCH   4   7
ATOM      7  C   UNL     1       2.258   8.474  18.181  0.00  0.00    +0.000 C 
ATOM      8  O   UNL     1       2.154   8.825  17.013  0.00  0.00    +0.000 OA
ATOM      9  N   UNL     1       1.795   9.221  19.241  0.00  0.00    +0.000 N 
ATOM     10  H   UNL     1       2.034   8.984  20.195  0.00  0.00    +0.000 HD
BRANCH   9  11
ATOM     11  C   UNL     1       1.187  10.517  19.036  0.00  0.00    +0.000 C 
BRANCH  11  12
ATOM     12  C   UNL     1      -0.164  10.690  19.827  0.00  0.00    +0.000 C 
ATOM     13  C   UNL     1      -0.621  12.173  19.714  0.00  0.00    +0.000 C 
ATOM     14  C   UNL     1      -0.995  12.605  18.292  0.00  0.00    +0.000 C 
ATOM     15  C   UNL     1      -2.020  11.670  17.660  0.00  0.00    +0.000 C 
ATOM     16  C   UNL     1      -1.568  10.216  17.697  0.00  0.00    +0.000 C 
ATOM     17  C   UNL     1      -1.233   9.784  19.128  0.00  0.00    +0.000 C 
BRANCH  12  18
ATOM     18  N   UNL     1       0.033  10.246  21.259  0.00  0.00    +0.000 NA
ATOM     19  C   UNL     1      -0.557  11.151  22.257  0.00  0.00    +0.000 C 
ATOM     20  C   UNL     1      -0.455   8.889  21.553  0.00  0.00    +0.000 C 
ENDBRANCH  12  18
ENDBRANCH  11  12
ENDBRANCH   9  11
ENDBRANCH   4   7
BRANCH   2  21
ATOM     21  O   UNL     1       2.652   4.641  21.100  0.00  0.00    +0.000 OA
ATOM     22  C   UNL     1       1.327   4.119  21.040  0.00  0.00    +0.000 C 
ENDBRANCH   2  21
BRANCH   6  23
ATOM     23  O   UNL     1       5.536   5.140  17.111  0.00  0.00    +0.000 OA
ATOM     24  C   UNL     1       5.192   4.461  15.918  0.00  0.00    +0.000 C 
ENDBRANCH   6  23
BRANCH   1  25
ATOM     25  O   UNL     1       4.743   3.491  19.399  0.00  0.00    +0.000 OA
BRANCH  25  26
ATOM     26  C   UNL     1       3.885   2.351  19.393  0.00  0.00    +0.000 C 
BRANCH  26  27
ATOM     27  C   UNL     1       3.559   1.825  17.996  0.00  0.00    +0.000 C 
BRANCH  27  29
ATOM     28  C   UNL     1       1.097   2.196  18.558  0.00  0.00    +0.000 C 
ATOM     29  C   UNL     1       2.215   2.428  17.561  0.00  0.00    +0.000 C 
ENDBRANCH  27  29
ENDBRANCH  26  27
ENDBRANCH  25  26
ENDBRANCH   1  25
TORSDOF 10
ENDMDL
MODEL 5
REMARK VINA RESULT:      -6.4      2.626      8.648
REMARK  Name = 
REMARK  15 active torsions:
REMARK  status: ('A' for Active; 'I' for Inactive)
REMARK    1  A    between atoms: C_1  and  C_2
REMARK    2  A    between atoms: C_2  and  C_3
REMARK    3  A    between atoms: C_3  and  C_4
REMARK    4  A    between atoms: C_4  and  O_5
REMARK    5  A    between atoms: O_5  and  C_6
REMARK    6  A    between atoms: C_7  and  O_8
REMARK    7  A    between atoms: O_8  and  C_9
REMARK    8  A    between atoms: C_11  and  C_12
REMARK    9  A    between atoms: N_14  and  C_15
REMARK   10  A    between atoms: C_15  and  C_16
REMARK   11  A    between atoms: C_16  and  N_17
REMARK   12  A    between atoms: N_17  and  C_18
REMARK   13  A    between atoms: N_17  and  C_19
REMARK   14  A    between atoms: C_26  and  O_27
REMARK   15  A    between atoms: O_27  and  C_28
REMARK                            x       y       z     vdW  Elec       q    Type
REMARK                         _______ _______ _______ _____ _____    ______ ____
ROOT
ATOM      1  C   UNL     1       0.781  10.791  20.582  0.00  0.00    +0.000 A 
ATOM      2  C   UNL     1       0.647   9.912  21.700  0.00  0.00    +0.000 A 
ATOM      3  C   UNL     1       1.023   8.570  21.587  0.00  0.00    +0.000 A 
ATOM      4  C   UNL     1       1.502   8.056  20.387  0.00  0.00    +0.000 A 
ATOM      5  C   UNL     1       1.572   8.878  19.270  0.00  0.00    +0.000 A 
ATOM      6  C   UNL     1       1.227  10.240  19.354  0.00  0.00    +0.000 A 
ENDROOT
BRANCH   4   7
ATOM      7  C   UNL     1       1.922   6.635  20.378  0.00  0.00    +0.000 C 
ATOM      8  O   UNL     1       1.240   5.801  20.962  0.00  0.00    +0.000 OA
ATOM      9  N   UNL     1       3.107   6.336  19.744  0.00  0.00    +0.000 N 
ATOM     10  H   UNL     1       3.722   7.065  19.410  0.00  0.00    +0.000 HD
BRANCH   9  11
ATOM     11  C   UNL     1       3.654   4.997  19.771  0.00  0.00    +0.000 C 
BRANCH  11  12
ATOM     12  C   UNL     1       3.843   4.386  18.332  0.00  0.00    +0.000 C 
ATOM     13  C   UNL     1       4.206   2.879  18.474  0.00  0.00    +0.000 C 
ATOM     14  C   UNL     1       3.086   2.021  19.071  0.00  0.00    +0.000 C 
ATOM     15  C   UNL     1       1.770   2.194  18.322  0.00  0.00    +0.000 C 
ATOM     16  C   UNL     1       1.355   3.656  18.225  0.00  0.00    +0.000 C 
ATOM     17  C   UNL     1       2.467   4.499  17.593  0.00  0.00    +0.000 C 
BRANCH  12  18
ATOM     18  N   UNL     1       4.896   5.174  17.586  0.00  0.00    +0.000 NA
ATOM     19  C   UNL     1       6.171   5.309  18.307  0.00  0.00    +0.000 C 
ATOM     20  C   UNL     1       5.205   4.665  16.240  0.00  0.00    +0.000 C 
ENDBRANCH  12  18
ENDBRANCH  11  12
ENDBRANCH   9  11
ENDBRANCH   4   7
BRANCH   2  21
ATOM     21  O   UNL     1       0.268  10.393  22.929  0.00  0.00    +0.000 OA
ATOM     22  C   UNL     1      -1.121  10.427  23.250  0.00  0.00    +0.000 C 
ENDBRANCH   2  21
BRANCH   6  23
ATOM     23  O   UNL     1       1.387  10.837  18.130  0.00  0.00    +0.000 OA
ATOM     24  C   UNL     1       2.440  11.759  17.920  0.00  0.00    +0.000 C 
ENDBRANCH   6  23
BRANCH   1  25
ATOM     25  O   UNL     1       0.493  12.148  20.593  0.00  0.00    +0.000 OA
BRANCH  25  26
ATOM     26  C   UNL     1      -0.754  12.541  20.021  0.00  0.00    +0.000 C 
BRANCH  26  27
ATOM     27  C   UNL     1      -1.800  12.973  21.048  0.00  0.00    +0.000 C 
BRANCH  27  29
ATOM     28  C   UNL     1      -4.313  12.760  21.444  0.00  0.00    +0.000 C 
ATOM     29  C   UNL     1      -3.190  12.771  20.426  0.00  0.00    +0.000 C 
ENDBRANCH  27  29
ENDBRANCH  26  27
ENDBRANCH  25  26
ENDBRANCH   1  25
TORSDOF 10
ENDMDL
MODEL 6
REMARK VINA RESULT:      -6.4      1.718      4.158
REMARK  Name = 
REMARK  15 active torsions:
REMARK  status: ('A' for Active; 'I' for Inactive)
REMARK    1  A    between atoms: C_1  and  C_2
REMARK    2  A    between atoms: C_2  and  C_3
REMARK    3  A    between atoms: C_3  and  C_4
REMARK    4  A    between atoms: C_4  and  O_5
REMARK    5  A    between atoms: O_5  and  C_6
REMARK    6  A    between atoms: C_7  and  O_8
REMARK    7  A    between atoms: O_8  and  C_9
REMARK    8  A    between atoms: C_11  and  C_12
REMARK    9  A    between atoms: N_14  and  C_15
REMARK   10  A    between atoms: C_15  and  C_16
REMARK   11  A    between atoms: C_16  and  N_17
REMARK   12  A    between atoms: N_17  and  C_18
REMARK   13  A    between atoms: N_17  and  C_19
REMARK   14  A    between atoms: C_26  and  O_27
REMARK   15  A    between atoms: O_27  and  C_28
REMARK                            x       y       z     vdW  Elec       q    Type
REMARK                         _______ _______ _______ _____ _____    ______ ____
ROOT
ATOM      1  C   UNL     1       3.936   5.440  18.471  0.00  0.00    +0.000 A 
ATOM      2  C   UNL     1       3.026   5.847  19.495  0.00  0.00    +0.000 A 
ATOM      3  C   UNL     1       2.404   7.098  19.424  0.00  0.00    +0.000 A 
ATOM      4  C   UNL     1       2.675   7.978  18.382  0.00  0.00    +0.000 A 
ATOM      5  C   UNL     1       3.610   7.628  17.417  0.00  0.00    +0.000 A 
ATOM      6  C   UNL     1       4.236   6.368  17.442  0.00  0.00    +0.000 A 
ENDROOT
BRANCH   4   7
ATOM      7  C   UNL     1       1.930   9.258  18.366  0.00  0.00    +0.000 C 
ATOM      8  O   UNL     1       1.873   9.911  17.331  0.00  0.00    +0.000 OA
ATOM      9  N   UNL     1       1.374   9.675  19.556  0.00  0.00    +0.000 N 
ATOM     10  H   UNL     1       1.571   9.195  20.423  0.00  0.00    +0.000 HD
BRANCH   9  11
ATOM     11  C   UNL     1       0.718  10.960  19.667  0.00  0.00    +0.000 C 
BRANCH  11  12
ATOM     12  C   UNL     1      -0.812  10.835  20.017  0.00  0.00    +0.000 C 
ATOM     13  C   UNL     1      -1.071   9.425  20.624  0.00  0.00    +0.000 C 
ATOM     14  C   UNL     1      -0.386   9.192  21.975  0.00  0.00    +0.000 C 
ATOM     15  C   UNL     1      -0.719  10.286  22.982  0.00  0.00    +0.000 C 
ATOM     16  C   UNL     1      -0.413  11.676  22.439  0.00  0.00    +0.000 C 
ATOM     17  C   UNL     1      -1.132  11.913  21.107  0.00  0.00    +0.000 C 
BRANCH  12  18
ATOM     18  N   UNL     1      -1.634  11.096  18.775  0.00  0.00    +0.000 NA
ATOM     19  C   UNL     1      -1.208  12.278  18.008  0.00  0.00    +0.000 C 
ATOM     20  C   UNL     1      -1.704   9.966  17.836  0.00  0.00    +0.000 C 
ENDBRANCH  12  18
ENDBRANCH  11  12
ENDBRANCH   9  11
ENDBRANCH   4   7
BRANCH   2  21
ATOM     21  O   UNL     1       2.656   4.979  20.491  0.00  0.00    +0.000 OA
ATOM     22  C   UNL     1       1.267   4.766  20.731  0.00  0.00    +0.000 C 
ENDBRANCH   2  21
BRANCH   6  23
ATOM     23  O   UNL     1       5.104   6.258  16.387  0.00  0.00    +0.000 OA
ATOM     24  C   UNL     1       6.495   6.419  16.589  0.00  0.00    +0.000 C 
ENDBRANCH   6  23
BRANCH   1  25
ATOM     25  O   UNL     1       4.567   4.207  18.408  0.00  0.00    +0.000 OA
BRANCH  25  26
ATOM     26  C   UNL     1       4.162   3.336  17.353  0.00  0.00    +0.000 C 
BRANCH  26  27
ATOM     27  C   UNL     1       2.649   3.140  17.253  0.00  0.00    +0.000 C 
BRANCH  27  29
ATOM     28  C   UNL     1       0.778   2.191  18.708  0.00  0.00    +0.000 C 
ATOM     29  C   UNL     1       2.234   2.093  18.297  0.00  0.00    +0.000 C 
ENDBRANCH  27  29
ENDBRANCH  26  27
ENDBRANCH  25  26
ENDBRANCH   1  25
TORSDOF 10
ENDMDL
MODEL 7
REMARK VINA RESULT:      -6.4      2.481      8.066
REMARK  Name = 
REMARK  15 active torsions:
REMARK  status: ('A' for Active; 'I' for Inactive)
REMARK    1  A    between atoms: C_1  and  C_2
REMARK    2  A    between atoms: C_2  and  C_3
REMARK    3  A    between atoms: C_3  and  C_4
REMARK    4  A    between atoms: C_4  and  O_5
REMARK    5  A    between atoms: O_5  and  C_6
REMARK    6  A    between atoms: C_7  and  O_8
REMARK    7  A    between atoms: O_8  and  C_9
REMARK    8  A    between atoms: C_11  and  C_12
REMARK    9  A    between atoms: N_14  and  C_15
REMARK   10  A    between atoms: C_15  and  C_16
REMARK   11  A    between atoms: C_16  and  N_17
REMARK   12  A    between atoms: N_17  and  C_18
REMARK   13  A    between atoms: N_17  and  C_19
REMARK   14  A    between atoms: C_26  and  O_27
REMARK   15  A    between atoms: O_27  and  C_28
REMARK                            x       y       z     vdW  Elec       q    Type
REMARK                         _______ _______ _______ _____ _____    ______ ____
ROOT
ATOM      1  C   UNL     1       0.615   9.794  19.730  0.00  0.00    +0.000 A 
ATOM      2  C   UNL     1       1.557   9.647  18.666  0.00  0.00    +0.000 A 
ATOM      3  C   UNL     1       2.340   8.491  18.576  0.00  0.00    +0.000 A 
ATOM      4  C   UNL     1       2.244   7.481  19.527  0.00  0.00    +0.000 A 
ATOM      5  C   UNL     1       1.385   7.639  20.607  0.00  0.00    +0.000 A 
ATOM      6  C   UNL     1       0.563   8.776  20.716  0.00  0.00    +0.000 A 
ENDROOT
BRANCH   4   7
ATOM      7  C   UNL     1       3.077   6.274  19.320  0.00  0.00    +0.000 C 
ATOM      8  O   UNL     1       3.054   5.375  20.150  0.00  0.00    +0.000 OA
ATOM      9  N   UNL     1       3.887   6.256  18.206  0.00  0.00    +0.000 N 
ATOM     10  H   UNL     1       4.001   7.076  17.626  0.00  0.00    +0.000 HD
BRANCH   9  11
ATOM     11  C   UNL     1       4.814   5.170  17.971  0.00  0.00    +0.000 C 
BRANCH  11  12
ATOM     12  C   UNL     1       6.180   5.657  17.355  0.00  0.00    +0.000 C 
ATOM     13  C   UNL     1       6.989   4.411  16.891  0.00  0.00    +0.000 C 
ATOM     14  C   UNL     1       6.342   3.641  15.735  0.00  0.00    +0.000 C 
ATOM     15  C   UNL     1       6.017   4.548  14.554  0.00  0.00    +0.000 C 
ATOM     16  C   UNL     1       5.168   5.744  14.967  0.00  0.00    +0.000 C 
ATOM     17  C   UNL     1       5.841   6.527  16.098  0.00  0.00    +0.000 C 
BRANCH  12  18
ATOM     18  N   UNL     1       6.922   6.490  18.376  0.00  0.00    +0.000 NA
ATOM     19  C   UNL     1       7.749   5.708  19.307  0.00  0.00    +0.000 C 
ATOM     20  C   UNL     1       7.779   7.540  17.804  0.00  0.00    +0.000 C 
ENDBRANCH  12  18
ENDBRANCH  11  12
ENDBRANCH   9  11
ENDBRANCH   4   7
BRANCH   2  21
ATOM     21  O   UNL     1       1.623  10.572  17.654  0.00  0.00    +0.000 OA
ATOM     22  C   UNL     1       2.298  11.803  17.897  0.00  0.00    +0.000 C 
ENDBRANCH   2  21
BRANCH   6  23
ATOM     23  O   UNL     1      -0.196   8.694  21.855  0.00  0.00    +0.000 OA
ATOM     24  C   UNL     1       0.133   9.478  22.986  0.00  0.00    +0.000 C 
ENDBRANCH   6  23
BRANCH   1  25
ATOM     25  O   UNL     1      -0.250  10.866  19.889  0.00  0.00    +0.000 OA
BRANCH  25  26
ATOM     26  C   UNL     1      -1.496  10.788  19.197  0.00  0.00    +0.000 C 
BRANCH  26  27
ATOM     27  C   UNL     1      -1.651  11.817  18.078  0.00  0.00    +0.000 C 
BRANCH  27  29
ATOM     28  C   UNL     1      -2.506  10.359  16.164  0.00  0.00    +0.000 C 
ATOM     29  C   UNL     1      -2.849  11.401  17.211  0.00  0.00    +0.000 C 
ENDBRANCH  27  29
ENDBRANCH  26  27
ENDBRANCH  25  26
ENDBRANCH   1  25
TORSDOF 10
ENDMDL
MODEL 8
REMARK VINA RESULT:      -6.3      2.547      8.318
REMARK  Name = 
REMARK  15 active torsions:
REMARK  status: ('A' for Active; 'I' for Inactive)
REMARK    1  A    between atoms: C_1  and  C_2
REMARK    2  A    between atoms: C_2  and  C_3
REMARK    3  A    between atoms: C_3  and  C_4
REMARK    4  A    between atoms: C_4  and  O_5
REMARK    5  A    between atoms: O_5  and  C_6
REMARK    6  A    between atoms: C_7  and  O_8
REMARK    7  A    between atoms: O_8  and  C_9
REMARK    8  A    between atoms: C_11  and  C_12
REMARK    9  A    between atoms: N_14  and  C_15
REMARK   10  A    between atoms: C_15  and  C_16
REMARK   11  A    between atoms: C_16  and  N_17
REMARK   12  A    between atoms: N_17  and  C_18
REMARK   13  A    between atoms: N_17  and  C_19
REMARK   14  A    between atoms: C_26  and  O_27
REMARK   15  A    between atoms: O_27  and  C_28
REMARK                            x       y       z     vdW  Elec       q    Type
REMARK                         _______ _______ _______ _____ _____    ______ ____
ROOT
ATOM      1  C   UNL     1      -0.128  11.611  20.501  0.00  0.00    +0.000 A 
ATOM      2  C   UNL     1       0.569  11.892  19.285  0.00  0.00    +0.000 A 
ATOM      3  C   UNL     1       1.243  10.868  18.611  0.00  0.00    +0.000 A 
ATOM      4  C   UNL     1       1.277   9.574  19.116  0.00  0.00    +0.000 A 
ATOM      5  C   UNL     1       0.666   9.299  20.333  0.00  0.00    +0.000 A 
ATOM      6  C   UNL     1      -0.044  10.297  21.026  0.00  0.00    +0.000 A 
ENDROOT
BRANCH   4   7
ATOM      7  C   UNL     1       1.974   8.548  18.306  0.00  0.00    +0.000 C 
ATOM      8  O   UNL     1       2.423   8.849  17.207  0.00  0.00    +0.000 OA
ATOM      9  N   UNL     1       2.032   7.273  18.825  0.00  0.00    +0.000 N 
ATOM     10  H   UNL     1       1.517   7.021  19.657  0.00  0.00    +0.000 HD
BRANCH   9  11
ATOM     11  C   UNL     1       2.597   6.180  18.064  0.00  0.00    +0.000 C 
BRANCH  11  12
ATOM     12  C   UNL     1       3.346   5.131  18.969  0.00  0.00    +0.000 C 
ATOM     13  C   UNL     1       2.694   5.136  20.383  0.00  0.00    +0.000 C 
ATOM     14  C   UNL     1       1.245   4.639  20.403  0.00  0.00    +0.000 C 
ATOM     15  C   UNL     1       1.098   3.274  19.742  0.00  0.00    +0.000 C 
ATOM     16  C   UNL     1       1.669   3.256  18.330  0.00  0.00    +0.000 C 
ATOM     17  C   UNL     1       3.129   3.719  18.326  0.00  0.00    +0.000 C 
BRANCH  12  18
ATOM     18  N   UNL     1       4.821   5.461  19.005  0.00  0.00    +0.000 NA
ATOM     19  C   UNL     1       5.697   4.295  19.198  0.00  0.00    +0.000 C 
ATOM     20  C   UNL     1       5.315   6.190  17.825  0.00  0.00    +0.000 C 
ENDBRANCH  12  18
ENDBRANCH  11  12
ENDBRANCH   9  11
ENDBRANCH   4   7
BRANCH   2  21
ATOM     21  O   UNL     1       0.487  13.130  18.699  0.00  0.00    +0.000 OA
ATOM     22  C   UNL     1       1.485  14.100  19.008  0.00  0.00    +0.000 C 
ENDBRANCH   2  21
BRANCH   6  23
ATOM     23  O   UNL     1      -0.560   9.781  22.186  0.00  0.00    +0.000 OA
ATOM     24  C   UNL     1       0.297   9.458  23.265  0.00  0.00    +0.000 C 
ENDBRANCH   6  23
BRANCH   1  25
ATOM     25  O   UNL     1      -0.873  12.530  21.224  0.00  0.00    +0.000 OA
BRANCH  25  26
ATOM     26  C   UNL     1      -2.292  12.407  21.140  0.00  0.00    +0.000 C 
BRANCH  26  27
ATOM     27  C   UNL     1      -3.049  13.190  22.214  0.00  0.00    +0.000 C 
BRANCH  27  29
ATOM     28  C   UNL     1      -4.191  12.532  24.400  0.00  0.00    +0.000 C 
ATOM     29  C   UNL     1      -2.957  12.403  23.530  0.00  0.00    +0.000 C 
ENDBRANCH  27  29
ENDBRANCH  26  27
ENDBRANCH  25  26
ENDBRANCH   1  25
TORSDOF 10
ENDMDL
MODEL 9
REMARK VINA RESULT:      -6.3      1.036      2.964
REMARK  Name = 
REMARK  15 active torsions:
REMARK  status: ('A' for Active; 'I' for Inactive)
REMARK    1  A    between atoms: C_1  and  C_2
REMARK    2  A    between atoms: C_2  and  C_3
REMARK    3  A    between atoms: C_3  and  C_4
REMARK    4  A    between atoms: C_4  and  O_5
REMARK    5  A    between atoms: O_5  and  C_6
REMARK    6  A    between atoms: C_7  and  O_8
REMARK    7  A    between atoms: O_8  and  C_9
REMARK    8  A    between atoms: C_11  and  C_12
REMARK    9  A    between atoms: N_14  and  C_15
REMARK   10  A    between atoms: C_15  and  C_16
REMARK   11  A    between atoms: C_16  and  N_17
REMARK   12  A    between atoms: N_17  and  C_18
REMARK   13  A    between atoms: N_17  and  C_19
REMARK   14  A    between atoms: C_26  and  O_27
REMARK   15  A    between atoms: O_27  and  C_28
REMARK                            x       y       z     vdW  Elec       q    Type
REMARK                         _______ _______ _______ _____ _____    ______ ____
ROOT
ATOM      1  C   UNL     1       4.277   5.520  17.791  0.00  0.00    +0.000 A 
ATOM      2  C   UNL     1       3.020   5.516  18.471  0.00  0.00    +0.000 A 
ATOM      3  C   UNL     1       2.259   6.686  18.546  0.00  0.00    +0.000 A 
ATOM      4  C   UNL     1       2.714   7.878  17.992  0.00  0.00    +0.000 A 
ATOM      5  C   UNL     1       3.964   7.917  17.389  0.00  0.00    +0.000 A 
ATOM      6  C   UNL     1       4.747   6.753  17.272  0.00  0.00    +0.000 A 
ENDROOT
BRANCH   4   7
ATOM      7  C   UNL     1       1.815   9.052  18.078  0.00  0.00    +0.000 C 
ATOM      8  O   UNL     1       2.034  10.033  17.379  0.00  0.00    +0.000 OA
ATOM      9  N   UNL     1       0.791   8.991  18.998  0.00  0.00    +0.000 N 
ATOM     10  H   UNL     1       0.731   8.236  19.667  0.00  0.00    +0.000 HD
BRANCH   9  11
ATOM     11  C   UNL     1      -0.076  10.126  19.231  0.00  0.00    +0.000 C 
BRANCH  11  12
ATOM     12  C   UNL     1       0.089  10.731  20.676  0.00  0.00    +0.000 C 
ATOM     13  C   UNL     1       1.393  11.580  20.715  0.00  0.00    +0.000 C 
ATOM     14  C   UNL     1       1.356  12.823  19.820  0.00  0.00    +0.000 C 
ATOM     15  C   UNL     1       0.135  13.691  20.096  0.00  0.00    +0.000 C 
ATOM     16  C   UNL     1      -1.164  12.901  20.000  0.00  0.00    +0.000 C 
ATOM     17  C   UNL     1      -1.131  11.681  20.926  0.00  0.00    +0.000 C 
BRANCH  12  18
ATOM     18  N   UNL     1       0.088   9.612  21.692  0.00  0.00    +0.000 NA
ATOM     19  C   UNL     1       1.429   9.204  22.141  0.00  0.00    +0.000 C 
ATOM     20  C   UNL     1      -0.715   9.876  22.896  0.00  0.00    +0.000 C 
ENDBRANCH  12  18
ENDBRANCH  11  12
ENDBRANCH   9  11
ENDBRANCH   4   7
BRANCH   2  21
ATOM     21  O   UNL     1       2.487   4.346  18.952  0.00  0.00    +0.000 OA
ATOM     22  C   UNL     1       2.731   3.991  20.311  0.00  0.00    +0.000 C 
ENDBRANCH   2  21
BRANCH   6  23
ATOM     23  O   UNL     1       5.925   7.046  16.636  0.00  0.00    +0.000 OA
ATOM     24  C   UNL     1       7.106   7.258  17.386  0.00  0.00    +0.000 C 
ENDBRANCH   6  23
BRANCH   1  25
ATOM     25  O   UNL     1       5.089   4.411  17.606  0.00  0.00    +0.000 OA
BRANCH  25  26
ATOM     26  C   UNL     1       4.973   3.736  16.354  0.00  0.00    +0.000 C 
BRANCH  26  27
ATOM     27  C   UNL     1       6.241   3.782  15.503  0.00  0.00    +0.000 C 
BRANCH  27  29
ATOM     28  C   UNL     1       6.021   3.584  12.967  0.00  0.00    +0.000 C 
ATOM     29  C   UNL     1       5.902   4.485  14.180  0.00  0.00    +0.000 C 
ENDBRANCH  27  29
ENDBRANCH  26  27
ENDBRANCH  25  26
ENDBRANCH   1  25
TORSDOF 10
ENDMDL
