MODEL 1
REMARK VINA RESULT:      -8.4      0.000      0.000
REMARK  Name = 
REMARK  5 active torsions:
REMARK  status: ('A' for Active; 'I' for Inactive)
REMARK    1  A    between atoms: C_1  and  C_2
REMARK    2  A    between atoms: C_2  and  C_3
REMARK    3  A    between atoms: C_2  and  C_4
REMARK    4  A    between atoms: CA_6  and  C_7
REMARK    5  A    between atoms: C_7  and  OXT_9
REMARK                            x       y       z     vdW  Elec       q    Type
REMARK                         _______ _______ _______ _____ _____    ______ ____
ROOT
ATOM      1  C   UNL     1       7.098   4.697  17.906  0.00  0.00    +0.000 C 
ATOM      2  N   UNL     1       7.473   4.581  16.468  0.00  0.00    +0.000 NA
ATOM      3  CA  UNL     1       6.316   4.846  15.523  0.00  0.00    +0.000 C 
ATOM      4  C   UNL     1       5.100   3.920  15.732  0.00  0.00    +0.000 C 
ATOM      5  C   UNL     1       4.778   3.855  17.180  0.00  0.00    +0.000 A 
ATOM      6  C   UNL     1       5.719   4.171  18.136  0.00  0.00    +0.000 A 
ATOM      7  N   UNL     1       5.148   3.976  19.365  0.00  0.00    +0.000 N 
ATOM      8  C   UNL     1       3.815   3.662  19.217  0.00  0.00    +0.000 A 
ATOM      9  C   UNL     1       2.824   3.466  20.186  0.00  0.00    +0.000 A 
ATOM     10  C   UNL     1       1.529   3.190  19.739  0.00  0.00    +0.000 A 
ATOM     11  C   UNL     1       1.242   3.097  18.380  0.00  0.00    +0.000 A 
ATOM     12  C   UNL     1       2.247   3.277  17.423  0.00  0.00    +0.000 A 
ATOM     13  C   UNL     1       3.557   3.573  17.847  0.00  0.00    +0.000 A 
ATOM     14  H   UNL     1       7.697   3.587  16.339  0.00  0.00    +0.000 HD
ATOM     15  H   UNL     1       5.603   4.118  20.257  0.00  0.00    +0.000 HD
ENDROOT
BRANCH   1  17
ATOM     16  C   UNL     1       8.287   6.060  19.711  0.00  0.00    +0.000 C 
ATOM     17  C   UNL     1       7.303   6.104  18.539  0.00  0.00    +0.000 C 
ATOM     18  C   UNL     1       7.714   7.209  17.562  0.00  0.00    +0.000 C 
ENDBRANCH   1  17
BRANCH   3  19
ATOM     19  C   UNL     1       6.838   4.695  14.087  0.00  0.00    +0.000 C 
ATOM     20  O   UNL     1       7.592   5.464  13.517  0.00  0.00    +0.000 OA
BRANCH  19  21
ATOM     21  OXT UNL     1       6.372   3.551  13.514  0.00  0.00    +0.000 OA
ATOM     22  HXT UNL     1       5.455   3.744  13.198  0.00  0.00    +0.000 HD
ENDBRANCH  19  21
ENDBRANCH   3  19
TORSDOF 3
ENDMDL
MODEL 2
REMARK VINA RESULT:      -8.3      0.519      1.197
REMARK  Name = 
REMARK  5 active torsions:
REMARK  status: ('A' for Active; 'I' for Inactive)
REMARK    1  A    between atoms: C_1  and  C_2
REMARK    2  A    between atoms: C_2  and  C_3
REMARK    3  A    between atoms: C_2  and  C_4
REMARK    4  A    between atoms: CA_6  and  C_7
REMARK    5  A    between atoms: C_7  and  OXT_9
REMARK                            x       y       z     vdW  Elec       q    Type
REMARK                         _______ _______ _______ _____ _____    ______ ____
ROOT
ATOM      1  C   UNL     1       7.446   4.578  17.553  0.00  0.00    +0.000 C 
ATOM      2  N   UNL     1       7.753   4.490  16.097  0.00  0.00    +0.000 NA
ATOM      3  CA  UNL     1       6.594   4.907  15.212  0.00  0.00    +0.000 C 
ATOM      4  C   UNL     1       5.301   4.097  15.433  0.00  0.00    +0.000 C 
ATOM      5  C   UNL     1       5.028   3.999  16.890  0.00  0.00    +0.000 A 
ATOM      6  C   UNL     1       6.031   4.179  17.819  0.00  0.00    +0.000 A 
ATOM      7  N   UNL     1       5.489   3.987  19.061  0.00  0.00    +0.000 N 
ATOM      8  C   UNL     1       4.127   3.811  18.955  0.00  0.00    +0.000 A 
ATOM      9  C   UNL     1       3.158   3.670  19.956  0.00  0.00    +0.000 A 
ATOM     10  C   UNL     1       1.826   3.541  19.553  0.00  0.00    +0.000 A 
ATOM     11  C   UNL     1       1.481   3.538  18.203  0.00  0.00    +0.000 A 
ATOM     12  C   UNL     1       2.463   3.661  17.214  0.00  0.00    +0.000 A 
ATOM     13  C   UNL     1       3.811   3.808  17.595  0.00  0.00    +0.000 A 
ATOM     14  H   UNL     1       7.873   3.485  15.919  0.00  0.00    +0.000 HD
ATOM     15  H   UNL     1       5.988   4.044  19.938  0.00  0.00    +0.000 HD
ENDROOT
BRANCH   1  17
ATOM     16  C   UNL     1       6.868   7.054  17.804  0.00  0.00    +0.000 C 
ATOM     17  C   UNL     1       7.812   5.928  18.233  0.00  0.00    +0.000 C 
ATOM     18  C   UNL     1       7.906   5.888  19.761  0.00  0.00    +0.000 C 
ENDBRANCH   1  17
BRANCH   3  19
ATOM     19  C   UNL     1       7.045   4.770  13.751  0.00  0.00    +0.000 C 
ATOM     20  O   UNL     1       6.558   4.021  12.922  0.00  0.00    +0.000 OA
BRANCH  19  21
ATOM     21  OXT UNL     1       8.061   5.631  13.468  0.00  0.00    +0.000 OA
ATOM     22  HXT UNL     1       8.900   5.110  13.529  0.00  0.00    +0.000 HD
ENDBRANCH  19  21
ENDBRANCH   3  19
TORSDOF 3
ENDMDL
MODEL 3
REMARK VINA RESULT:      -7.8      0.807      1.001
REMARK  Name = 
REMARK  5 active torsions:
REMARK  status: ('A' for Active; 'I' for Inactive)
REMARK    1  A    between atoms: C_1  and  C_2
REMARK    2  A    between atoms: C_2  and  C_3
REMARK    3  A    between atoms: C_2  and  C_4
REMARK    4  A    between atoms: CA_6  and  C_7
REMARK    5  A    between atoms: C_7  and  OXT_9
REMARK                            x       y       z     vdW  Elec       q    Type
REMARK                         _______ _______ _______ _____ _____    ______ ____
ROOT
ATOM      1  C   UNL     1       6.979   5.275  17.636  0.00  0.00    +0.000 C 
ATOM      2  N   UNL     1       7.407   5.043  16.227  0.00  0.00    +0.000 NA
ATOM      3  CA  UNL     1       6.248   4.790  15.282  0.00  0.00    +0.000 C 
ATOM      4  C   UNL     1       5.361   3.589  15.670  0.00  0.00    +0.000 C 
ATOM      5  C   UNL     1       5.037   3.668  17.117  0.00  0.00    +0.000 A 
ATOM      6  C   UNL     1       5.816   4.404  17.985  0.00  0.00    +0.000 A 
ATOM      7  N   UNL     1       5.299   4.251  19.243  0.00  0.00    +0.000 N 
ATOM      8  C   UNL     1       4.126   3.530  19.182  0.00  0.00    +0.000 A 
ATOM      9  C   UNL     1       3.216   3.208  20.195  0.00  0.00    +0.000 A 
ATOM     10  C   UNL     1       2.075   2.486  19.833  0.00  0.00    +0.000 A 
ATOM     11  C   UNL     1       1.863   2.090  18.515  0.00  0.00    +0.000 A 
ATOM     12  C   UNL     1       2.792   2.405  17.516  0.00  0.00    +0.000 A 
ATOM     13  C   UNL     1       3.942   3.145  17.853  0.00  0.00    +0.000 A 
ATOM     14  H   UNL     1       7.923   4.155  16.257  0.00  0.00    +0.000 HD
ATOM     15  H   UNL     1       5.668   4.666  20.088  0.00  0.00    +0.000 HD
ENDROOT
BRANCH   1  17
ATOM     16  C   UNL     1       7.891   7.661  17.576  0.00  0.00    +0.000 C 
ATOM     17  C   UNL     1       6.736   6.761  18.025  0.00  0.00    +0.000 C 
ATOM     18  C   UNL     1       5.406   7.354  17.550  0.00  0.00    +0.000 C 
ENDBRANCH   1  17
BRANCH   3  19
ATOM     19  C   UNL     1       6.827   4.569  13.877  0.00  0.00    +0.000 C 
ATOM     20  O   UNL     1       7.610   5.307  13.304  0.00  0.00    +0.000 OA
BRANCH  19  21
ATOM     21  OXT UNL     1       6.377   3.403  13.338  0.00  0.00    +0.000 OA
ATOM     22  HXT UNL     1       7.162   2.809  13.250  0.00  0.00    +0.000 HD
ENDBRANCH  19  21
ENDBRANCH   3  19
TORSDOF 3
ENDMDL
MODEL 4
REMARK VINA RESULT:      -7.8      3.674      5.990
REMARK  Name = 
REMARK  5 active torsions:
REMARK  status: ('A' for Active; 'I' for Inactive)
REMARK    1  A    between atoms: C_1  and  C_2
REMARK    2  A    between atoms: C_2  and  C_3
REMARK    3  A    between atoms: C_2  and  C_4
REMARK    4  A    between atoms: CA_6  and  C_7
REMARK    5  A    between atoms: C_7  and  OXT_9
REMARK                            x       y       z     vdW  Elec       q    Type
REMARK                         _______ _______ _______ _____ _____    ______ ____
ROOT
ATOM      1  C   UNL     1       3.234   4.303  19.910  0.00  0.00    +0.000 C 
ATOM      2  N   UNL     1       2.735   5.603  20.442  0.00  0.00    +0.000 NA
ATOM      3  CA  UNL     1       2.333   6.582  19.355  0.00  0.00    +0.000 C 
ATOM      4  C   UNL     1       3.460   6.924  18.358  0.00  0.00    +0.000 C 
ATOM      5  C   UNL     1       4.119   5.668  17.916  0.00  0.00    +0.000 A 
ATOM      6  C   UNL     1       4.033   4.514  18.665  0.00  0.00    +0.000 A 
ATOM      7  N   UNL     1       4.770   3.549  18.032  0.00  0.00    +0.000 N 
ATOM      8  C   UNL     1       5.225   4.028  16.822  0.00  0.00    +0.000 A 
ATOM      9  C   UNL     1       5.935   3.375  15.808  0.00  0.00    +0.000 A 
ATOM     10  C   UNL     1       6.237   4.108  14.657  0.00  0.00    +0.000 A 
ATOM     11  C   UNL     1       5.857   5.442  14.533  0.00  0.00    +0.000 A 
ATOM     12  C   UNL     1       5.163   6.086  15.565  0.00  0.00    +0.000 A 
ATOM     13  C   UNL     1       4.833   5.365  16.728  0.00  0.00    +0.000 A 
ATOM     14  H   UNL     1       3.555   6.029  20.892  0.00  0.00    +0.000 HD
ATOM     15  H   UNL     1       4.900   2.600  18.353  0.00  0.00    +0.000 HD
ENDROOT
BRANCH   1  17
ATOM     16  C   UNL     1       1.244   3.094  20.960  0.00  0.00    +0.000 C 
ATOM     17  C   UNL     1       2.158   3.194  19.735  0.00  0.00    +0.000 C 
ATOM     18  C   UNL     1       1.308   3.299  18.466  0.00  0.00    +0.000 C 
ENDBRANCH   1  17
BRANCH   3  19
ATOM     19  C   UNL     1       1.842   7.866  20.037  0.00  0.00    +0.000 C 
ATOM     20  O   UNL     1       1.462   8.876  19.469  0.00  0.00    +0.000 OA
BRANCH  19  21
ATOM     21  OXT UNL     1       1.848   7.735  21.393  0.00  0.00    +0.000 OA
ATOM     22  HXT UNL     1       1.690   6.779  21.587  0.00  0.00    +0.000 HD
ENDBRANCH  19  21
ENDBRANCH   3  19
TORSDOF 3
ENDMDL
MODEL 5
REMARK VINA RESULT:      -7.5      2.363      3.719
REMARK  Name = 
REMARK  5 active torsions:
REMARK  status: ('A' for Active; 'I' for Inactive)
REMARK    1  A    between atoms: C_1  and  C_2
REMARK    2  A    between atoms: C_2  and  C_3
REMARK    3  A    between atoms: C_2  and  C_4
REMARK    4  A    between atoms: CA_6  and  C_7
REMARK    5  A    between atoms: C_7  and  OXT_9
REMARK                            x       y       z     vdW  Elec       q    Type
REMARK                         _______ _______ _______ _____ _____    ______ ____
ROOT
ATOM      1  C   UNL     1       5.054   5.624  16.495  0.00  0.00    +0.000 C 
ATOM      2  N   UNL     1       6.237   6.214  17.183  0.00  0.00    +0.000 NA
ATOM      3  CA  UNL     1       6.673   5.430  18.406  0.00  0.00    +0.000 C 
ATOM      4  C   UNL     1       5.580   5.270  19.482  0.00  0.00    +0.000 C 
ATOM      5  C   UNL     1       4.313   4.845  18.833  0.00  0.00    +0.000 A 
ATOM      6  C   UNL     1       4.092   5.061  17.490  0.00  0.00    +0.000 A 
ATOM      7  N   UNL     1       2.834   4.607  17.196  0.00  0.00    +0.000 N 
ATOM      8  C   UNL     1       2.291   3.987  18.300  0.00  0.00    +0.000 A 
ATOM      9  C   UNL     1       1.077   3.304  18.441  0.00  0.00    +0.000 A 
ATOM     10  C   UNL     1       0.797   2.735  19.687  0.00  0.00    +0.000 A 
ATOM     11  C   UNL     1       1.688   2.859  20.750  0.00  0.00    +0.000 A 
ATOM     12  C   UNL     1       2.889   3.560  20.598  0.00  0.00    +0.000 A 
ATOM     13  C   UNL     1       3.202   4.129  19.349  0.00  0.00    +0.000 A 
ATOM     14  H   UNL     1       5.900   7.112  17.551  0.00  0.00    +0.000 HD
ATOM     15  H   UNL     1       2.391   4.641  16.288  0.00  0.00    +0.000 HD
ENDROOT
BRANCH   1  17
ATOM     16  C   UNL     1       6.579   5.068  14.522  0.00  0.00    +0.000 C 
ATOM     17  C   UNL     1       5.376   4.616  15.355  0.00  0.00    +0.000 C 
ATOM     18  C   UNL     1       5.574   3.164  15.800  0.00  0.00    +0.000 C 
ENDBRANCH   1  17
BRANCH   3  19
ATOM     19  C   UNL     1       7.891   6.142  19.011  0.00  0.00    +0.000 C 
ATOM     20  O   UNL     1       8.334   7.223  18.661  0.00  0.00    +0.000 OA
BRANCH  19  21
ATOM     21  OXT UNL     1       8.422   5.421  20.037  0.00  0.00    +0.000 OA
ATOM     22  HXT UNL     1       8.772   4.583  19.645  0.00  0.00    +0.000 HD
ENDBRANCH  19  21
ENDBRANCH   3  19
TORSDOF 3
ENDMDL
MODEL 6
REMARK VINA RESULT:      -7.4      3.984      5.959
REMARK  Name = 
REMARK  5 active torsions:
REMARK  status: ('A' for Active; 'I' for Inactive)
REMARK    1  A    between atoms: C_1  and  C_2
REMARK    2  A    between atoms: C_2  and  C_3
REMARK    3  A    between atoms: C_2  and  C_4
REMARK    4  A    between atoms: CA_6  and  C_7
REMARK    5  A    between atoms: C_7  and  OXT_9
REMARK                            x       y       z     vdW  Elec       q    Type
REMARK                         _______ _______ _______ _____ _____    ______ ____
ROOT
ATOM      1  C   UNL     1       2.828   5.901  19.880  0.00  0.00    +0.000 C 
ATOM      2  N   UNL     1       2.315   7.301  19.886  0.00  0.00    +0.000 NA
ATOM      3  CA  UNL     1       2.051   7.848  18.496  0.00  0.00    +0.000 C 
ATOM      4  C   UNL     1       3.279   7.838  17.563  0.00  0.00    +0.000 C 
ATOM      5  C   UNL     1       3.944   6.512  17.644  0.00  0.00    +0.000 A 
ATOM      6  C   UNL     1       3.752   5.681  18.727  0.00  0.00    +0.000 A 
ATOM      7  N   UNL     1       4.520   4.564  18.538  0.00  0.00    +0.000 N 
ATOM      8  C   UNL     1       5.106   4.606  17.292  0.00  0.00    +0.000 A 
ATOM      9  C   UNL     1       5.895   3.652  16.638  0.00  0.00    +0.000 A 
ATOM     10  C   UNL     1       6.330   3.951  15.343  0.00  0.00    +0.000 A 
ATOM     11  C   UNL     1       6.002   5.161  14.736  0.00  0.00    +0.000 A 
ATOM     12  C   UNL     1       5.228   6.112  15.411  0.00  0.00    +0.000 A 
ATOM     13  C   UNL     1       4.764   5.828  16.710  0.00  0.00    +0.000 A 
ATOM     14  H   UNL     1       3.098   7.860  20.246  0.00  0.00    +0.000 HD
ATOM     15  H   UNL     1       4.591   3.782  19.174  0.00  0.00    +0.000 HD
ENDROOT
BRANCH   1  17
ATOM     16  C   UNL     1       1.476   4.133  18.626  0.00  0.00    +0.000 C 
ATOM     17  C   UNL     1       1.743   4.791  19.983  0.00  0.00    +0.000 C 
ATOM     18  C   UNL     1       2.007   3.711  21.036  0.00  0.00    +0.000 C 
ENDBRANCH   1  17
BRANCH   3  19
ATOM     19  C   UNL     1       1.530   9.284  18.647  0.00  0.00    +0.000 C 
ATOM     20  O   UNL     1       0.996   9.749  19.640  0.00  0.00    +0.000 OA
BRANCH  19  21
ATOM     21  OXT UNL     1       1.768  10.013  17.522  0.00  0.00    +0.000 OA
ATOM     22  HXT UNL     1       1.735  10.965  17.789  0.00  0.00    +0.000 HD
ENDBRANCH  19  21
ENDBRANCH   3  19
TORSDOF 3
ENDMDL
MODEL 7
REMARK VINA RESULT:      -7.2      2.328      3.704
REMARK  Name = 
REMARK  5 active torsions:
REMARK  status: ('A' for Active; 'I' for Inactive)
REMARK    1  A    between atoms: C_1  and  C_2
REMARK    2  A    between atoms: C_2  and  C_3
REMARK    3  A    between atoms: C_2  and  C_4
REMARK    4  A    between atoms: CA_6  and  C_7
REMARK    5  A    between atoms: C_7  and  OXT_9
REMARK                            x       y       z     vdW  Elec       q    Type
REMARK                         _______ _______ _______ _____ _____    ______ ____
ROOT
ATOM      1  C   UNL     1       5.467   5.441  15.472  0.00  0.00    +0.000 C 
ATOM      2  N   UNL     1       6.329   6.517  16.039  0.00  0.00    +0.000 NA
ATOM      3  CA  UNL     1       6.899   6.172  17.402  0.00  0.00    +0.000 C 
ATOM      4  C   UNL     1       5.838   5.855  18.475  0.00  0.00    +0.000 C 
ATOM      5  C   UNL     1       4.840   4.911  17.911  0.00  0.00    +0.000 A 
ATOM      6  C   UNL     1       4.668   4.782  16.549  0.00  0.00    +0.000 A 
ATOM      7  N   UNL     1       3.659   3.880  16.338  0.00  0.00    +0.000 N 
ATOM      8  C   UNL     1       3.265   3.332  17.539  0.00  0.00    +0.000 A 
ATOM      9  C   UNL     1       2.338   2.316  17.801  0.00  0.00    +0.000 A 
ATOM     10  C   UNL     1       2.162   1.930  19.133  0.00  0.00    +0.000 A 
ATOM     11  C   UNL     1       2.873   2.547  20.160  0.00  0.00    +0.000 A 
ATOM     12  C   UNL     1       3.783   3.573  19.883  0.00  0.00    +0.000 A 
ATOM     13  C   UNL     1       3.990   3.969  18.548  0.00  0.00    +0.000 A 
ATOM     14  H   UNL     1       5.685   7.299  16.213  0.00  0.00    +0.000 HD
ATOM     15  H   UNL     1       3.304   3.591  15.437  0.00  0.00    +0.000 HD
ENDROOT
BRANCH   1  17
ATOM     16  C   UNL     1       5.277   3.875  13.463  0.00  0.00    +0.000 C 
ATOM     17  C   UNL     1       6.195   4.408  14.566  0.00  0.00    +0.000 C 
ATOM     18  C   UNL     1       7.513   4.889  13.952  0.00  0.00    +0.000 C 
ENDBRANCH   1  17
BRANCH   3  19
ATOM     19  C   UNL     1       7.760   7.356  17.864  0.00  0.00    +0.000 C 
ATOM     20  O   UNL     1       7.822   8.448  17.324  0.00  0.00    +0.000 OA
BRANCH  19  21
ATOM     21  OXT UNL     1       8.446   7.051  19.000  0.00  0.00    +0.000 OA
ATOM     22  HXT UNL     1       8.586   6.072  18.992  0.00  0.00    +0.000 HD
ENDBRANCH  19  21
ENDBRANCH   3  19
TORSDOF 3
ENDMDL
MODEL 8
REMARK VINA RESULT:      -7.2      4.039      6.302
REMARK  Name = 
REMARK  5 active torsions:
REMARK  status: ('A' for Active; 'I' for Inactive)
REMARK    1  A    between atoms: C_1  and  C_2
REMARK    2  A    between atoms: C_2  and  C_3
REMARK    3  A    between atoms: C_2  and  C_4
REMARK    4  A    between atoms: CA_6  and  C_7
REMARK    5  A    between atoms: C_7  and  OXT_9
REMARK                            x       y       z     vdW  Elec       q    Type
REMARK                         _______ _______ _______ _____ _____    ______ ____
ROOT
ATOM      1  C   UNL     1       2.590   4.816  20.406  0.00  0.00    +0.000 C 
ATOM      2  N   UNL     1       2.162   6.156  20.900  0.00  0.00    +0.000 NA
ATOM      3  CA  UNL     1       1.887   7.146  19.784  0.00  0.00    +0.000 C 
ATOM      4  C   UNL     1       3.083   7.391  18.841  0.00  0.00    +0.000 C 
ATOM      5  C   UNL     1       3.669   6.085  18.445  0.00  0.00    +0.000 A 
ATOM      6  C   UNL     1       3.462   4.951  19.200  0.00  0.00    +0.000 A 
ATOM      7  N   UNL     1       4.155   3.926  18.614  0.00  0.00    +0.000 N 
ATOM      8  C   UNL     1       4.703   4.354  17.424  0.00  0.00    +0.000 A 
ATOM      9  C   UNL     1       5.412   3.637  16.453  0.00  0.00    +0.000 A 
ATOM     10  C   UNL     1       5.822   4.330  15.310  0.00  0.00    +0.000 A 
ATOM     11  C   UNL     1       5.548   5.687  15.155  0.00  0.00    +0.000 A 
ATOM     12  C   UNL     1       4.854   6.393  16.144  0.00  0.00    +0.000 A 
ATOM     13  C   UNL     1       4.416   5.714  17.297  0.00  0.00    +0.000 A 
ATOM     14  H   UNL     1       2.988   6.527  21.385  0.00  0.00    +0.000 HD
ATOM     15  H   UNL     1       4.200   2.974  18.951  0.00  0.00    +0.000 HD
ENDROOT
BRANCH   1  17
ATOM     16  C   UNL     1       1.160   3.559  18.702  0.00  0.00    +0.000 C 
ATOM     17  C   UNL     1       1.444   3.786  20.189  0.00  0.00    +0.000 C 
ATOM     18  C   UNL     1       1.633   2.438  20.890  0.00  0.00    +0.000 C 
ENDBRANCH   1  17
BRANCH   3  19
ATOM     19  C   UNL     1       1.459   8.472  20.428  0.00  0.00    +0.000 C 
ATOM     20  O   UNL     1       0.959   9.420  19.847  0.00  0.00    +0.000 OA
BRANCH  19  21
ATOM     21  OXT UNL     1       1.678   8.459  21.772  0.00  0.00    +0.000 OA
ATOM     22  HXT UNL     1       1.148   9.201  22.154  0.00  0.00    +0.000 HD
ENDBRANCH  19  21
ENDBRANCH   3  19
TORSDOF 3
ENDMDL
MODEL 9
REMARK VINA RESULT:      -7.1      4.067      6.431
REMARK  Name = 
REMARK  5 active torsions:
REMARK  status: ('A' for Active; 'I' for Inactive)
REMARK    1  A    between atoms: C_1  and  C_2
REMARK    2  A    between atoms: C_2  and  C_3
REMARK    3  A    between atoms: C_2  and  C_4
REMARK    4  A    between atoms: CA_6  and  C_7
REMARK    5  A    between atoms: C_7  and  OXT_9
REMARK                            x       y       z     vdW  Elec       q    Type
REMARK                         _______ _______ _______ _____ _____    ______ ____
ROOT
ATOM      1  C   UNL     1       2.932   4.308  20.644  0.00  0.00    +0.000 C 
ATOM      2  N   UNL     1       2.280   5.481  21.293  0.00  0.00    +0.000 NA
ATOM      3  CA  UNL     1       1.745   6.495  20.299  0.00  0.00    +0.000 C 
ATOM      4  C   UNL     1       2.807   7.065  19.336  0.00  0.00    +0.000 C 
ATOM      5  C   UNL     1       3.613   5.947  18.781  0.00  0.00    +0.000 A 
ATOM      6  C   UNL     1       3.681   4.729  19.422  0.00  0.00    +0.000 A 
ATOM      7  N   UNL     1       4.525   3.925  18.702  0.00  0.00    +0.000 N 
ATOM      8  C   UNL     1       4.901   4.564  17.541  0.00  0.00    +0.000 A 
ATOM      9  C   UNL     1       5.674   4.100  16.470  0.00  0.00    +0.000 A 
ATOM     10  C   UNL     1       5.867   4.965  15.390  0.00  0.00    +0.000 A 
ATOM     11  C   UNL     1       5.321   6.247  15.389  0.00  0.00    +0.000 A 
ATOM     12  C   UNL     1       4.566   6.702  16.475  0.00  0.00    +0.000 A 
ATOM     13  C   UNL     1       4.344   5.844  17.569  0.00  0.00    +0.000 A 
ATOM     14  H   UNL     1       3.046   5.965  21.778  0.00  0.00    +0.000 HD
ATOM     15  H   UNL     1       4.777   2.975  18.936  0.00  0.00    +0.000 HD
ENDROOT
BRANCH   1  17
ATOM     16  C   UNL     1       1.289   2.626  21.644  0.00  0.00    +0.000 C 
ATOM     17  C   UNL     1       2.000   3.093  20.371  0.00  0.00    +0.000 C 
ATOM     18  C   UNL     1       0.974   3.291  19.252  0.00  0.00    +0.000 C 
ENDBRANCH   1  17
BRANCH   3  19
ATOM     19  C   UNL     1       1.105   7.641  21.096  0.00  0.00    +0.000 C 
ATOM     20  O   UNL     1      -0.090   7.850  21.211  0.00  0.00    +0.000 OA
BRANCH  19  21
ATOM     21  OXT UNL     1       2.054   8.404  21.706  0.00  0.00    +0.000 OA
ATOM     22  HXT UNL     1       2.633   8.764  20.990  0.00  0.00    +0.000 HD
ENDBRANCH  19  21
ENDBRANCH   3  19
TORSDOF 3
ENDMDL
