MODEL 1
REMARK VINA RESULT:      -9.6      0.000      0.000
REMARK  Name = 
REMARK  9 active torsions:
REMARK  status: ('A' for Active; 'I' for Inactive)
REMARK    1  A    between atoms: C_1  and  C_2
REMARK    2  A    between atoms: C_2  and  C_4
REMARK    3  A    between atoms: C_7  and  C_8
REMARK    4  A    between atoms: C_8  and  C_9
REMARK    5  A    between atoms: C_12  and  C_13
REMARK    6  A    between atoms: C_14  and  C_15
REMARK    7  A    between atoms: C_20  and  C_21
REMARK    8  A    between atoms: C_21  and  N_22
REMARK    9  A    between atoms: C_24  and  O_25
REMARK                            x       y       z     vdW  Elec       q    Type
REMARK                         _______ _______ _______ _____ _____    ______ ____
ROOT
ATOM      1  C   UNL     1       1.280   9.301  18.279  0.00  0.00    +0.000 C 
ATOM      2  O   UNL     1       1.733   9.451  17.148  0.00  0.00    +0.000 OA
ATOM      3  N   UNL     1       1.669   8.291  19.159  0.00  0.00    +0.000 N 
ATOM      4  C   UNL     1       2.622   7.299  18.885  0.00  0.00    +0.000 A 
ATOM      5  C   UNL     1       2.654   6.159  19.680  0.00  0.00    +0.000 A 
ATOM      6  C   UNL     1       3.408   5.037  19.264  0.00  0.00    +0.000 A 
ATOM      7  C   UNL     1       4.059   5.126  18.001  0.00  0.00    +0.000 A 
ATOM      8  C   UNL     1       4.614   4.061  17.261  0.00  0.00    +0.000 A 
ATOM      9  C   UNL     1       5.484   4.291  16.193  0.00  0.00    +0.000 A 
ATOM     10  C   UNL     1       5.731   5.587  15.776  0.00  0.00    +0.000 A 
ATOM     11  C   UNL     1       5.021   6.632  16.362  0.00  0.00    +0.000 A 
ATOM     12  C   UNL     1       4.156   6.413  17.425  0.00  0.00    +0.000 A 
ATOM     13  N   UNL     1       3.451   7.457  17.855  0.00  0.00    +0.000 NA
ATOM     14  H   UNL     1       1.117   8.192  19.996  0.00  0.00    +0.000 HD
ENDROOT
BRANCH   1  22
ATOM     15  C   UNL     1      -1.580  12.746  21.122  0.00  0.00    +0.000 A 
ATOM     16  C   UNL     1      -2.890  13.216  20.977  0.00  0.00    +0.000 A 
ATOM     17  C   UNL     1      -3.715  12.701  19.994  0.00  0.00    +0.000 A 
ATOM     18  C   UNL     1      -3.245  11.746  19.072  0.00  0.00    +0.000 A 
ATOM     19  C   UNL     1      -1.876  11.302  19.123  0.00  0.00    +0.000 A 
ATOM     20  C   UNL     1      -1.050  10.450  18.241  0.00  0.00    +0.000 A 
ATOM     21  C   UNL     1      -1.473   9.925  16.895  0.00  0.00    +0.000 C 
ATOM     22  C   UNL     1       0.200  10.169  18.793  0.00  0.00    +0.000 A 
ATOM     23  S   UNL     1       0.427  11.002  20.253  0.00  0.00    +0.000 S 
ATOM     24  C   UNL     1      -1.098  11.785  20.195  0.00  0.00    +0.000 A 
BRANCH  15  26
ATOM     25  C   UNL     1       0.102  14.497  21.961  0.00  0.00    +0.000 C 
ATOM     26  C   UNL     1      -0.732  13.271  22.229  0.00  0.00    +0.000 C 
ATOM     27  O   UNL     1      -0.701  12.718  23.325  0.00  0.00    +0.000 OA
ENDBRANCH  15  26
BRANCH  18  28
ATOM     28  C   UNL     1      -4.252  11.118  18.165  0.00  0.00    +0.000 C 
ATOM     29  C   UNL     1      -4.851  11.907  17.020  0.00  0.00    +0.000 C 
ATOM     30  O   UNL     1      -4.621   9.965  18.378  0.00  0.00    +0.000 OA
ENDBRANCH  18  28
ENDBRANCH   1  22
BRANCH   6  31
ATOM     31  C   UNL     1       3.396   3.791  20.147  0.00  0.00    +0.000 C 
BRANCH  31  32
ATOM     32  N   UNL     1       2.309   2.791  20.197  0.00  0.00    +0.000 NA
ATOM     33  C   UNL     1       2.128   1.923  19.017  0.00  0.00    +0.000 C 
ATOM     34  C   UNL     1       0.891   2.758  18.604  0.00  0.00    +0.000 C 
ATOM     35  C   UNL     1       0.921   3.252  20.068  0.00  0.00    +0.000 C 
BRANCH  34  36
ATOM     36  O   UNL     1       1.065   3.702  17.525  0.00  0.00    +0.000 OA
ATOM     37  H   UNL     1       1.356   3.186  16.759  0.00  0.00    +0.000 HD
ENDBRANCH  34  36
ENDBRANCH  31  32
ENDBRANCH   6  31
TORSDOF 6
ENDMDL
MODEL 2
REMARK VINA RESULT:      -9.4      0.860      3.142
REMARK  Name = 
REMARK  9 active torsions:
REMARK  status: ('A' for Active; 'I' for Inactive)
REMARK    1  A    between atoms: C_1  and  C_2
REMARK    2  A    between atoms: C_2  and  C_4
REMARK    3  A    between atoms: C_7  and  C_8
REMARK    4  A    between atoms: C_8  and  C_9
REMARK    5  A    between atoms: C_12  and  C_13
REMARK    6  A    between atoms: C_14  and  C_15
REMARK    7  A    between atoms: C_20  and  C_21
REMARK    8  A    between atoms: C_21  and  N_22
REMARK    9  A    between atoms: C_24  and  O_25
REMARK                            x       y       z     vdW  Elec       q    Type
REMARK                         _______ _______ _______ _____ _____    ______ ____
ROOT
ATOM      1  C   UNL     1       1.307   9.219  18.316  0.00  0.00    +0.000 C 
ATOM      2  O   UNL     1       1.759   9.394  17.188  0.00  0.00    +0.000 OA
ATOM      3  N   UNL     1       1.706   8.198  19.179  0.00  0.00    +0.000 N 
ATOM      4  C   UNL     1       2.669   7.223  18.889  0.00  0.00    +0.000 A 
ATOM      5  C   UNL     1       2.712   6.069  19.665  0.00  0.00    +0.000 A 
ATOM      6  C   UNL     1       3.480   4.962  19.230  0.00  0.00    +0.000 A 
ATOM      7  C   UNL     1       4.132   5.081  17.970  0.00  0.00    +0.000 A 
ATOM      8  C   UNL     1       4.699   4.034  17.213  0.00  0.00    +0.000 A 
ATOM      9  C   UNL     1       5.568   4.292  16.150  0.00  0.00    +0.000 A 
ATOM     10  C   UNL     1       5.801   5.599  15.755  0.00  0.00    +0.000 A 
ATOM     11  C   UNL     1       5.078   6.625  16.359  0.00  0.00    +0.000 A 
ATOM     12  C   UNL     1       4.215   6.378  17.417  0.00  0.00    +0.000 A 
ATOM     13  N   UNL     1       3.498   7.407  17.864  0.00  0.00    +0.000 NA
ATOM     14  H   UNL     1       1.153   8.079  20.014  0.00  0.00    +0.000 HD
ENDROOT
BRANCH   1  22
ATOM     15  C   UNL     1      -3.277  11.798  19.000  0.00  0.00    +0.000 A 
ATOM     16  C   UNL     1      -3.729  12.648  20.016  0.00  0.00    +0.000 A 
ATOM     17  C   UNL     1      -2.884  13.020  21.046  0.00  0.00    +0.000 A 
ATOM     18  C   UNL     1      -1.576  12.505  21.140  0.00  0.00    +0.000 A 
ATOM     19  C   UNL     1      -1.100  11.554  20.170  0.00  0.00    +0.000 A 
ATOM     20  C   UNL     1       0.126  10.735  20.066  0.00  0.00    +0.000 A 
ATOM     21  C   UNL     1       1.180  10.608  21.133  0.00  0.00    +0.000 C 
ATOM     22  C   UNL     1       0.217  10.066  18.844  0.00  0.00    +0.000 A 
ATOM     23  S   UNL     1      -1.177  10.308  17.909  0.00  0.00    +0.000 S 
ATOM     24  C   UNL     1      -1.962  11.273  19.089  0.00  0.00    +0.000 A 
BRANCH  15  26
ATOM     25  C   UNL     1      -5.513  10.824  18.192  0.00  0.00    +0.000 C 
ATOM     26  C   UNL     1      -4.187  11.464  17.868  0.00  0.00    +0.000 C 
ATOM     27  O   UNL     1      -3.867  11.689  16.705  0.00  0.00    +0.000 OA
ENDBRANCH  15  26
BRANCH  18  28
ATOM     28  C   UNL     1      -0.681  13.099  22.178  0.00  0.00    +0.000 C 
ATOM     29  C   UNL     1       0.249  14.240  21.826  0.00  0.00    +0.000 C 
ATOM     30  O   UNL     1      -0.676  12.627  23.313  0.00  0.00    +0.000 OA
ENDBRANCH  18  28
ENDBRANCH   1  22
BRANCH   6  31
ATOM     31  C   UNL     1       3.480   3.701  20.092  0.00  0.00    +0.000 C 
BRANCH  31  32
ATOM     32  N   UNL     1       2.396   2.698  20.135  0.00  0.00    +0.000 NA
ATOM     33  C   UNL     1       2.166   1.890  18.921  0.00  0.00    +0.000 C 
ATOM     34  C   UNL     1       0.914   2.742  18.603  0.00  0.00    +0.000 C 
ATOM     35  C   UNL     1       1.004   3.162  20.087  0.00  0.00    +0.000 C 
BRANCH  34  36
ATOM     36  O   UNL     1       1.042   3.740  17.567  0.00  0.00    +0.000 OA
ATOM     37  H   UNL     1       0.517   4.501  17.857  0.00  0.00    +0.000 HD
ENDBRANCH  34  36
ENDBRANCH  31  32
ENDBRANCH   6  31
TORSDOF 6
ENDMDL
MODEL 3
REMARK VINA RESULT:      -9.3      1.508      3.471
REMARK  Name = 
REMARK  9 active torsions:
REMARK  status: ('A' for Active; 'I' for Inactive)
REMARK    1  A    between atoms: C_1  and  C_2
REMARK    2  A    between atoms: C_2  and  C_4
REMARK    3  A    between atoms: C_7  and  C_8
REMARK    4  A    between atoms: C_8  and  C_9
REMARK    5  A    between atoms: C_12  and  C_13
REMARK    6  A    between atoms: C_14  and  C_15
REMARK    7  A    between atoms: C_20  and  C_21
REMARK    8  A    between atoms: C_21  and  N_22
REMARK    9  A    between atoms: C_24  and  O_25
REMARK                            x       y       z     vdW  Elec       q    Type
REMARK                         _______ _______ _______ _____ _____    ______ ____
ROOT
ATOM      1  C   UNL     1       1.648   9.135  18.382  0.00  0.00    +0.000 C 
ATOM      2  O   UNL     1       2.588   9.654  17.789  0.00  0.00    +0.000 OA
ATOM      3  N   UNL     1       1.537   7.770  18.650  0.00  0.00    +0.000 N 
ATOM      4  C   UNL     1       2.472   6.794  18.278  0.00  0.00    +0.000 A 
ATOM      5  C   UNL     1       2.084   5.458  18.274  0.00  0.00    +0.000 A 
ATOM      6  C   UNL     1       2.907   4.492  17.649  0.00  0.00    +0.000 A 
ATOM      7  C   UNL     1       4.083   4.965  17.001  0.00  0.00    +0.000 A 
ATOM      8  C   UNL     1       4.886   4.252  16.087  0.00  0.00    +0.000 A 
ATOM      9  C   UNL     1       6.167   4.692  15.744  0.00  0.00    +0.000 A 
ATOM     10  C   UNL     1       6.626   5.908  16.223  0.00  0.00    +0.000 A 
ATOM     11  C   UNL     1       5.758   6.718  16.951  0.00  0.00    +0.000 A 
ATOM     12  C   UNL     1       4.485   6.287  17.297  0.00  0.00    +0.000 A 
ATOM     13  N   UNL     1       3.695   7.167  17.910  0.00  0.00    +0.000 NA
ATOM     14  H   UNL     1       0.650   7.457  19.012  0.00  0.00    +0.000 HD
ENDROOT
BRANCH   1  22
ATOM     15  C   UNL     1      -3.026  11.632  18.625  0.00  0.00    +0.000 A 
ATOM     16  C   UNL     1      -3.625  12.396  19.632  0.00  0.00    +0.000 A 
ATOM     17  C   UNL     1      -2.935  12.689  20.795  0.00  0.00    +0.000 A 
ATOM     18  C   UNL     1      -1.646  12.173  21.029  0.00  0.00    +0.000 A 
ATOM     19  C   UNL     1      -1.027  11.305  20.062  0.00  0.00    +0.000 A 
ATOM     20  C   UNL     1       0.214  10.501  20.065  0.00  0.00    +0.000 A 
ATOM     21  C   UNL     1       1.114  10.295  21.255  0.00  0.00    +0.000 C 
ATOM     22  C   UNL     1       0.483   9.933  18.819  0.00  0.00    +0.000 A 
ATOM     23  S   UNL     1      -0.773  10.242  17.722  0.00  0.00    +0.000 S 
ATOM     24  C   UNL     1      -1.727  11.107  18.854  0.00  0.00    +0.000 A 
BRANCH  15  26
ATOM     25  C   UNL     1      -5.261  11.213  17.430  0.00  0.00    +0.000 C 
ATOM     26  C   UNL     1      -3.765  11.385  17.356  0.00  0.00    +0.000 C 
ATOM     27  O   UNL     1      -3.179  11.310  16.280  0.00  0.00    +0.000 OA
ENDBRANCH  15  26
BRANCH  18  28
ATOM     28  C   UNL     1      -0.911  12.687  22.223  0.00  0.00    +0.000 C 
ATOM     29  C   UNL     1       0.005  13.886  22.103  0.00  0.00    +0.000 C 
ATOM     30  O   UNL     1      -1.025  12.104  23.299  0.00  0.00    +0.000 OA
ENDBRANCH  18  28
ENDBRANCH   1  22
BRANCH   6  31
ATOM     31  C   UNL     1       2.435   3.039  17.638  0.00  0.00    +0.000 C 
BRANCH  31  32
ATOM     32  N   UNL     1       2.575   2.089  18.760  0.00  0.00    +0.000 NA
ATOM     33  C   UNL     1       2.963   2.638  20.074  0.00  0.00    +0.000 C 
ATOM     34  C   UNL     1       4.397   2.091  19.869  0.00  0.00    +0.000 C 
ATOM     35  C   UNL     1       3.742   1.199  18.790  0.00  0.00    +0.000 C 
BRANCH  34  36
ATOM     36  O   UNL     1       5.416   3.041  19.491  0.00  0.00    +0.000 OA
ATOM     37  H   UNL     1       4.989   3.911  19.490  0.00  0.00    +0.000 HD
ENDBRANCH  34  36
ENDBRANCH  31  32
ENDBRANCH   6  31
TORSDOF 6
ENDMDL
MODEL 4
REMARK VINA RESULT:      -9.2      1.174      1.460
REMARK  Name = 
REMARK  9 active torsions:
REMARK  status: ('A' for Active; 'I' for Inactive)
REMARK    1  A    between atoms: C_1  and  C_2
REMARK    2  A    between atoms: C_2  and  C_4
REMARK    3  A    between atoms: C_7  and  C_8
REMARK    4  A    between atoms: C_8  and  C_9
REMARK    5  A    between atoms: C_12  and  C_13
REMARK    6  A    between atoms: C_14  and  C_15
REMARK    7  A    between atoms: C_20  and  C_21
REMARK    8  A    between atoms: C_21  and  N_22
REMARK    9  A    between atoms: C_24  and  O_25
REMARK                            x       y       z     vdW  Elec       q    Type
REMARK                         _______ _______ _______ _____ _____    ______ ____
ROOT
ATOM      1  C   UNL     1       1.569   9.270  18.347  0.00  0.00    +0.000 C 
ATOM      2  O   UNL     1       2.474   9.745  17.668  0.00  0.00    +0.000 OA
ATOM      3  N   UNL     1       1.468   7.924  18.703  0.00  0.00    +0.000 N 
ATOM      4  C   UNL     1       2.374   6.920  18.335  0.00  0.00    +0.000 A 
ATOM      5  C   UNL     1       1.979   5.590  18.434  0.00  0.00    +0.000 A 
ATOM      6  C   UNL     1       2.759   4.581  17.820  0.00  0.00    +0.000 A 
ATOM      7  C   UNL     1       3.895   5.005  17.074  0.00  0.00    +0.000 A 
ATOM      8  C   UNL     1       4.638   4.231  16.158  0.00  0.00    +0.000 A 
ATOM      9  C   UNL     1       5.898   4.639  15.713  0.00  0.00    +0.000 A 
ATOM     10  C   UNL     1       6.391   5.877  16.090  0.00  0.00    +0.000 A 
ATOM     11  C   UNL     1       5.572   6.736  16.818  0.00  0.00    +0.000 A 
ATOM     12  C   UNL     1       4.321   6.338  17.266  0.00  0.00    +0.000 A 
ATOM     13  N   UNL     1       3.574   7.260  17.871  0.00  0.00    +0.000 NA
ATOM     14  H   UNL     1       0.603   7.641  19.136  0.00  0.00    +0.000 HD
ENDROOT
BRANCH   1  22
ATOM     15  C   UNL     1      -1.540  12.627  21.030  0.00  0.00    +0.000 A 
ATOM     16  C   UNL     1      -2.857  13.051  20.821  0.00  0.00    +0.000 A 
ATOM     17  C   UNL     1      -3.616  12.503  19.802  0.00  0.00    +0.000 A 
ATOM     18  C   UNL     1      -3.070  11.561  18.910  0.00  0.00    +0.000 A 
ATOM     19  C   UNL     1      -1.691  11.165  19.028  0.00  0.00    +0.000 A 
ATOM     20  C   UNL     1      -0.795  10.338  18.192  0.00  0.00    +0.000 A 
ATOM     21  C   UNL     1      -1.135   9.792  16.831  0.00  0.00    +0.000 C 
ATOM     22  C   UNL     1       0.437  10.103  18.805  0.00  0.00    +0.000 A 
ATOM     23  S   UNL     1       0.564  10.950  20.268  0.00  0.00    +0.000 S 
ATOM     24  C   UNL     1      -0.982  11.679  20.133  0.00  0.00    +0.000 A 
BRANCH  15  26
ATOM     25  C   UNL     1      -0.156  14.556  22.013  0.00  0.00    +0.000 C 
ATOM     26  C   UNL     1      -0.765  13.186  22.173  0.00  0.00    +0.000 C 
ATOM     27  O   UNL     1      -0.613  12.550  23.212  0.00  0.00    +0.000 OA
ENDBRANCH  15  26
BRANCH  18  28
ATOM     28  C   UNL     1      -4.011  10.894  17.960  0.00  0.00    +0.000 C 
ATOM     29  C   UNL     1      -4.603  11.664  16.799  0.00  0.00    +0.000 C 
ATOM     30  O   UNL     1      -4.332   9.723  18.150  0.00  0.00    +0.000 OA
ENDBRANCH  18  28
ENDBRANCH   1  22
BRANCH   6  31
ATOM     31  C   UNL     1       2.280   3.134  17.925  0.00  0.00    +0.000 C 
BRANCH  31  32
ATOM     32  N   UNL     1       2.547   2.228  19.061  0.00  0.00    +0.000 NA
ATOM     33  C   UNL     1       3.105   2.823  20.290  0.00  0.00    +0.000 C 
ATOM     34  C   UNL     1       4.494   2.241  19.930  0.00  0.00    +0.000 C 
ATOM     35  C   UNL     1       3.696   1.318  18.982  0.00  0.00    +0.000 C 
BRANCH  34  36
ATOM     36  O   UNL     1       5.470   3.155  19.387  0.00  0.00    +0.000 OA
ATOM     37  H   UNL     1       6.265   3.059  19.933  0.00  0.00    +0.000 HD
ENDBRANCH  34  36
ENDBRANCH  31  32
ENDBRANCH   6  31
TORSDOF 6
ENDMDL
MODEL 5
REMARK VINA RESULT:      -9.1      2.326      9.621
REMARK  Name = 
REMARK  9 active torsions:
REMARK  status: ('A' for Active; 'I' for Inactive)
REMARK    1  A    between atoms: C_1  and  C_2
REMARK    2  A    between atoms: C_2  and  C_4
REMARK    3  A    between atoms: C_7  and  C_8
REMARK    4  A    between atoms: C_8  and  C_9
REMARK    5  A    between atoms: C_12  and  C_13
REMARK    6  A    between atoms: C_14  and  C_15
REMARK    7  A    between atoms: C_20  and  C_21
REMARK    8  A    between atoms: C_21  and  N_22
REMARK    9  A    between atoms: C_24  and  O_25
REMARK                            x       y       z     vdW  Elec       q    Type
REMARK                         _______ _______ _______ _____ _____    ______ ____
ROOT
ATOM      1  C   UNL     1       1.601   8.356  20.091  0.00  0.00    +0.000 C 
ATOM      2  O   UNL     1       1.677   8.552  21.300  0.00  0.00    +0.000 OA
ATOM      3  N   UNL     1       0.830   9.119  19.213  0.00  0.00    +0.000 N 
ATOM      4  C   UNL     1       0.027  10.208  19.577  0.00  0.00    +0.000 A 
ATOM      5  C   UNL     1      -0.956  10.644  18.695  0.00  0.00    +0.000 A 
ATOM      6  C   UNL     1      -1.947  11.549  19.143  0.00  0.00    +0.000 A 
ATOM      7  C   UNL     1      -1.908  11.924  20.516  0.00  0.00    +0.000 A 
ATOM      8  C   UNL     1      -2.932  12.566  21.243  0.00  0.00    +0.000 A 
ATOM      9  C   UNL     1      -2.684  13.154  22.486  0.00  0.00    +0.000 A 
ATOM     10  C   UNL     1      -1.438  13.018  23.074  0.00  0.00    +0.000 A 
ATOM     11  C   UNL     1      -0.489  12.203  22.461  0.00  0.00    +0.000 A 
ATOM     12  C   UNL     1      -0.726  11.618  21.226  0.00  0.00    +0.000 A 
ATOM     13  N   UNL     1       0.202  10.780  20.766  0.00  0.00    +0.000 NA
ATOM     14  H   UNL     1       0.742   8.763  18.274  0.00  0.00    +0.000 HD
ENDROOT
BRANCH   1  22
ATOM     15  C   UNL     1       4.771   5.340  17.092  0.00  0.00    +0.000 A 
ATOM     16  C   UNL     1       4.929   3.953  17.002  0.00  0.00    +0.000 A 
ATOM     17  C   UNL     1       4.108   3.105  17.724  0.00  0.00    +0.000 A 
ATOM     18  C   UNL     1       3.141   3.609  18.616  0.00  0.00    +0.000 A 
ATOM     19  C   UNL     1       3.006   5.029  18.812  0.00  0.00    +0.000 A 
ATOM     20  C   UNL     1       2.219   5.855  19.752  0.00  0.00    +0.000 A 
ATOM     21  C   UNL     1       1.416   5.327  20.911  0.00  0.00    +0.000 C 
ATOM     22  C   UNL     1       2.294   7.216  19.454  0.00  0.00    +0.000 A 
ATOM     23  S   UNL     1       3.371   7.505  18.177  0.00  0.00    +0.000 S 
ATOM     24  C   UNL     1       3.800   5.855  17.990  0.00  0.00    +0.000 A 
BRANCH  15  26
ATOM     25  C   UNL     1       7.019   6.534  16.745  0.00  0.00    +0.000 C 
ATOM     26  C   UNL     1       5.625   6.229  16.257  0.00  0.00    +0.000 C 
ATOM     27  O   UNL     1       5.209   6.712  15.207  0.00  0.00    +0.000 OA
ENDBRANCH  15  26
BRANCH  18  28
ATOM     28  C   UNL     1       2.184   2.629  19.211  0.00  0.00    +0.000 C 
ATOM     29  C   UNL     1       0.813   2.429  18.602  0.00  0.00    +0.000 C 
ATOM     30  O   UNL     1       2.503   2.012  20.225  0.00  0.00    +0.000 OA
ENDBRANCH  18  28
ENDBRANCH   1  22
BRANCH   6  31
ATOM     31  C   UNL     1      -3.028  11.982  18.155  0.00  0.00    +0.000 C 
BRANCH  31  32
ATOM     32  N   UNL     1      -4.234  11.200  17.813  0.00  0.00    +0.000 NA
ATOM     33  C   UNL     1      -5.007  11.621  16.628  0.00  0.00    +0.000 C 
ATOM     34  C   UNL     1      -6.078  12.240  17.558  0.00  0.00    +0.000 C 
ATOM     35  C   UNL     1      -5.434  11.352  18.646  0.00  0.00    +0.000 C 
BRANCH  34  36
ATOM     36  O   UNL     1      -6.070  13.676  17.706  0.00  0.00    +0.000 OA
ATOM     37  H   UNL     1      -6.403  14.037  16.871  0.00  0.00    +0.000 HD
ENDBRANCH  34  36
ENDBRANCH  31  32
ENDBRANCH   6  31
TORSDOF 6
ENDMDL
MODEL 6
REMARK VINA RESULT:      -9.0      2.340      9.335
REMARK  Name = 
REMARK  9 active torsions:
REMARK  status: ('A' for Active; 'I' for Inactive)
REMARK    1  A    between atoms: C_1  and  C_2
REMARK    2  A    between atoms: C_2  and  C_4
REMARK    3  A    between atoms: C_7  and  C_8
REMARK    4  A    between atoms: C_8  and  C_9
REMARK    5  A    between atoms: C_12  and  C_13
REMARK    6  A    between atoms: C_14  and  C_15
REMARK    7  A    between atoms: C_20  and  C_21
REMARK    8  A    between atoms: C_21  and  N_22
REMARK    9  A    between atoms: C_24  and  O_25
REMARK                            x       y       z     vdW  Elec       q    Type
REMARK                         _______ _______ _______ _____ _____    ______ ____
ROOT
ATOM      1  C   UNL     1       1.621   8.356  20.107  0.00  0.00    +0.000 C 
ATOM      2  O   UNL     1       1.704   8.539  21.318  0.00  0.00    +0.000 OA
ATOM      3  N   UNL     1       0.851   9.133  19.240  0.00  0.00    +0.000 N 
ATOM      4  C   UNL     1       0.059  10.225  19.619  0.00  0.00    +0.000 A 
ATOM      5  C   UNL     1      -0.926  10.676  18.747  0.00  0.00    +0.000 A 
ATOM      6  C   UNL     1      -1.907  11.585  19.208  0.00  0.00    +0.000 A 
ATOM      7  C   UNL     1      -1.858  11.947  20.585  0.00  0.00    +0.000 A 
ATOM      8  C   UNL     1      -2.873  12.590  21.323  0.00  0.00    +0.000 A 
ATOM      9  C   UNL     1      -2.614  13.164  22.571  0.00  0.00    +0.000 A 
ATOM     10  C   UNL     1      -1.367  13.012  23.151  0.00  0.00    +0.000 A 
ATOM     11  C   UNL     1      -0.427  12.196  22.525  0.00  0.00    +0.000 A 
ATOM     12  C   UNL     1      -0.675  11.624  21.285  0.00  0.00    +0.000 A 
ATOM     13  N   UNL     1       0.244  10.784  20.813  0.00  0.00    +0.000 NA
ATOM     14  H   UNL     1       0.755   8.787  18.299  0.00  0.00    +0.000 HD
ENDROOT
BRANCH   1  22
ATOM     15  C   UNL     1       4.742   5.344  17.055  0.00  0.00    +0.000 A 
ATOM     16  C   UNL     1       4.894   3.957  16.955  0.00  0.00    +0.000 A 
ATOM     17  C   UNL     1       4.077   3.109  17.681  0.00  0.00    +0.000 A 
ATOM     18  C   UNL     1       3.123   3.611  18.587  0.00  0.00    +0.000 A 
ATOM     19  C   UNL     1       2.996   5.030  18.793  0.00  0.00    +0.000 A 
ATOM     20  C   UNL     1       2.224   5.854  19.747  0.00  0.00    +0.000 A 
ATOM     21  C   UNL     1       1.432   5.323  20.912  0.00  0.00    +0.000 C 
ATOM     22  C   UNL     1       2.301   7.217  19.456  0.00  0.00    +0.000 A 
ATOM     23  S   UNL     1       3.365   7.509  18.168  0.00  0.00    +0.000 S 
ATOM     24  C   UNL     1       3.785   5.858  17.967  0.00  0.00    +0.000 A 
BRANCH  15  26
ATOM     25  C   UNL     1       6.992   6.529  16.687  0.00  0.00    +0.000 C 
ATOM     26  C   UNL     1       5.591   6.235  16.214  0.00  0.00    +0.000 C 
ATOM     27  O   UNL     1       5.164   6.726  15.174  0.00  0.00    +0.000 OA
ENDBRANCH  15  26
BRANCH  18  28
ATOM     28  C   UNL     1       2.169   2.631  19.188  0.00  0.00    +0.000 C 
ATOM     29  C   UNL     1       0.787   2.445  18.598  0.00  0.00    +0.000 C 
ATOM     30  O   UNL     1       2.499   2.004  20.192  0.00  0.00    +0.000 OA
ENDBRANCH  18  28
ENDBRANCH   1  22
BRANCH   6  31
ATOM     31  C   UNL     1      -2.991  12.036  18.231  0.00  0.00    +0.000 C 
BRANCH  31  32
ATOM     32  N   UNL     1      -4.017  11.159  17.630  0.00  0.00    +0.000 NA
ATOM     33  C   UNL     1      -3.584   9.828  17.161  0.00  0.00    +0.000 C 
ATOM     34  C   UNL     1      -3.640  10.335  15.699  0.00  0.00    +0.000 C 
ATOM     35  C   UNL     1      -4.511  11.470  16.283  0.00  0.00    +0.000 C 
BRANCH  34  36
ATOM     36  O   UNL     1      -2.382  10.651  15.064  0.00  0.00    +0.000 OA
ATOM     37  H   UNL     1      -1.756  10.834  15.779  0.00  0.00    +0.000 HD
ENDBRANCH  34  36
ENDBRANCH  31  32
ENDBRANCH   6  31
TORSDOF 6
ENDMDL
MODEL 7
REMARK VINA RESULT:      -9.0      2.396      9.725
REMARK  Name = 
REMARK  9 active torsions:
REMARK  status: ('A' for Active; 'I' for Inactive)
REMARK    1  A    between atoms: C_1  and  C_2
REMARK    2  A    between atoms: C_2  and  C_4
REMARK    3  A    between atoms: C_7  and  C_8
REMARK    4  A    between atoms: C_8  and  C_9
REMARK    5  A    between atoms: C_12  and  C_13
REMARK    6  A    between atoms: C_14  and  C_15
REMARK    7  A    between atoms: C_20  and  C_21
REMARK    8  A    between atoms: C_21  and  N_22
REMARK    9  A    between atoms: C_24  and  O_25
REMARK                            x       y       z     vdW  Elec       q    Type
REMARK                         _______ _______ _______ _____ _____    ______ ____
ROOT
ATOM      1  C   UNL     1       1.441   8.417  20.242  0.00  0.00    +0.000 C 
ATOM      2  O   UNL     1       1.528   8.625  21.448  0.00  0.00    +0.000 OA
ATOM      3  N   UNL     1       0.665   9.174  19.362  0.00  0.00    +0.000 N 
ATOM      4  C   UNL     1      -0.129  10.271  19.722  0.00  0.00    +0.000 A 
ATOM      5  C   UNL     1      -1.118  10.702  18.845  0.00  0.00    +0.000 A 
ATOM      6  C   UNL     1      -2.101  11.616  19.292  0.00  0.00    +0.000 A 
ATOM      7  C   UNL     1      -2.048  12.006  20.661  0.00  0.00    +0.000 A 
ATOM      8  C   UNL     1      -3.062  12.661  21.390  0.00  0.00    +0.000 A 
ATOM      9  C   UNL     1      -2.800  13.261  22.624  0.00  0.00    +0.000 A 
ATOM     10  C   UNL     1      -1.549  13.124  23.202  0.00  0.00    +0.000 A 
ATOM     11  C   UNL     1      -0.609  12.299  22.590  0.00  0.00    +0.000 A 
ATOM     12  C   UNL     1      -0.861  11.701  21.363  0.00  0.00    +0.000 A 
ATOM     13  N   UNL     1       0.059  10.854  20.904  0.00  0.00    +0.000 NA
ATOM     14  H   UNL     1       0.567   8.809  18.428  0.00  0.00    +0.000 HD
ENDROOT
BRANCH   1  22
ATOM     15  C   UNL     1       3.115   3.547  18.970  0.00  0.00    +0.000 A 
ATOM     16  C   UNL     1       4.003   3.091  17.990  0.00  0.00    +0.000 A 
ATOM     17  C   UNL     1       4.694   3.989  17.198  0.00  0.00    +0.000 A 
ATOM     18  C   UNL     1       4.475   5.376  17.304  0.00  0.00    +0.000 A 
ATOM     19  C   UNL     1       3.501   5.887  18.233  0.00  0.00    +0.000 A 
ATOM     20  C   UNL     1       2.940   7.232  18.480  0.00  0.00    +0.000 A 
ATOM     21  C   UNL     1       3.197   8.451  17.635  0.00  0.00    +0.000 C 
ATOM     22  C   UNL     1       2.122   7.267  19.611  0.00  0.00    +0.000 A 
ATOM     23  S   UNL     1       1.928   5.718  20.274  0.00  0.00    +0.000 S 
ATOM     24  C   UNL     1       2.887   4.943  19.082  0.00  0.00    +0.000 A 
BRANCH  15  26
ATOM     25  C   UNL     1       2.817   2.530  21.311  0.00  0.00    +0.000 C 
ATOM     26  C   UNL     1       2.431   2.562  19.853  0.00  0.00    +0.000 C 
ATOM     27  O   UNL     1       1.586   1.788  19.412  0.00  0.00    +0.000 OA
ENDBRANCH  15  26
BRANCH  18  28
ATOM     28  C   UNL     1       5.393   6.274  16.539  0.00  0.00    +0.000 C 
ATOM     29  C   UNL     1       6.601   6.889  17.212  0.00  0.00    +0.000 C 
ATOM     30  O   UNL     1       5.137   6.542  15.367  0.00  0.00    +0.000 OA
ENDBRANCH  18  28
ENDBRANCH   1  22
BRANCH   6  31
ATOM     31  C   UNL     1      -3.189  12.045  18.309  0.00  0.00    +0.000 C 
BRANCH  31  32
ATOM     32  N   UNL     1      -4.418  11.280  18.012  0.00  0.00    +0.000 NA
ATOM     33  C   UNL     1      -5.142  11.609  16.768  0.00  0.00    +0.000 C 
ATOM     34  C   UNL     1      -6.209  12.361  17.600  0.00  0.00    +0.000 C 
ATOM     35  C   UNL     1      -5.631  11.563  18.789  0.00  0.00    +0.000 C 
BRANCH  34  36
ATOM     36  O   UNL     1      -6.144  13.804  17.605  0.00  0.00    +0.000 OA
ATOM     37  H   UNL     1      -6.419  14.090  16.721  0.00  0.00    +0.000 HD
ENDBRANCH  34  36
ENDBRANCH  31  32
ENDBRANCH   6  31
TORSDOF 6
ENDMDL
MODEL 8
REMARK VINA RESULT:      -8.9      2.400      9.428
REMARK  Name = 
REMARK  9 active torsions:
REMARK  status: ('A' for Active; 'I' for Inactive)
REMARK    1  A    between atoms: C_1  and  C_2
REMARK    2  A    between atoms: C_2  and  C_4
REMARK    3  A    between atoms: C_7  and  C_8
REMARK    4  A    between atoms: C_8  and  C_9
REMARK    5  A    between atoms: C_12  and  C_13
REMARK    6  A    between atoms: C_14  and  C_15
REMARK    7  A    between atoms: C_20  and  C_21
REMARK    8  A    between atoms: C_21  and  N_22
REMARK    9  A    between atoms: C_24  and  O_25
REMARK                            x       y       z     vdW  Elec       q    Type
REMARK                         _______ _______ _______ _____ _____    ______ ____
ROOT
ATOM      1  C   UNL     1       1.441   8.427  20.293  0.00  0.00    +0.000 C 
ATOM      2  O   UNL     1       1.516   8.613  21.504  0.00  0.00    +0.000 OA
ATOM      3  N   UNL     1       0.679   9.203  19.418  0.00  0.00    +0.000 N 
ATOM      4  C   UNL     1      -0.114  10.297  19.789  0.00  0.00    +0.000 A 
ATOM      5  C   UNL     1      -1.091  10.748  18.908  0.00  0.00    +0.000 A 
ATOM      6  C   UNL     1      -2.074  11.660  19.360  0.00  0.00    +0.000 A 
ATOM      7  C   UNL     1      -2.035  12.026  20.736  0.00  0.00    +0.000 A 
ATOM      8  C   UNL     1      -3.054  12.673  21.465  0.00  0.00    +0.000 A 
ATOM      9  C   UNL     1      -2.802  13.250  22.713  0.00  0.00    +0.000 A 
ATOM     10  C   UNL     1      -1.559  13.097  23.302  0.00  0.00    +0.000 A 
ATOM     11  C   UNL     1      -0.616  12.277  22.686  0.00  0.00    +0.000 A 
ATOM     12  C   UNL     1      -0.857  11.703  21.446  0.00  0.00    +0.000 A 
ATOM     13  N   UNL     1       0.064  10.859  20.983  0.00  0.00    +0.000 NA
ATOM     14  H   UNL     1       0.589   8.855  18.477  0.00  0.00    +0.000 HD
ENDROOT
BRANCH   1  22
ATOM     15  C   UNL     1       3.133   3.575  18.979  0.00  0.00    +0.000 A 
ATOM     16  C   UNL     1       4.015   3.129  17.989  0.00  0.00    +0.000 A 
ATOM     17  C   UNL     1       4.694   4.036  17.195  0.00  0.00    +0.000 A 
ATOM     18  C   UNL     1       4.467   5.421  17.311  0.00  0.00    +0.000 A 
ATOM     19  C   UNL     1       3.498   5.921  18.252  0.00  0.00    +0.000 A 
ATOM     20  C   UNL     1       2.932   7.261  18.512  0.00  0.00    +0.000 A 
ATOM     21  C   UNL     1       3.174   8.486  17.671  0.00  0.00    +0.000 C 
ATOM     22  C   UNL     1       2.123   7.285  19.650  0.00  0.00    +0.000 A 
ATOM     23  S   UNL     1       1.945   5.731  20.306  0.00  0.00    +0.000 S 
ATOM     24  C   UNL     1       2.898   4.969  19.101  0.00  0.00    +0.000 A 
BRANCH  15  26
ATOM     25  C   UNL     1       2.858   2.547  21.318  0.00  0.00    +0.000 C 
ATOM     26  C   UNL     1       2.463   2.580  19.864  0.00  0.00    +0.000 C 
ATOM     27  O   UNL     1       1.623   1.800  19.425  0.00  0.00    +0.000 OA
ENDBRANCH  15  26
BRANCH  18  28
ATOM     28  C   UNL     1       5.372   6.328  16.543  0.00  0.00    +0.000 C 
ATOM     29  C   UNL     1       6.567   6.969  17.216  0.00  0.00    +0.000 C 
ATOM     30  O   UNL     1       5.116   6.583  15.369  0.00  0.00    +0.000 OA
ENDBRANCH  18  28
ENDBRANCH   1  22
BRANCH   6  31
ATOM     31  C   UNL     1      -3.150  12.111  18.374  0.00  0.00    +0.000 C 
BRANCH  31  32
ATOM     32  N   UNL     1      -4.133  11.223  17.720  0.00  0.00    +0.000 NA
ATOM     33  C   UNL     1      -3.657   9.906  17.253  0.00  0.00    +0.000 C 
ATOM     34  C   UNL     1      -3.661  10.431  15.797  0.00  0.00    +0.000 C 
ATOM     35  C   UNL     1      -4.576  11.543  16.357  0.00  0.00    +0.000 C 
BRANCH  34  36
ATOM     36  O   UNL     1      -2.383  10.777  15.219  0.00  0.00    +0.000 OA
ATOM     37  H   UNL     1      -1.987   9.945  14.920  0.00  0.00    +0.000 HD
ENDBRANCH  34  36
ENDBRANCH  31  32
ENDBRANCH   6  31
TORSDOF 6
ENDMDL
MODEL 9
REMARK VINA RESULT:      -8.8      1.244      3.306
REMARK  Name = 
REMARK  9 active torsions:
REMARK  status: ('A' for Active; 'I' for Inactive)
REMARK    1  A    between atoms: C_1  and  C_2
REMARK    2  A    between atoms: C_2  and  C_4
REMARK    3  A    between atoms: C_7  and  C_8
REMARK    4  A    between atoms: C_8  and  C_9
REMARK    5  A    between atoms: C_12  and  C_13
REMARK    6  A    between atoms: C_14  and  C_15
REMARK    7  A    between atoms: C_20  and  C_21
REMARK    8  A    between atoms: C_21  and  N_22
REMARK    9  A    between atoms: C_24  and  O_25
REMARK                            x       y       z     vdW  Elec       q    Type
REMARK                         _______ _______ _______ _____ _____    ______ ____
ROOT
ATOM      1  C   UNL     1       1.624   9.225  18.317  0.00  0.00    +0.000 C 
ATOM      2  O   UNL     1       2.537   9.758  17.694  0.00  0.00    +0.000 OA
ATOM      3  N   UNL     1       1.563   7.865  18.623  0.00  0.00    +0.000 N 
ATOM      4  C   UNL     1       2.523   6.910  18.261  0.00  0.00    +0.000 A 
ATOM      5  C   UNL     1       2.179   5.563  18.299  0.00  0.00    +0.000 A 
ATOM      6  C   UNL     1       3.024   4.608  17.687  0.00  0.00    +0.000 A 
ATOM      7  C   UNL     1       4.173   5.101  17.005  0.00  0.00    +0.000 A 
ATOM      8  C   UNL     1       4.984   4.389  16.097  0.00  0.00    +0.000 A 
ATOM      9  C   UNL     1       6.244   4.862  15.721  0.00  0.00    +0.000 A 
ATOM     10  C   UNL     1       6.671   6.104  16.159  0.00  0.00    +0.000 A 
ATOM     11  C   UNL     1       5.788   6.905  16.880  0.00  0.00    +0.000 A 
ATOM     12  C   UNL     1       4.536   6.442  17.260  0.00  0.00    +0.000 A 
ATOM     13  N   UNL     1       3.727   7.313  17.862  0.00  0.00    +0.000 NA
ATOM     14  H   UNL     1       0.693   7.533  19.008  0.00  0.00    +0.000 HD
ENDROOT
BRANCH   1  22
ATOM     15  C   UNL     1      -3.129  11.565  18.578  0.00  0.00    +0.000 A 
ATOM     16  C   UNL     1      -3.735  12.341  19.572  0.00  0.00    +0.000 A 
ATOM     17  C   UNL     1      -3.033  12.695  20.710  0.00  0.00    +0.000 A 
ATOM     18  C   UNL     1      -1.722  12.233  20.933  0.00  0.00    +0.000 A 
ATOM     19  C   UNL     1      -1.092  11.355  19.982  0.00  0.00    +0.000 A 
ATOM     20  C   UNL     1       0.177  10.596  19.985  0.00  0.00    +0.000 A 
ATOM     21  C   UNL     1       1.106  10.460  21.161  0.00  0.00    +0.000 C 
ATOM     22  C   UNL     1       0.440   9.996  18.752  0.00  0.00    +0.000 A 
ATOM     23  S   UNL     1      -0.847  10.225  17.672  0.00  0.00    +0.000 S 
ATOM     24  C   UNL     1      -1.809  11.094  18.796  0.00  0.00    +0.000 A 
BRANCH  15  26
ATOM     25  C   UNL     1      -5.167  12.001  17.074  0.00  0.00    +0.000 C 
ATOM     26  C   UNL     1      -3.885  11.250  17.333  0.00  0.00    +0.000 C 
ATOM     27  O   UNL     1      -3.488  10.399  16.544  0.00  0.00    +0.000 OA
ENDBRANCH  15  26
BRANCH  18  28
ATOM     28  C   UNL     1      -0.982  12.811  22.095  0.00  0.00    +0.000 C 
ATOM     29  C   UNL     1      -0.061  13.998  21.904  0.00  0.00    +0.000 C 
ATOM     30  O   UNL     1      -1.095  12.291  23.202  0.00  0.00    +0.000 OA
ENDBRANCH  18  28
ENDBRANCH   1  22
BRANCH   6  31
ATOM     31  C   UNL     1       2.600   3.140  17.722  0.00  0.00    +0.000 C 
BRANCH  31  32
ATOM     32  N   UNL     1       2.749   2.237  18.882  0.00  0.00    +0.000 NA
ATOM     33  C   UNL     1       1.522   1.639  19.442  0.00  0.00    +0.000 C 
ATOM     34  C   UNL     1       1.590   2.632  20.627  0.00  0.00    +0.000 C 
ATOM     35  C   UNL     1       3.060   2.820  20.193  0.00  0.00    +0.000 C 
BRANCH  34  36
ATOM     36  O   UNL     1       0.684   3.756  20.597  0.00  0.00    +0.000 OA
ATOM     37  H   UNL     1      -0.126   3.464  21.043  0.00  0.00    +0.000 HD
ENDBRANCH  34  36
ENDBRANCH  31  32
ENDBRANCH   6  31
TORSDOF 6
ENDMDL
