MODEL 1
REMARK VINA RESULT:      -6.5      0.000      0.000
REMARK  Name = 
REMARK  3 active torsions:
REMARK  status: ('A' for Active; 'I' for Inactive)
REMARK    1  A    between atoms: C_2  and  C_3
REMARK    2  A    between atoms: C_4  and  C_5
REMARK    3  A    between atoms: N_12  and  C_13
REMARK                            x       y       z     vdW  Elec       q    Type
REMARK                         _______ _______ _______ _____ _____    ______ ____
ROOT
ATOM      1  O   UNL     1       2.796   3.691  19.905  0.00  0.00    +0.000 OA
ATOM      2  C   UNL     1       3.094   4.872  19.817  0.00  0.00    +0.000 C 
ATOM      3  N   UNL     1       4.285   5.356  19.327  0.00  0.00    +0.000 N 
ATOM      4  H   UNL     1       4.373   6.354  19.198  0.00  0.00    +0.000 HD
ENDROOT
BRANCH   3   5
ATOM      5  C   UNL     1       5.331   4.519  18.738  0.00  0.00    +0.000 C 
ATOM      6  C   UNL     1       4.952   4.149  17.294  0.00  0.00    +0.000 C 
ATOM      7  C   UNL     1       4.988   5.362  16.357  0.00  0.00    +0.000 C 
ATOM      8  C   UNL     1       6.319   6.109  16.421  0.00  0.00    +0.000 C 
ATOM      9  C   UNL     1       6.740   6.431  17.852  0.00  0.00    +0.000 C 
ATOM     10  C   UNL     1       6.715   5.186  18.735  0.00  0.00    +0.000 C 
ENDBRANCH   3   5
BRANCH   2  11
ATOM     11  C   UNL     1       2.169   5.966  20.216  0.00  0.00    +0.000 C 
ATOM     12  C   UNL     1       2.297   7.198  19.703  0.00  0.00    +0.000 C 
BRANCH  12  13
ATOM     13  C   UNL     1       1.457   8.301  20.189  0.00  0.00    +0.000 A 
ATOM     14  C   UNL     1       0.982   8.270  21.508  0.00  0.00    +0.000 A 
ATOM     15  C   UNL     1       0.232   9.333  22.018  0.00  0.00    +0.000 A 
ATOM     16  C   UNL     1      -0.051  10.440  21.219  0.00  0.00    +0.000 A 
ATOM     17  C   UNL     1       0.403  10.478  19.902  0.00  0.00    +0.000 A 
ATOM     18  C   UNL     1       1.148   9.413  19.385  0.00  0.00    +0.000 A 
ATOM     19 CL   UNL     1       1.673   9.524  17.740  0.00  0.00    +0.000 Cl
ENDBRANCH  12  13
ENDBRANCH   2  11
TORSDOF 3
ENDMDL
MODEL 2
REMARK VINA RESULT:      -6.5      2.518      3.601
REMARK  Name = 
REMARK  3 active torsions:
REMARK  status: ('A' for Active; 'I' for Inactive)
REMARK    1  A    between atoms: C_2  and  C_3
REMARK    2  A    between atoms: C_4  and  C_5
REMARK    3  A    between atoms: N_12  and  C_13
REMARK                            x       y       z     vdW  Elec       q    Type
REMARK                         _______ _______ _______ _____ _____    ______ ____
ROOT
ATOM      1  O   UNL     1       3.155   6.936  18.528  0.00  0.00    +0.000 OA
ATOM      2  C   UNL     1       2.534   6.881  19.577  0.00  0.00    +0.000 C 
ATOM      3  N   UNL     1       2.375   5.753  20.348  0.00  0.00    +0.000 N 
ATOM      4  H   UNL     1       1.935   5.856  21.253  0.00  0.00    +0.000 HD
ENDROOT
BRANCH   3   5
ATOM      5  C   UNL     1       3.022   4.470  20.070  0.00  0.00    +0.000 C 
ATOM      6  C   UNL     1       2.518   3.406  21.060  0.00  0.00    +0.000 C 
ATOM      7  C   UNL     1       1.047   3.047  20.824  0.00  0.00    +0.000 C 
ATOM      8  C   UNL     1       0.767   2.653  19.376  0.00  0.00    +0.000 C 
ATOM      9  C   UNL     1       1.314   3.669  18.377  0.00  0.00    +0.000 C 
ATOM     10  C   UNL     1       2.788   3.969  18.637  0.00  0.00    +0.000 C 
ENDBRANCH   3   5
BRANCH   2  11
ATOM     11  C   UNL     1       1.876   8.069  20.185  0.00  0.00    +0.000 C 
ATOM     12  C   UNL     1       0.720   7.950  20.853  0.00  0.00    +0.000 C 
BRANCH  12  13
ATOM     13  C   UNL     1       0.017   9.141  21.348  0.00  0.00    +0.000 A 
ATOM     14  C   UNL     1      -0.216   9.276  22.725  0.00  0.00    +0.000 A 
ATOM     15  C   UNL     1      -0.828  10.426  23.232  0.00  0.00    +0.000 A 
ATOM     16  C   UNL     1      -1.210  11.456  22.373  0.00  0.00    +0.000 A 
ATOM     17  C   UNL     1      -0.996  11.329  21.002  0.00  0.00    +0.000 A 
ATOM     18  C   UNL     1      -0.391  10.178  20.489  0.00  0.00    +0.000 A 
ATOM     19 CL   UNL     1      -0.162  10.085  18.776  0.00  0.00    +0.000 Cl
ENDBRANCH  12  13
ENDBRANCH   2  11
TORSDOF 3
ENDMDL
MODEL 3
REMARK VINA RESULT:      -6.5      5.365      7.082
REMARK  Name = 
REMARK  3 active torsions:
REMARK  status: ('A' for Active; 'I' for Inactive)
REMARK    1  A    between atoms: C_2  and  C_3
REMARK    2  A    between atoms: C_4  and  C_5
REMARK    3  A    between atoms: N_12  and  C_13
REMARK                            x       y       z     vdW  Elec       q    Type
REMARK                         _______ _______ _______ _____ _____    ______ ____
ROOT
ATOM      1  O   UNL     1       8.491   7.188  18.946  0.00  0.00    +0.000 OA
ATOM      2  C   UNL     1       7.902   7.782  18.057  0.00  0.00    +0.000 C 
ATOM      3  N   UNL     1       6.921   7.243  17.257  0.00  0.00    +0.000 N 
ATOM      4  H   UNL     1       6.428   7.864  16.630  0.00  0.00    +0.000 HD
ENDROOT
BRANCH   3   5
ATOM      5  C   UNL     1       6.365   5.901  17.430  0.00  0.00    +0.000 C 
ATOM      6  C   UNL     1       4.973   5.825  16.781  0.00  0.00    +0.000 C 
ATOM      7  C   UNL     1       5.040   5.916  15.253  0.00  0.00    +0.000 C 
ATOM      8  C   UNL     1       6.004   4.897  14.650  0.00  0.00    +0.000 C 
ATOM      9  C   UNL     1       7.373   4.917  15.322  0.00  0.00    +0.000 C 
ATOM     10  C   UNL     1       7.251   4.794  16.839  0.00  0.00    +0.000 C 
ENDBRANCH   3   5
BRANCH   2  11
ATOM     11  C   UNL     1       8.162   9.211  17.736  0.00  0.00    +0.000 C 
ATOM     12  C   UNL     1       8.978   9.951  18.500  0.00  0.00    +0.000 C 
BRANCH  12  13
ATOM     13  C   UNL     1       9.137  11.390  18.247  0.00  0.00    +0.000 A 
ATOM     14  C   UNL     1       8.081  12.103  17.660  0.00  0.00    +0.000 A 
ATOM     15  C   UNL     1       8.179  13.483  17.463  0.00  0.00    +0.000 A 
ATOM     16  C   UNL     1       9.330  14.168  17.851  0.00  0.00    +0.000 A 
ATOM     17  C   UNL     1      10.391  13.470  18.422  0.00  0.00    +0.000 A 
ATOM     18  C   UNL     1      10.301  12.088  18.615  0.00  0.00    +0.000 A 
ATOM     19 CL   UNL     1      11.661  11.285  19.324  0.00  0.00    +0.000 Cl
ENDBRANCH  12  13
ENDBRANCH   2  11
TORSDOF 3
ENDMDL
MODEL 4
REMARK VINA RESULT:      -6.5      2.768      4.040
REMARK  Name = 
REMARK  3 active torsions:
REMARK  status: ('A' for Active; 'I' for Inactive)
REMARK    1  A    between atoms: C_2  and  C_3
REMARK    2  A    between atoms: C_4  and  C_5
REMARK    3  A    between atoms: N_12  and  C_13
REMARK                            x       y       z     vdW  Elec       q    Type
REMARK                         _______ _______ _______ _____ _____    ______ ____
ROOT
ATOM      1  O   UNL     1       3.879   7.578  17.628  0.00  0.00    +0.000 OA
ATOM      2  C   UNL     1       2.745   7.497  18.074  0.00  0.00    +0.000 C 
ATOM      3  N   UNL     1       2.258   6.449  18.820  0.00  0.00    +0.000 N 
ATOM      4  H   UNL     1       1.339   6.545  19.228  0.00  0.00    +0.000 HD
ENDROOT
BRANCH   3   5
ATOM      5  C   UNL     1       3.070   5.321  19.279  0.00  0.00    +0.000 C 
ATOM      6  C   UNL     1       2.496   4.765  20.594  0.00  0.00    +0.000 C 
ATOM      7  C   UNL     1       1.139   4.083  20.390  0.00  0.00    +0.000 C 
ATOM      8  C   UNL     1       1.179   3.021  19.294  0.00  0.00    +0.000 C 
ATOM      9  C   UNL     1       1.801   3.538  18.000  0.00  0.00    +0.000 C 
ATOM     10  C   UNL     1       3.162   4.181  18.254  0.00  0.00    +0.000 C 
ENDBRANCH   3   5
BRANCH   2  11
ATOM     11  C   UNL     1       1.728   8.565  17.882  0.00  0.00    +0.000 C 
ATOM     12  C   UNL     1       1.300   9.303  18.916  0.00  0.00    +0.000 C 
BRANCH  12  13
ATOM     13  C   UNL     1       0.212  10.275  18.741  0.00  0.00    +0.000 A 
ATOM     14  C   UNL     1      -0.825   9.987  17.841  0.00  0.00    +0.000 A 
ATOM     15  C   UNL     1      -1.905  10.863  17.698  0.00  0.00    +0.000 A 
ATOM     16  C   UNL     1      -1.965  12.033  18.454  0.00  0.00    +0.000 A 
ATOM     17  C   UNL     1      -0.936  12.337  19.342  0.00  0.00    +0.000 A 
ATOM     18  C   UNL     1       0.150  11.468  19.483  0.00  0.00    +0.000 A 
ATOM     19 CL   UNL     1       1.396  11.913  20.600  0.00  0.00    +0.000 Cl
ENDBRANCH  12  13
ENDBRANCH   2  11
TORSDOF 3
ENDMDL
MODEL 5
REMARK VINA RESULT:      -6.4      2.515      3.829
REMARK  Name = 
REMARK  3 active torsions:
REMARK  status: ('A' for Active; 'I' for Inactive)
REMARK    1  A    between atoms: C_2  and  C_3
REMARK    2  A    between atoms: C_4  and  C_5
REMARK    3  A    between atoms: N_12  and  C_13
REMARK                            x       y       z     vdW  Elec       q    Type
REMARK                         _______ _______ _______ _____ _____    ______ ____
ROOT
ATOM      1  O   UNL     1       4.253   6.679  17.570  0.00  0.00    +0.000 OA
ATOM      2  C   UNL     1       3.096   6.638  17.956  0.00  0.00    +0.000 C 
ATOM      3  N   UNL     1       2.403   5.490  18.268  0.00  0.00    +0.000 N 
ATOM      4  H   UNL     1       1.488   5.588  18.684  0.00  0.00    +0.000 HD
ENDROOT
BRANCH   3   5
ATOM      5  C   UNL     1       2.995   4.152  18.281  0.00  0.00    +0.000 C 
ATOM      6  C   UNL     1       3.555   3.843  19.680  0.00  0.00    +0.000 C 
ATOM      7  C   UNL     1       2.445   3.681  20.725  0.00  0.00    +0.000 C 
ATOM      8  C   UNL     1       1.388   2.664  20.299  0.00  0.00    +0.000 C 
ATOM      9  C   UNL     1       0.865   2.921  18.888  0.00  0.00    +0.000 C 
ATOM     10  C   UNL     1       2.008   3.045  17.884  0.00  0.00    +0.000 C 
ENDBRANCH   3   5
BRANCH   2  11
ATOM     11  C   UNL     1       2.275   7.860  18.169  0.00  0.00    +0.000 C 
ATOM     12  C   UNL     1       1.880   8.219  19.399  0.00  0.00    +0.000 C 
BRANCH  12  13
ATOM     13  C   UNL     1       0.973   9.359  19.590  0.00  0.00    +0.000 A 
ATOM     14  C   UNL     1       0.420   9.989  18.465  0.00  0.00    +0.000 A 
ATOM     15  C   UNL     1      -0.493  11.036  18.615  0.00  0.00    +0.000 A 
ATOM     16  C   UNL     1      -0.868  11.464  19.888  0.00  0.00    +0.000 A 
ATOM     17  C   UNL     1      -0.316  10.856  21.014  0.00  0.00    +0.000 A 
ATOM     18  C   UNL     1       0.603   9.813  20.869  0.00  0.00    +0.000 A 
ATOM     19 CL   UNL     1       1.253   9.108  22.310  0.00  0.00    +0.000 Cl
ENDBRANCH  12  13
ENDBRANCH   2  11
TORSDOF 3
ENDMDL
MODEL 6
REMARK VINA RESULT:      -6.4      5.057      7.015
REMARK  Name = 
REMARK  3 active torsions:
REMARK  status: ('A' for Active; 'I' for Inactive)
REMARK    1  A    between atoms: C_2  and  C_3
REMARK    2  A    between atoms: C_4  and  C_5
REMARK    3  A    between atoms: N_12  and  C_13
REMARK                            x       y       z     vdW  Elec       q    Type
REMARK                         _______ _______ _______ _____ _____    ______ ____
ROOT
ATOM      1  O   UNL     1       8.426   6.710  19.140  0.00  0.00    +0.000 OA
ATOM      2  C   UNL     1       7.949   7.481  18.322  0.00  0.00    +0.000 C 
ATOM      3  N   UNL     1       6.879   7.206  17.501  0.00  0.00    +0.000 N 
ATOM      4  H   UNL     1       6.504   7.961  16.945  0.00  0.00    +0.000 HD
ENDROOT
BRANCH   3   5
ATOM      5  C   UNL     1       6.087   5.977  17.569  0.00  0.00    +0.000 C 
ATOM      6  C   UNL     1       4.820   6.126  16.710  0.00  0.00    +0.000 C 
ATOM      7  C   UNL     1       5.139   6.185  15.212  0.00  0.00    +0.000 C 
ATOM      8  C   UNL     1       6.001   5.011  14.753  0.00  0.00    +0.000 C 
ATOM      9  C   UNL     1       7.233   4.812  15.631  0.00  0.00    +0.000 C 
ATOM     10  C   UNL     1       6.858   4.730  17.109  0.00  0.00    +0.000 C 
ENDBRANCH   3   5
BRANCH   2  11
ATOM     11  C   UNL     1       8.465   8.862  18.123  0.00  0.00    +0.000 C 
ATOM     12  C   UNL     1       9.086   9.515  19.115  0.00  0.00    +0.000 C 
BRANCH  12  13
ATOM     13  C   UNL     1       9.487  10.918  18.949  0.00  0.00    +0.000 A 
ATOM     14  C   UNL     1       9.955  11.354  17.700  0.00  0.00    +0.000 A 
ATOM     15  C   UNL     1      10.285  12.696  17.495  0.00  0.00    +0.000 A 
ATOM     16  C   UNL     1      10.150  13.620  18.530  0.00  0.00    +0.000 A 
ATOM     17  C   UNL     1       9.700  13.198  19.779  0.00  0.00    +0.000 A 
ATOM     18  C   UNL     1       9.374  11.855  19.992  0.00  0.00    +0.000 A 
ATOM     19 CL   UNL     1       8.828  11.401  21.571  0.00  0.00    +0.000 Cl
ENDBRANCH  12  13
ENDBRANCH   2  11
TORSDOF 3
ENDMDL
MODEL 7
REMARK VINA RESULT:      -6.4      0.949      1.106
REMARK  Name = 
REMARK  3 active torsions:
REMARK  status: ('A' for Active; 'I' for Inactive)
REMARK    1  A    between atoms: C_2  and  C_3
REMARK    2  A    between atoms: C_4  and  C_5
REMARK    3  A    between atoms: N_12  and  C_13
REMARK                            x       y       z     vdW  Elec       q    Type
REMARK                         _______ _______ _______ _____ _____    ______ ____
ROOT
ATOM      1  O   UNL     1       2.017   4.092  20.990  0.00  0.00    +0.000 OA
ATOM      2  C   UNL     1       2.321   5.195  20.565  0.00  0.00    +0.000 C 
ATOM      3  N   UNL     1       3.489   5.497  19.902  0.00  0.00    +0.000 N 
ATOM      4  H   UNL     1       3.579   6.419  19.499  0.00  0.00    +0.000 HD
ENDROOT
BRANCH   3   5
ATOM      5  C   UNL     1       4.494   4.505  19.518  0.00  0.00    +0.000 C 
ATOM      6  C   UNL     1       3.935   3.598  18.409  0.00  0.00    +0.000 C 
ATOM      7  C   UNL     1       3.747   4.349  17.087  0.00  0.00    +0.000 C 
ATOM      8  C   UNL     1       5.016   5.073  16.642  0.00  0.00    +0.000 C 
ATOM      9  C   UNL     1       5.618   5.932  17.750  0.00  0.00    +0.000 C 
ATOM     10  C   UNL     1       5.812   5.130  19.035  0.00  0.00    +0.000 C 
ENDBRANCH   3   5
BRANCH   2  11
ATOM     11  C   UNL     1       1.429   6.379  20.690  0.00  0.00    +0.000 C 
ATOM     12  C   UNL     1       1.869   7.609  20.386  0.00  0.00    +0.000 C 
BRANCH  12  13
ATOM     13  C   UNL     1       1.022   8.785  20.623  0.00  0.00    +0.000 A 
ATOM     14  C   UNL     1       0.450   8.973  21.890  0.00  0.00    +0.000 A 
ATOM     15  C   UNL     1      -0.310  10.113  22.164  0.00  0.00    +0.000 A 
ATOM     16  C   UNL     1      -0.506  11.080  21.179  0.00  0.00    +0.000 A 
ATOM     17  C   UNL     1       0.044  10.899  19.912  0.00  0.00    +0.000 A 
ATOM     18  C   UNL     1       0.800   9.757  19.631  0.00  0.00    +0.000 A 
ATOM     19 CL   UNL     1       1.448   9.595  18.034  0.00  0.00    +0.000 Cl
ENDBRANCH  12  13
ENDBRANCH   2  11
TORSDOF 3
ENDMDL
MODEL 8
REMARK VINA RESULT:      -6.4      0.693      1.109
REMARK  Name = 
REMARK  3 active torsions:
REMARK  status: ('A' for Active; 'I' for Inactive)
REMARK    1  A    between atoms: C_2  and  C_3
REMARK    2  A    between atoms: C_4  and  C_5
REMARK    3  A    between atoms: N_12  and  C_13
REMARK                            x       y       z     vdW  Elec       q    Type
REMARK                         _______ _______ _______ _____ _____    ______ ____
ROOT
ATOM      1  O   UNL     1       3.214   4.077  19.868  0.00  0.00    +0.000 OA
ATOM      2  C   UNL     1       3.210   5.260  19.568  0.00  0.00    +0.000 C 
ATOM      3  N   UNL     1       4.033   5.846  18.634  0.00  0.00    +0.000 N 
ATOM      4  H   UNL     1       3.860   6.811  18.390  0.00  0.00    +0.000 HD
ENDROOT
BRANCH   3   5
ATOM      5  C   UNL     1       4.968   5.107  17.785  0.00  0.00    +0.000 C 
ATOM      6  C   UNL     1       5.463   6.011  16.643  0.00  0.00    +0.000 C 
ATOM      7  C   UNL     1       6.363   7.143  17.150  0.00  0.00    +0.000 C 
ATOM      8  C   UNL     1       7.517   6.630  18.010  0.00  0.00    +0.000 C 
ATOM      9  C   UNL     1       7.050   5.683  19.111  0.00  0.00    +0.000 C 
ATOM     10  C   UNL     1       6.182   4.559  18.550  0.00  0.00    +0.000 C 
ENDBRANCH   3   5
BRANCH   2  11
ATOM     11  C   UNL     1       2.267   6.240  20.173  0.00  0.00    +0.000 C 
ATOM     12  C   UNL     1       2.180   7.493  19.704  0.00  0.00    +0.000 C 
BRANCH  12  13
ATOM     13  C   UNL     1       1.335   8.486  20.380  0.00  0.00    +0.000 A 
ATOM     14  C   UNL     1       1.180   8.420  21.773  0.00  0.00    +0.000 A 
ATOM     15  C   UNL     1       0.432   9.387  22.450  0.00  0.00    +0.000 A 
ATOM     16  C   UNL     1      -0.166  10.432  21.749  0.00  0.00    +0.000 A 
ATOM     17  C   UNL     1      -0.032  10.502  20.364  0.00  0.00    +0.000 A 
ATOM     18  C   UNL     1       0.710   9.534  19.680  0.00  0.00    +0.000 A 
ATOM     19 CL   UNL     1       0.829   9.680  17.959  0.00  0.00    +0.000 Cl
ENDBRANCH  12  13
ENDBRANCH   2  11
TORSDOF 3
ENDMDL
MODEL 9
REMARK VINA RESULT:      -6.4      2.313      3.814
REMARK  Name = 
REMARK  3 active torsions:
REMARK  status: ('A' for Active; 'I' for Inactive)
REMARK    1  A    between atoms: C_2  and  C_3
REMARK    2  A    between atoms: C_4  and  C_5
REMARK    3  A    between atoms: N_12  and  C_13
REMARK                            x       y       z     vdW  Elec       q    Type
REMARK                         _______ _______ _______ _____ _____    ______ ____
ROOT
ATOM      1  O   UNL     1       4.780   5.608  16.731  0.00  0.00    +0.000 OA
ATOM      2  C   UNL     1       3.872   5.829  17.518  0.00  0.00    +0.000 C 
ATOM      3  N   UNL     1       3.196   4.871  18.238  0.00  0.00    +0.000 N 
ATOM      4  H   UNL     1       2.541   5.183  18.941  0.00  0.00    +0.000 HD
ENDROOT
BRANCH   3   5
ATOM      5  C   UNL     1       3.544   3.450  18.244  0.00  0.00    +0.000 C 
ATOM      6  C   UNL     1       3.909   3.007  19.671  0.00  0.00    +0.000 C 
ATOM      7  C   UNL     1       2.695   3.013  20.607  0.00  0.00    +0.000 C 
ATOM      8  C   UNL     1       1.522   2.212  20.046  0.00  0.00    +0.000 C 
ATOM      9  C   UNL     1       1.185   2.597  18.608  0.00  0.00    +0.000 C 
ATOM     10  C   UNL     1       2.421   2.546  17.713  0.00  0.00    +0.000 C 
ENDBRANCH   3   5
BRANCH   2  11
ATOM     11  C   UNL     1       3.388   7.202  17.823  0.00  0.00    +0.000 C 
ATOM     12  C   UNL     1       2.434   7.408  18.741  0.00  0.00    +0.000 C 
BRANCH  12  13
ATOM     13  C   UNL     1       1.878   8.751  18.953  0.00  0.00    +0.000 A 
ATOM     14  C   UNL     1       2.090   9.741  17.982  0.00  0.00    +0.000 A 
ATOM     15  C   UNL     1       1.523  11.010  18.126  0.00  0.00    +0.000 A 
ATOM     16  C   UNL     1       0.736  11.306  19.238  0.00  0.00    +0.000 A 
ATOM     17  C   UNL     1       0.529  10.337  20.217  0.00  0.00    +0.000 A 
ATOM     18  C   UNL     1       1.099   9.067  20.081  0.00  0.00    +0.000 A 
ATOM     19 CL   UNL     1       0.806   7.915  21.339  0.00  0.00    +0.000 Cl
ENDBRANCH  12  13
ENDBRANCH   2  11
TORSDOF 3
ENDMDL
