MODEL 1
REMARK VINA RESULT:      -7.3      0.000      0.000
REMARK  Name = 
REMARK  5 active torsions:
REMARK  status: ('A' for Active; 'I' for Inactive)
REMARK    1  A    between atoms: C_1  and  N_2
REMARK    2  A    between atoms: N_2  and  C_3
REMARK    3  A    between atoms: C_6  and  C_7
REMARK    4  A    between atoms: C_7  and  N_8
REMARK    5  A    between atoms: N_11  and  C_12
REMARK                            x       y       z     vdW  Elec       q    Type
REMARK                         _______ _______ _______ _____ _____    ______ ____
ROOT
ATOM      1  N   UNL     1       1.445   9.233  19.210  0.00  0.00    +0.000 N 
ATOM      2  C   UNL     1       2.071   8.372  18.357  0.00  0.00    +0.000 C 
ATOM      3  O   UNL     1       2.499   8.715  17.260  0.00  0.00    +0.000 OA
ATOM      4  N   UNL     1       2.160   7.092  18.821  0.00  0.00    +0.000 N 
ATOM      5  H   UNL     1       1.005   8.928  20.067  0.00  0.00    +0.000 HD
ATOM      6  H   UNL     1       2.074   6.940  19.815  0.00  0.00    +0.000 HD
ENDROOT
BRANCH   4   7
ATOM      7  C   UNL     1       2.904   6.120  18.040  0.00  0.00    +0.000 C 
ATOM      8  C   UNL     1       4.407   6.072  18.386  0.00  0.00    +0.000 C 
ATOM      9  O   UNL     1       4.648   4.971  19.305  0.00  0.00    +0.000 OA
ATOM     10  C   UNL     1       3.586   4.133  19.083  0.00  0.00    +0.000 A 
ATOM     11  C   UNL     1       3.531   2.821  19.508  0.00  0.00    +0.000 A 
ATOM     12  C   UNL     1       2.393   2.078  19.185  0.00  0.00    +0.000 A 
ATOM     13  C   UNL     1       1.337   2.665  18.469  0.00  0.00    +0.000 A 
ATOM     14  C   UNL     1       1.406   4.000  18.063  0.00  0.00    +0.000 A 
ATOM     15  C   UNL     1       2.547   4.720  18.376  0.00  0.00    +0.000 A 
ENDBRANCH   4   7
BRANCH   1  16
ATOM     16  C   UNL     1       1.178  10.578  18.763  0.00  0.00    +0.000 C 
BRANCH  16  22
ATOM     17  C   UNL     1      -2.952   9.795  15.640  0.00  0.00    +0.000 C 
ATOM     18  N   UNL     1      -3.287  10.622  16.785  0.00  0.00    +0.000 N 
ATOM     19  C   UNL     1      -4.477  11.454  16.710  0.00  0.00    +0.000 C 
ATOM     20  C   UNL     1      -2.306  10.877  17.704  0.00  0.00    +0.000 A 
ATOM     21  N   UNL     1      -1.059  10.453  17.596  0.00  0.00    +0.000 NA
ATOM     22  C   UNL     1      -0.284  10.882  18.672  0.00  0.00    +0.000 A 
ATOM     23  C   UNL     1      -0.977  11.617  19.614  0.00  0.00    +0.000 A 
ATOM     24  S   UNL     1      -2.604  11.789  19.153  0.00  0.00    +0.000 S 
ENDBRANCH  16  22
ENDBRANCH   1  16
TORSDOF 3
ENDMDL
MODEL 2
REMARK VINA RESULT:      -7.1      2.329      2.998
REMARK  Name = 
REMARK  5 active torsions:
REMARK  status: ('A' for Active; 'I' for Inactive)
REMARK    1  A    between atoms: C_1  and  N_2
REMARK    2  A    between atoms: N_2  and  C_3
REMARK    3  A    between atoms: C_6  and  C_7
REMARK    4  A    between atoms: C_7  and  N_8
REMARK    5  A    between atoms: N_11  and  C_12
REMARK                            x       y       z     vdW  Elec       q    Type
REMARK                         _______ _______ _______ _____ _____    ______ ____
ROOT
ATOM      1  N   UNL     1       1.741   8.747  18.815  0.00  0.00    +0.000 N 
ATOM      2  C   UNL     1       2.536   7.958  18.037  0.00  0.00    +0.000 C 
ATOM      3  O   UNL     1       3.042   8.350  16.990  0.00  0.00    +0.000 OA
ATOM      4  N   UNL     1       2.703   6.690  18.512  0.00  0.00    +0.000 N 
ATOM      5  H   UNL     1       1.246   8.394  19.622  0.00  0.00    +0.000 HD
ATOM      6  H   UNL     1       2.528   6.524  19.493  0.00  0.00    +0.000 HD
ENDROOT
BRANCH   4   7
ATOM      7  C   UNL     1       3.618   5.802  17.819  0.00  0.00    +0.000 C 
ATOM      8  C   UNL     1       5.052   5.825  18.390  0.00  0.00    +0.000 C 
ATOM      9  O   UNL     1       5.222   4.697  19.292  0.00  0.00    +0.000 OA
ATOM     10  C   UNL     1       4.262   3.811  18.877  0.00  0.00    +0.000 A 
ATOM     11  C   UNL     1       4.229   2.478  19.237  0.00  0.00    +0.000 A 
ATOM     12  C   UNL     1       3.204   1.687  18.714  0.00  0.00    +0.000 A 
ATOM     13  C   UNL     1       2.233   2.245  17.866  0.00  0.00    +0.000 A 
ATOM     14  C   UNL     1       2.276   3.600  17.528  0.00  0.00    +0.000 A 
ATOM     15  C   UNL     1       3.307   4.369  18.042  0.00  0.00    +0.000 A 
ENDBRANCH   4   7
BRANCH   1  16
ATOM     16  C   UNL     1       1.390  10.062  18.337  0.00  0.00    +0.000 C 
BRANCH  16  22
ATOM     17  C   UNL     1      -0.404   9.781  23.249  0.00  0.00    +0.000 C 
ATOM     18  N   UNL     1      -0.830  11.000  22.584  0.00  0.00    +0.000 N 
ATOM     19  C   UNL     1      -1.977  11.713  23.121  0.00  0.00    +0.000 C 
ATOM     20  C   UNL     1      -0.401  11.218  21.304  0.00  0.00    +0.000 A 
ATOM     21  N   UNL     1       0.344  10.371  20.615  0.00  0.00    +0.000 NA
ATOM     22  C   UNL     1       0.608  10.855  19.335  0.00  0.00    +0.000 A 
ATOM     23  C   UNL     1       0.072  12.102  19.077  0.00  0.00    +0.000 A 
ATOM     24  S   UNL     1      -0.781  12.673  20.432  0.00  0.00    +0.000 S 
ENDBRANCH  16  22
ENDBRANCH   1  16
TORSDOF 3
ENDMDL
MODEL 3
REMARK VINA RESULT:      -6.9      6.740      9.536
REMARK  Name = 
REMARK  5 active torsions:
REMARK  status: ('A' for Active; 'I' for Inactive)
REMARK    1  A    between atoms: C_1  and  N_2
REMARK    2  A    between atoms: N_2  and  C_3
REMARK    3  A    between atoms: C_6  and  C_7
REMARK    4  A    between atoms: C_7  and  N_8
REMARK    5  A    between atoms: N_11  and  C_12
REMARK                            x       y       z     vdW  Elec       q    Type
REMARK                         _______ _______ _______ _____ _____    ______ ____
ROOT
ATOM      1  N   UNL     1       8.324   7.429  18.511  0.00  0.00    +0.000 N 
ATOM      2  C   UNL     1       8.268   8.791  18.490  0.00  0.00    +0.000 C 
ATOM      3  O   UNL     1       7.605   9.417  17.669  0.00  0.00    +0.000 OA
ATOM      4  N   UNL     1       9.030   9.398  19.446  0.00  0.00    +0.000 N 
ATOM      5  H   UNL     1       8.947   6.919  19.122  0.00  0.00    +0.000 HD
ATOM      6  H   UNL     1       9.296   8.856  20.255  0.00  0.00    +0.000 HD
ENDROOT
BRANCH   4   7
ATOM      7  C   UNL     1       8.956  10.842  19.580  0.00  0.00    +0.000 C 
ATOM      8  C   UNL     1       9.184  11.339  21.024  0.00  0.00    +0.000 C 
ATOM      9  O   UNL     1      10.567  11.764  21.167  0.00  0.00    +0.000 OA
ATOM     10  C   UNL     1      10.949  12.040  19.880  0.00  0.00    +0.000 A 
ATOM     11  C   UNL     1      12.082  12.754  19.544  0.00  0.00    +0.000 A 
ATOM     12  C   UNL     1      12.331  12.983  18.188  0.00  0.00    +0.000 A 
ATOM     13  C   UNL     1      11.460  12.478  17.208  0.00  0.00    +0.000 A 
ATOM     14  C   UNL     1      10.329  11.743  17.570  0.00  0.00    +0.000 A 
ATOM     15  C   UNL     1      10.086  11.538  18.919  0.00  0.00    +0.000 A 
ENDBRANCH   4   7
BRANCH   1  16
ATOM     16  C   UNL     1       7.664   6.692  17.462  0.00  0.00    +0.000 C 
BRANCH  16  22
ATOM     17  C   UNL     1       2.565   7.399  18.423  0.00  0.00    +0.000 C 
ATOM     18  N   UNL     1       3.004   6.061  18.775  0.00  0.00    +0.000 N 
ATOM     19  C   UNL     1       2.189   5.290  19.701  0.00  0.00    +0.000 C 
ATOM     20  C   UNL     1       4.310   5.729  18.542  0.00  0.00    +0.000 A 
ATOM     21  N   UNL     1       5.212   6.562  18.053  0.00  0.00    +0.000 NA
ATOM     22  C   UNL     1       6.459   5.948  17.942  0.00  0.00    +0.000 A 
ATOM     23  C   UNL     1       6.476   4.622  18.329  0.00  0.00    +0.000 A 
ATOM     24  S   UNL     1       4.933   4.136  18.850  0.00  0.00    +0.000 S 
ENDBRANCH  16  22
ENDBRANCH   1  16
TORSDOF 3
ENDMDL
MODEL 4
REMARK VINA RESULT:      -6.9      1.402      1.911
REMARK  Name = 
REMARK  5 active torsions:
REMARK  status: ('A' for Active; 'I' for Inactive)
REMARK    1  A    between atoms: C_1  and  N_2
REMARK    2  A    between atoms: N_2  and  C_3
REMARK    3  A    between atoms: C_6  and  C_7
REMARK    4  A    between atoms: C_7  and  N_8
REMARK    5  A    between atoms: N_11  and  C_12
REMARK                            x       y       z     vdW  Elec       q    Type
REMARK                         _______ _______ _______ _____ _____    ______ ____
ROOT
ATOM      1  N   UNL     1       1.555   9.191  19.177  0.00  0.00    +0.000 N 
ATOM      2  C   UNL     1       2.160   8.305  18.334  0.00  0.00    +0.000 C 
ATOM      3  O   UNL     1       2.547   8.613  17.212  0.00  0.00    +0.000 OA
ATOM      4  N   UNL     1       2.276   7.043  18.839  0.00  0.00    +0.000 N 
ATOM      5  H   UNL     1       1.148   8.912  20.059  0.00  0.00    +0.000 HD
ATOM      6  H   UNL     1       2.226   6.925  19.840  0.00  0.00    +0.000 HD
ENDROOT
BRANCH   4   7
ATOM      7  C   UNL     1       3.002   6.050  18.067  0.00  0.00    +0.000 C 
ATOM      8  C   UNL     1       4.493   5.942  18.449  0.00  0.00    +0.000 C 
ATOM      9  O   UNL     1       4.671   4.825  19.363  0.00  0.00    +0.000 OA
ATOM     10  C   UNL     1       3.583   4.030  19.108  0.00  0.00    +0.000 A 
ATOM     11  C   UNL     1       3.468   2.717  19.519  0.00  0.00    +0.000 A 
ATOM     12  C   UNL     1       2.311   2.020  19.161  0.00  0.00    +0.000 A 
ATOM     13  C   UNL     1       1.296   2.653  18.425  0.00  0.00    +0.000 A 
ATOM     14  C   UNL     1       1.426   3.988  18.034  0.00  0.00    +0.000 A 
ATOM     15  C   UNL     1       2.585   4.662  18.382  0.00  0.00    +0.000 A 
ENDBRANCH   4   7
BRANCH   1  16
ATOM     16  C   UNL     1       1.261  10.517  18.693  0.00  0.00    +0.000 C 
BRANCH  16  22
ATOM     17  C   UNL     1      -2.467  13.597  20.702  0.00  0.00    +0.000 C 
ATOM     18  N   UNL     1      -3.008  12.635  19.760  0.00  0.00    +0.000 N 
ATOM     19  C   UNL     1      -4.430  12.335  19.820  0.00  0.00    +0.000 C 
ATOM     20  C   UNL     1      -2.136  11.788  19.132  0.00  0.00    +0.000 A 
ATOM     21  N   UNL     1      -0.834  11.762  19.358  0.00  0.00    +0.000 NA
ATOM     22  C   UNL     1      -0.207  10.785  18.587  0.00  0.00    +0.000 A 
ATOM     23  C   UNL     1      -1.057  10.091  17.748  0.00  0.00    +0.000 A 
ATOM     24  S   UNL     1      -2.653  10.646  17.929  0.00  0.00    +0.000 S 
ENDBRANCH  16  22
ENDBRANCH   1  16
TORSDOF 3
ENDMDL
MODEL 5
REMARK VINA RESULT:      -6.8      2.724      3.213
REMARK  Name = 
REMARK  5 active torsions:
REMARK  status: ('A' for Active; 'I' for Inactive)
REMARK    1  A    between atoms: C_1  and  N_2
REMARK    2  A    between atoms: N_2  and  C_3
REMARK    3  A    between atoms: C_6  and  C_7
REMARK    4  A    between atoms: C_7  and  N_8
REMARK    5  A    between atoms: N_11  and  C_12
REMARK                            x       y       z     vdW  Elec       q    Type
REMARK                         _______ _______ _______ _____ _____    ______ ____
ROOT
ATOM      1  N   UNL     1       1.796   8.254  20.003  0.00  0.00    +0.000 N 
ATOM      2  C   UNL     1       2.437   7.527  19.043  0.00  0.00    +0.000 C 
ATOM      3  O   UNL     1       2.392   7.814  17.851  0.00  0.00    +0.000 OA
ATOM      4  N   UNL     1       3.113   6.442  19.520  0.00  0.00    +0.000 N 
ATOM      5  H   UNL     1       1.752   7.960  20.969  0.00  0.00    +0.000 HD
ATOM      6  H   UNL     1       3.363   6.431  20.498  0.00  0.00    +0.000 HD
ENDROOT
BRANCH   4   7
ATOM      7  C   UNL     1       3.918   5.663  18.597  0.00  0.00    +0.000 C 
ATOM      8  C   UNL     1       5.351   5.396  19.103  0.00  0.00    +0.000 C 
ATOM      9  O   UNL     1       5.406   4.069  19.694  0.00  0.00    +0.000 OA
ATOM     10  C   UNL     1       4.351   3.417  19.111  0.00  0.00    +0.000 A 
ATOM     11  C   UNL     1       4.176   2.047  19.135  0.00  0.00    +0.000 A 
ATOM     12  C   UNL     1       3.065   1.520  18.472  0.00  0.00    +0.000 A 
ATOM     13  C   UNL     1       2.152   2.368  17.823  0.00  0.00    +0.000 A 
ATOM     14  C   UNL     1       2.339   3.752  17.826  0.00  0.00    +0.000 A 
ATOM     15  C   UNL     1       3.454   4.260  18.473  0.00  0.00    +0.000 A 
ENDBRANCH   4   7
BRANCH   1  16
ATOM     16  C   UNL     1       0.943   9.342  19.595  0.00  0.00    +0.000 C 
BRANCH  16  22
ATOM     17  C   UNL     1      -1.404  13.831  20.925  0.00  0.00    +0.000 C 
ATOM     18  N   UNL     1      -1.372  12.887  22.028  0.00  0.00    +0.000 N 
ATOM     19  C   UNL     1      -1.545  13.398  23.378  0.00  0.00    +0.000 C 
ATOM     20  C   UNL     1      -0.817  11.657  21.807  0.00  0.00    +0.000 A 
ATOM     21  N   UNL     1      -0.269  11.284  20.663  0.00  0.00    +0.000 NA
ATOM     22  C   UNL     1       0.228   9.984  20.741  0.00  0.00    +0.000 A 
ATOM     23  C   UNL     1       0.019   9.367  21.959  0.00  0.00    +0.000 A 
ATOM     24  S   UNL     1      -0.790  10.417  23.024  0.00  0.00    +0.000 S 
ENDBRANCH  16  22
ENDBRANCH   1  16
TORSDOF 3
ENDMDL
MODEL 6
REMARK VINA RESULT:      -6.8      1.576      1.871
REMARK  Name = 
REMARK  5 active torsions:
REMARK  status: ('A' for Active; 'I' for Inactive)
REMARK    1  A    between atoms: C_1  and  N_2
REMARK    2  A    between atoms: N_2  and  C_3
REMARK    3  A    between atoms: C_6  and  C_7
REMARK    4  A    between atoms: C_7  and  N_8
REMARK    5  A    between atoms: N_11  and  C_12
REMARK                            x       y       z     vdW  Elec       q    Type
REMARK                         _______ _______ _______ _____ _____    ______ ____
ROOT
ATOM      1  N   UNL     1       1.840   8.673  18.834  0.00  0.00    +0.000 N 
ATOM      2  C   UNL     1       2.632   7.880  18.057  0.00  0.00    +0.000 C 
ATOM      3  O   UNL     1       3.086   8.245  16.978  0.00  0.00    +0.000 OA
ATOM      4  N   UNL     1       2.859   6.637  18.574  0.00  0.00    +0.000 N 
ATOM      5  H   UNL     1       1.387   8.336  19.672  0.00  0.00    +0.000 HD
ATOM      6  H   UNL     1       2.725   6.504  19.566  0.00  0.00    +0.000 HD
ENDROOT
BRANCH   4   7
ATOM      7  C   UNL     1       3.777   5.753  17.881  0.00  0.00    +0.000 C 
ATOM      8  C   UNL     1       5.193   5.729  18.496  0.00  0.00    +0.000 C 
ATOM      9  O   UNL     1       5.314   4.572  19.367  0.00  0.00    +0.000 OA
ATOM     10  C   UNL     1       4.351   3.718  18.896  0.00  0.00    +0.000 A 
ATOM     11  C   UNL     1       4.280   2.376  19.214  0.00  0.00    +0.000 A 
ATOM     12  C   UNL     1       3.257   1.621  18.636  0.00  0.00    +0.000 A 
ATOM     13  C   UNL     1       2.323   2.224  17.777  0.00  0.00    +0.000 A 
ATOM     14  C   UNL     1       2.402   3.587  17.483  0.00  0.00    +0.000 A 
ATOM     15  C   UNL     1       3.432   4.320  18.050  0.00  0.00    +0.000 A 
ENDBRANCH   4   7
BRANCH   1  16
ATOM     16  C   UNL     1       1.428   9.956  18.320  0.00  0.00    +0.000 C 
BRANCH  16  22
ATOM     17  C   UNL     1      -3.489  11.746  18.515  0.00  0.00    +0.000 C 
ATOM     18  N   UNL     1      -2.739  12.088  19.710  0.00  0.00    +0.000 N 
ATOM     19  C   UNL     1      -3.223  13.181  20.539  0.00  0.00    +0.000 C 
ATOM     20  C   UNL     1      -1.447  11.650  19.807  0.00  0.00    +0.000 A 
ATOM     21  N   UNL     1      -0.822  10.969  18.863  0.00  0.00    +0.000 NA
ATOM     22  C   UNL     1       0.489  10.676  19.235  0.00  0.00    +0.000 A 
ATOM     23  C   UNL     1       0.836  11.124  20.495  0.00  0.00    +0.000 A 
ATOM     24  S   UNL     1      -0.474  11.929  21.219  0.00  0.00    +0.000 S 
ENDBRANCH  16  22
ENDBRANCH   1  16
TORSDOF 3
ENDMDL
MODEL 7
REMARK VINA RESULT:      -6.7      2.069      3.170
REMARK  Name = 
REMARK  5 active torsions:
REMARK  status: ('A' for Active; 'I' for Inactive)
REMARK    1  A    between atoms: C_1  and  N_2
REMARK    2  A    between atoms: N_2  and  C_3
REMARK    3  A    between atoms: C_6  and  C_7
REMARK    4  A    between atoms: C_7  and  N_8
REMARK    5  A    between atoms: N_11  and  C_12
REMARK                            x       y       z     vdW  Elec       q    Type
REMARK                         _______ _______ _______ _____ _____    ______ ____
ROOT
ATOM      1  N   UNL     1       1.365   9.151  18.202  0.00  0.00    +0.000 N 
ATOM      2  C   UNL     1       2.064   8.138  18.791  0.00  0.00    +0.000 C 
ATOM      3  O   UNL     1       2.035   7.923  19.998  0.00  0.00    +0.000 OA
ATOM      4  N   UNL     1       2.816   7.400  17.924  0.00  0.00    +0.000 N 
ATOM      5  H   UNL     1       1.469   9.388  17.225  0.00  0.00    +0.000 HD
ATOM      6  H   UNL     1       2.572   7.423  16.945  0.00  0.00    +0.000 HD
ENDROOT
BRANCH   4   7
ATOM      7  C   UNL     1       3.513   6.231  18.431  0.00  0.00    +0.000 C 
ATOM      8  C   UNL     1       2.697   4.927  18.311  0.00  0.00    +0.000 C 
ATOM      9  O   UNL     1       3.121   4.208  17.120  0.00  0.00    +0.000 OA
ATOM     10  C   UNL     1       4.382   4.692  16.889  0.00  0.00    +0.000 A 
ATOM     11  C   UNL     1       5.298   4.099  16.043  0.00  0.00    +0.000 A 
ATOM     12  C   UNL     1       6.558   4.691  15.927  0.00  0.00    +0.000 A 
ATOM     13  C   UNL     1       6.864   5.863  16.638  0.00  0.00    +0.000 A 
ATOM     14  C   UNL     1       5.916   6.456  17.476  0.00  0.00    +0.000 A 
ATOM     15  C   UNL     1       4.677   5.850  17.594  0.00  0.00    +0.000 A 
ENDBRANCH   4   7
BRANCH   1  16
ATOM     16  C   UNL     1       0.645  10.075  19.042  0.00  0.00    +0.000 C 
BRANCH  16  22
ATOM     17  C   UNL     1      -3.621  12.864  20.249  0.00  0.00    +0.000 C 
ATOM     18  N   UNL     1      -3.813  12.068  19.049  0.00  0.00    +0.000 N 
ATOM     19  C   UNL     1      -5.174  11.785  18.621  0.00  0.00    +0.000 C 
ATOM     20  C   UNL     1      -2.763  11.316  18.600  0.00  0.00    +0.000 A 
ATOM     21  N   UNL     1      -1.593  11.234  19.210  0.00  0.00    +0.000 NA
ATOM     22  C   UNL     1      -0.727  10.380  18.530  0.00  0.00    +0.000 A 
ATOM     23  C   UNL     1      -1.254   9.838  17.374  0.00  0.00    +0.000 A 
ATOM     24  S   UNL     1      -2.847  10.383  17.136  0.00  0.00    +0.000 S 
ENDBRANCH  16  22
ENDBRANCH   1  16
TORSDOF 3
ENDMDL
MODEL 8
REMARK VINA RESULT:      -6.7      3.272      4.285
REMARK  Name = 
REMARK  5 active torsions:
REMARK  status: ('A' for Active; 'I' for Inactive)
REMARK    1  A    between atoms: C_1  and  N_2
REMARK    2  A    between atoms: N_2  and  C_3
REMARK    3  A    between atoms: C_6  and  C_7
REMARK    4  A    between atoms: C_7  and  N_8
REMARK    5  A    between atoms: N_11  and  C_12
REMARK                            x       y       z     vdW  Elec       q    Type
REMARK                         _______ _______ _______ _____ _____    ______ ____
ROOT
ATOM      1  N   UNL     1       1.869   7.381  20.567  0.00  0.00    +0.000 N 
ATOM      2  C   UNL     1       2.319   6.104  20.403  0.00  0.00    +0.000 C 
ATOM      3  O   UNL     1       1.762   5.133  20.903  0.00  0.00    +0.000 OA
ATOM      4  N   UNL     1       3.454   6.004  19.652  0.00  0.00    +0.000 N 
ATOM      5  H   UNL     1       2.383   8.187  20.239  0.00  0.00    +0.000 HD
ATOM      6  H   UNL     1       3.683   6.768  19.033  0.00  0.00    +0.000 HD
ENDROOT
BRANCH   4   7
ATOM      7  C   UNL     1       3.956   4.681  19.324  0.00  0.00    +0.000 C 
ATOM      8  C   UNL     1       3.068   3.916  18.321  0.00  0.00    +0.000 C 
ATOM      9  O   UNL     1       3.628   4.057  16.987  0.00  0.00    +0.000 OA
ATOM     10  C   UNL     1       4.946   4.349  17.225  0.00  0.00    +0.000 A 
ATOM     11  C   UNL     1       5.941   4.280  16.270  0.00  0.00    +0.000 A 
ATOM     12  C   UNL     1       7.246   4.581  16.665  0.00  0.00    +0.000 A 
ATOM     13  C   UNL     1       7.522   4.960  17.989  0.00  0.00    +0.000 A 
ATOM     14  C   UNL     1       6.497   5.040  18.935  0.00  0.00    +0.000 A 
ATOM     15  C   UNL     1       5.209   4.723  18.533  0.00  0.00    +0.000 A 
ENDBRANCH   4   7
BRANCH   1  16
ATOM     16  C   UNL     1       0.755   7.614  21.453  0.00  0.00    +0.000 C 
BRANCH  16  22
ATOM     17  C   UNL     1       1.510  12.182  19.006  0.00  0.00    +0.000 C 
ATOM     18  N   UNL     1       0.714  12.336  20.210  0.00  0.00    +0.000 N 
ATOM     19  C   UNL     1       0.620  13.658  20.810  0.00  0.00    +0.000 C 
ATOM     20  C   UNL     1       0.410  11.214  20.930  0.00  0.00    +0.000 A 
ATOM     21  N   UNL     1       0.830   9.998  20.622  0.00  0.00    +0.000 NA
ATOM     22  C   UNL     1       0.377   9.058  21.546  0.00  0.00    +0.000 A 
ATOM     23  C   UNL     1      -0.421   9.582  22.545  0.00  0.00    +0.000 A 
ATOM     24  S   UNL     1      -0.598  11.260  22.344  0.00  0.00    +0.000 S 
ENDBRANCH  16  22
ENDBRANCH   1  16
TORSDOF 3
ENDMDL
MODEL 9
REMARK VINA RESULT:      -6.7      2.480      3.735
REMARK  Name = 
REMARK  5 active torsions:
REMARK  status: ('A' for Active; 'I' for Inactive)
REMARK    1  A    between atoms: C_1  and  N_2
REMARK    2  A    between atoms: N_2  and  C_3
REMARK    3  A    between atoms: C_6  and  C_7
REMARK    4  A    between atoms: C_7  and  N_8
REMARK    5  A    between atoms: N_11  and  C_12
REMARK                            x       y       z     vdW  Elec       q    Type
REMARK                         _______ _______ _______ _____ _____    ______ ____
ROOT
ATOM      1  N   UNL     1       1.825   7.492  20.551  0.00  0.00    +0.000 N 
ATOM      2  C   UNL     1       2.270   6.212  20.401  0.00  0.00    +0.000 C 
ATOM      3  O   UNL     1       1.702   5.247  20.901  0.00  0.00    +0.000 OA
ATOM      4  N   UNL     1       3.412   6.099  19.663  0.00  0.00    +0.000 N 
ATOM      5  H   UNL     1       2.348   8.293  20.223  0.00  0.00    +0.000 HD
ATOM      6  H   UNL     1       3.653   6.858  19.041  0.00  0.00    +0.000 HD
ENDROOT
BRANCH   4   7
ATOM      7  C   UNL     1       3.909   4.772  19.349  0.00  0.00    +0.000 C 
ATOM      8  C   UNL     1       3.033   4.009  18.334  0.00  0.00    +0.000 C 
ATOM      9  O   UNL     1       3.617   4.140  17.009  0.00  0.00    +0.000 OA
ATOM     10  C   UNL     1       4.933   4.423  17.269  0.00  0.00    +0.000 A 
ATOM     11  C   UNL     1       5.944   4.343  16.331  0.00  0.00    +0.000 A 
ATOM     12  C   UNL     1       7.245   4.635  16.748  0.00  0.00    +0.000 A 
ATOM     13  C   UNL     1       7.500   5.018  18.076  0.00  0.00    +0.000 A 
ATOM     14  C   UNL     1       6.460   5.109  19.003  0.00  0.00    +0.000 A 
ATOM     15  C   UNL     1       5.177   4.801  18.580  0.00  0.00    +0.000 A 
ENDBRANCH   4   7
BRANCH   1  16
ATOM     16  C   UNL     1       0.703   7.738  21.424  0.00  0.00    +0.000 C 
BRANCH  16  22
ATOM     17  C   UNL     1      -1.439  11.061  17.990  0.00  0.00    +0.000 C 
ATOM     18  N   UNL     1      -1.205  11.688  19.278  0.00  0.00    +0.000 N 
ATOM     19  C   UNL     1      -1.149  13.140  19.339  0.00  0.00    +0.000 C 
ATOM     20  C   UNL     1      -0.680  10.921  20.281  0.00  0.00    +0.000 A 
ATOM     21  N   UNL     1      -0.333   9.653  20.143  0.00  0.00    +0.000 NA
ATOM     22  C   UNL     1       0.188   9.139  21.329  0.00  0.00    +0.000 A 
ATOM     23  C   UNL     1       0.200  10.035  22.380  0.00  0.00    +0.000 A 
ATOM     24  S   UNL     1      -0.427  11.536  21.887  0.00  0.00    +0.000 S 
ENDBRANCH  16  22
ENDBRANCH   1  16
TORSDOF 3
ENDMDL
