MODEL 1
REMARK VINA RESULT:      -7.4      0.000      0.000
REMARK  Name = 
REMARK  6 active torsions:
REMARK  status: ('A' for Active; 'I' for Inactive)
REMARK    1  A    between atoms: C_1  and  O_2
REMARK    2  A    between atoms: O_2  and  C_3
REMARK    3  A    between atoms: C_5  and  C_6
REMARK    4  A    between atoms: C_16  and  N_17
REMARK    5  A    between atoms: C_23  and  O_24
REMARK    6  A    between atoms: O_24  and  C_25
REMARK                            x       y       z     vdW  Elec       q    Type
REMARK                         _______ _______ _______ _____ _____    ______ ____
ROOT
ATOM      1  C   UNL     1       2.190   5.773  20.256  0.00  0.00    +0.000 A 
ATOM      2  C   UNL     1       2.797   4.931  19.302  0.00  0.00    +0.000 A 
ATOM      3  C   UNL     1       3.298   5.445  18.095  0.00  0.00    +0.000 A 
ATOM      4  C   UNL     1       3.129   6.793  17.817  0.00  0.00    +0.000 A 
ATOM      5  C   UNL     1       2.628   7.644  18.795  0.00  0.00    +0.000 A 
ATOM      6  C   UNL     1       2.127   7.158  20.011  0.00  0.00    +0.000 A 
ENDROOT
BRANCH   6   7
ATOM      7  N   UNL     1       1.663   8.069  20.984  0.00  0.00    +0.000 N 
ATOM      8  C   UNL     1       0.882   9.190  20.708  0.00  0.00    +0.000 A 
ATOM      9  N   UNL     1      -0.062   9.129  19.751  0.00  0.00    +0.000 NA
ATOM     10  C   UNL     1      -0.601  10.292  19.341  0.00  0.00    +0.000 A 
ATOM     11  C   UNL     1      -0.258  11.509  19.871  0.00  0.00    +0.000 A 
ATOM     12 CL   UNL     1      -0.901  12.959  19.227  0.00  0.00    +0.000 Cl
ATOM     13  C   UNL     1       0.652  11.453  20.907  0.00  0.00    +0.000 A 
ATOM     14  N   UNL     1       1.228  10.311  21.337  0.00  0.00    +0.000 NA
ATOM     15  H   UNL     1       2.420   8.376  21.587  0.00  0.00    +0.000 HD
BRANCH  13  16
ATOM     16  O   UNL     1       1.036  12.635  21.510  0.00  0.00    +0.000 OA
ATOM     17  C   UNL     1       2.122  13.277  20.843  0.00  0.00    +0.000 C 
ENDBRANCH  13  16
ENDBRANCH   6   7
BRANCH   3  18
ATOM     18  C   UNL     1       3.941   4.533  17.104  0.00  0.00    +0.000 C 
ATOM     19  O   UNL     1       3.204   3.740  16.518  0.00  0.00    +0.000 OA
ATOM     20  N   UNL     1       5.308   4.598  16.847  0.00  0.00    +0.000 N 
ATOM     21  C   UNL     1       6.366   5.350  17.555  0.00  0.00    +0.000 C 
ATOM     22  C   UNL     1       7.122   6.234  16.547  0.00  0.00    +0.000 C 
ATOM     23  O   UNL     1       7.678   5.437  15.488  0.00  0.00    +0.000 OA
ATOM     24  C   UNL     1       6.648   4.708  14.794  0.00  0.00    +0.000 C 
ATOM     25  C   UNL     1       5.865   3.803  15.753  0.00  0.00    +0.000 C 
ENDBRANCH   3  18
BRANCH   1  27
ATOM     26  C   UNL     1       2.067   3.757  21.507  0.00  0.00    +0.000 C 
ATOM     27  O   UNL     1       1.756   5.147  21.395  0.00  0.00    +0.000 OA
ENDBRANCH   1  27
TORSDOF 4
ENDMDL
MODEL 2
REMARK VINA RESULT:      -7.2      2.513      3.799
REMARK  Name = 
REMARK  6 active torsions:
REMARK  status: ('A' for Active; 'I' for Inactive)
REMARK    1  A    between atoms: C_1  and  O_2
REMARK    2  A    between atoms: O_2  and  C_3
REMARK    3  A    between atoms: C_5  and  C_6
REMARK    4  A    between atoms: C_16  and  N_17
REMARK    5  A    between atoms: C_23  and  O_24
REMARK    6  A    between atoms: O_24  and  C_25
REMARK                            x       y       z     vdW  Elec       q    Type
REMARK                         _______ _______ _______ _____ _____    ______ ____
ROOT
ATOM      1  C   UNL     1       1.391   8.537  20.209  0.00  0.00    +0.000 A 
ATOM      2  C   UNL     1       2.214   7.461  19.819  0.00  0.00    +0.000 A 
ATOM      3  C   UNL     1       2.628   7.310  18.485  0.00  0.00    +0.000 A 
ATOM      4  C   UNL     1       2.160   8.202  17.531  0.00  0.00    +0.000 A 
ATOM      5  C   UNL     1       1.438   9.322  17.926  0.00  0.00    +0.000 A 
ATOM      6  C   UNL     1       1.018   9.500  19.252  0.00  0.00    +0.000 A 
ENDROOT
BRANCH   6   7
ATOM      7  N   UNL     1       0.317  10.673  19.607  0.00  0.00    +0.000 N 
ATOM      8  C   UNL     1       0.912  11.915  19.817  0.00  0.00    +0.000 A 
ATOM      9  N   UNL     1       1.948  12.300  19.049  0.00  0.00    +0.000 NA
ATOM     10  C   UNL     1       2.652  13.373  19.453  0.00  0.00    +0.000 A 
ATOM     11  C   UNL     1       2.342  14.097  20.575  0.00  0.00    +0.000 A 
ATOM     12 CL   UNL     1       3.343  15.385  21.093  0.00  0.00    +0.000 Cl
ATOM     13  C   UNL     1       1.209  13.675  21.242  0.00  0.00    +0.000 A 
ATOM     14  N   UNL     1       0.486  12.595  20.880  0.00  0.00    +0.000 NA
ATOM     15  H   UNL     1      -0.302  10.504  20.395  0.00  0.00    +0.000 HD
BRANCH  13  16
ATOM     16  O   UNL     1       0.816  14.364  22.373  0.00  0.00    +0.000 OA
ATOM     17  C   UNL     1      -0.563  14.185  22.687  0.00  0.00    +0.000 C 
ENDBRANCH  13  16
ENDBRANCH   6   7
BRANCH   3  18
ATOM     18  C   UNL     1       3.503   6.164  18.099  0.00  0.00    +0.000 C 
ATOM     19  O   UNL     1       4.710   6.386  18.027  0.00  0.00    +0.000 OA
ATOM     20  N   UNL     1       2.968   4.902  17.853  0.00  0.00    +0.000 N 
ATOM     21  C   UNL     1       1.556   4.485  17.726  0.00  0.00    +0.000 C 
ATOM     22  C   UNL     1       1.271   3.342  18.717  0.00  0.00    +0.000 C 
ATOM     23  O   UNL     1       2.159   2.235  18.485  0.00  0.00    +0.000 OA
ATOM     24  C   UNL     1       3.535   2.639  18.614  0.00  0.00    +0.000 C 
ATOM     25  C   UNL     1       3.875   3.775  17.641  0.00  0.00    +0.000 C 
ENDBRANCH   3  18
BRANCH   1  27
ATOM     26  C   UNL     1      -0.319   8.480  21.857  0.00  0.00    +0.000 C 
ATOM     27  O   UNL     1       1.072   8.575  21.541  0.00  0.00    +0.000 OA
ENDBRANCH   1  27
TORSDOF 4
ENDMDL
MODEL 3
REMARK VINA RESULT:      -7.1      3.022      8.233
REMARK  Name = 
REMARK  6 active torsions:
REMARK  status: ('A' for Active; 'I' for Inactive)
REMARK    1  A    between atoms: C_1  and  O_2
REMARK    2  A    between atoms: O_2  and  C_3
REMARK    3  A    between atoms: C_5  and  C_6
REMARK    4  A    between atoms: C_16  and  N_17
REMARK    5  A    between atoms: C_23  and  O_24
REMARK    6  A    between atoms: O_24  and  C_25
REMARK                            x       y       z     vdW  Elec       q    Type
REMARK                         _______ _______ _______ _____ _____    ______ ____
ROOT
ATOM      1  C   UNL     1       1.966   6.613  20.049  0.00  0.00    +0.000 A 
ATOM      2  C   UNL     1       1.398   7.689  20.762  0.00  0.00    +0.000 A 
ATOM      3  C   UNL     1       1.228   8.947  20.161  0.00  0.00    +0.000 A 
ATOM      4  C   UNL     1       1.689   9.143  18.868  0.00  0.00    +0.000 A 
ATOM      5  C   UNL     1       2.151   8.062  18.126  0.00  0.00    +0.000 A 
ATOM      6  C   UNL     1       2.324   6.794  18.699  0.00  0.00    +0.000 A 
ENDROOT
BRANCH   6   7
ATOM      7  N   UNL     1       2.763   5.722  17.892  0.00  0.00    +0.000 N 
ATOM      8  C   UNL     1       4.045   5.177  17.932  0.00  0.00    +0.000 A 
ATOM      9  N   UNL     1       4.689   5.066  19.108  0.00  0.00    +0.000 NA
ATOM     10  C   UNL     1       6.005   4.787  19.067  0.00  0.00    +0.000 A 
ATOM     11  C   UNL     1       6.695   4.581  17.901  0.00  0.00    +0.000 A 
ATOM     12 CL   UNL     1       8.389   4.338  17.915  0.00  0.00    +0.000 Cl
ATOM     13  C   UNL     1       5.924   4.627  16.756  0.00  0.00    +0.000 A 
ATOM     14  N   UNL     1       4.607   4.921  16.753  0.00  0.00    +0.000 NA
ATOM     15  H   UNL     1       2.541   5.887  16.915  0.00  0.00    +0.000 HD
BRANCH  13  16
ATOM     16  O   UNL     1       6.540   4.411  15.539  0.00  0.00    +0.000 OA
ATOM     17  C   UNL     1       5.620   4.328  14.453  0.00  0.00    +0.000 C 
ENDBRANCH  13  16
ENDBRANCH   6   7
BRANCH   3  18
ATOM     18  C   UNL     1       0.620  10.069  20.937  0.00  0.00    +0.000 C 
ATOM     19  O   UNL     1       1.114  10.317  22.035  0.00  0.00    +0.000 OA
ATOM     20  N   UNL     1      -0.443  10.806  20.422  0.00  0.00    +0.000 N 
ATOM     21  C   UNL     1      -1.268  10.559  19.220  0.00  0.00    +0.000 C 
ATOM     22  C   UNL     1      -1.237  11.805  18.317  0.00  0.00    +0.000 C 
ATOM     23  O   UNL     1      -1.701  12.963  19.031  0.00  0.00    +0.000 OA
ATOM     24  C   UNL     1      -0.895  13.208  20.200  0.00  0.00    +0.000 C 
ATOM     25  C   UNL     1      -0.897  11.996  21.140  0.00  0.00    +0.000 C 
ENDBRANCH   3  18
BRANCH   1  27
ATOM     26  C   UNL     1       1.040   4.471  20.495  0.00  0.00    +0.000 C 
ATOM     27  O   UNL     1       2.063   5.438  20.745  0.00  0.00    +0.000 OA
ENDBRANCH   1  27
TORSDOF 4
ENDMDL
MODEL 4
REMARK VINA RESULT:      -7.1      3.258      8.120
REMARK  Name = 
REMARK  6 active torsions:
REMARK  status: ('A' for Active; 'I' for Inactive)
REMARK    1  A    between atoms: C_1  and  O_2
REMARK    2  A    between atoms: O_2  and  C_3
REMARK    3  A    between atoms: C_5  and  C_6
REMARK    4  A    between atoms: C_16  and  N_17
REMARK    5  A    between atoms: C_23  and  O_24
REMARK    6  A    between atoms: O_24  and  C_25
REMARK                            x       y       z     vdW  Elec       q    Type
REMARK                         _______ _______ _______ _____ _____    ______ ____
ROOT
ATOM      1  C   UNL     1       1.470   8.452  20.499  0.00  0.00    +0.000 A 
ATOM      2  C   UNL     1       0.759   9.614  20.135  0.00  0.00    +0.000 A 
ATOM      3  C   UNL     1       0.710  10.045  18.800  0.00  0.00    +0.000 A 
ATOM      4  C   UNL     1       1.430   9.348  17.841  0.00  0.00    +0.000 A 
ATOM      5  C   UNL     1       2.043   8.146  18.173  0.00  0.00    +0.000 A 
ATOM      6  C   UNL     1       2.101   7.689  19.498  0.00  0.00    +0.000 A 
ENDROOT
BRANCH   6   7
ATOM      7  N   UNL     1       2.706   6.444  19.776  0.00  0.00    +0.000 N 
ATOM      8  C   UNL     1       3.588   5.786  18.921  0.00  0.00    +0.000 A 
ATOM      9  N   UNL     1       4.475   6.495  18.199  0.00  0.00    +0.000 NA
ATOM     10  C   UNL     1       5.115   5.853  17.205  0.00  0.00    +0.000 A 
ATOM     11  C   UNL     1       4.931   4.524  16.925  0.00  0.00    +0.000 A 
ATOM     12 CL   UNL     1       5.694   3.796  15.578  0.00  0.00    +0.000 Cl
ATOM     13  C   UNL     1       4.068   3.867  17.781  0.00  0.00    +0.000 A 
ATOM     14  N   UNL     1       3.394   4.477  18.778  0.00  0.00    +0.000 NA
ATOM     15  H   UNL     1       2.014   5.761  20.072  0.00  0.00    +0.000 HD
BRANCH  13  16
ATOM     16  O   UNL     1       3.842   2.519  17.579  0.00  0.00    +0.000 OA
ATOM     17  C   UNL     1       2.987   1.941  18.564  0.00  0.00    +0.000 C 
ENDBRANCH  13  16
ENDBRANCH   6   7
BRANCH   3  18
ATOM     18  C   UNL     1      -0.054  11.277  18.440  0.00  0.00    +0.000 C 
ATOM     19  O   UNL     1      -1.194  11.117  18.006  0.00  0.00    +0.000 OA
ATOM     20  N   UNL     1       0.500  12.542  18.612  0.00  0.00    +0.000 N 
ATOM     21  C   UNL     1       1.886  12.926  18.954  0.00  0.00    +0.000 C 
ATOM     22  C   UNL     1       1.871  13.831  20.199  0.00  0.00    +0.000 C 
ATOM     23  O   UNL     1       1.055  14.993  19.974  0.00  0.00    +0.000 OA
ATOM     24  C   UNL     1      -0.297  14.620  19.646  0.00  0.00    +0.000 C 
ATOM     25  C   UNL     1      -0.340  13.721  18.404  0.00  0.00    +0.000 C 
ENDBRANCH   3  18
BRANCH   1  27
ATOM     26  C   UNL     1       0.958   9.161  22.708  0.00  0.00    +0.000 C 
ATOM     27  O   UNL     1       1.428   8.134  21.831  0.00  0.00    +0.000 OA
ENDBRANCH   1  27
TORSDOF 4
ENDMDL
MODEL 5
REMARK VINA RESULT:      -7.0      2.875      4.230
REMARK  Name = 
REMARK  6 active torsions:
REMARK  status: ('A' for Active; 'I' for Inactive)
REMARK    1  A    between atoms: C_1  and  O_2
REMARK    2  A    between atoms: O_2  and  C_3
REMARK    3  A    between atoms: C_5  and  C_6
REMARK    4  A    between atoms: C_16  and  N_17
REMARK    5  A    between atoms: C_23  and  O_24
REMARK    6  A    between atoms: O_24  and  C_25
REMARK                            x       y       z     vdW  Elec       q    Type
REMARK                         _______ _______ _______ _____ _____    ______ ____
ROOT
ATOM      1  C   UNL     1       1.312   8.749  20.227  0.00  0.00    +0.000 A 
ATOM      2  C   UNL     1       2.085   7.570  20.191  0.00  0.00    +0.000 A 
ATOM      3  C   UNL     1       2.605   7.081  18.981  0.00  0.00    +0.000 A 
ATOM      4  C   UNL     1       2.292   7.737  17.800  0.00  0.00    +0.000 A 
ATOM      5  C   UNL     1       1.622   8.954  17.841  0.00  0.00    +0.000 A 
ATOM      6  C   UNL     1       1.099   9.469  19.035  0.00  0.00    +0.000 A 
ENDROOT
BRANCH   6   7
ATOM      7  N   UNL     1       0.457  10.727  19.027  0.00  0.00    +0.000 N 
ATOM      8  C   UNL     1       1.122  11.951  18.989  0.00  0.00    +0.000 A 
ATOM      9  N   UNL     1       2.243  12.082  18.256  0.00  0.00    +0.000 NA
ATOM     10  C   UNL     1       2.986  13.186  18.458  0.00  0.00    +0.000 A 
ATOM     11  C   UNL     1       2.638  14.178  19.336  0.00  0.00    +0.000 A 
ATOM     12 CL   UNL     1       3.684  15.502  19.624  0.00  0.00    +0.000 Cl
ATOM     13  C   UNL     1       1.426  13.990  19.971  0.00  0.00    +0.000 A 
ATOM     14  N   UNL     1       0.660  12.892  19.810  0.00  0.00    +0.000 NA
ATOM     15  H   UNL     1      -0.235  10.788  19.768  0.00  0.00    +0.000 HD
BRANCH  13  16
ATOM     16  O   UNL     1       0.992  14.955  20.859  0.00  0.00    +0.000 OA
ATOM     17  C   UNL     1       0.271  14.415  21.965  0.00  0.00    +0.000 C 
ENDBRANCH  13  16
ENDBRANCH   6   7
BRANCH   3  18
ATOM     18  C   UNL     1       3.424   5.832  18.971  0.00  0.00    +0.000 C 
ATOM     19  O   UNL     1       4.643   5.968  18.879  0.00  0.00    +0.000 OA
ATOM     20  N   UNL     1       2.826   4.580  19.081  0.00  0.00    +0.000 N 
ATOM     21  C   UNL     1       1.396   4.209  19.032  0.00  0.00    +0.000 C 
ATOM     22  C   UNL     1       1.032   3.416  20.300  0.00  0.00    +0.000 C 
ATOM     23  O   UNL     1       1.863   2.249  20.427  0.00  0.00    +0.000 OA
ATOM     24  C   UNL     1       3.256   2.610  20.480  0.00  0.00    +0.000 C 
ATOM     25  C   UNL     1       3.675   3.398  19.233  0.00  0.00    +0.000 C 
ENDBRANCH   3  18
BRANCH   1  27
ATOM     26  C   UNL     1      -0.419   8.658  21.851  0.00  0.00    +0.000 C 
ATOM     27  O   UNL     1       0.878   9.124  21.470  0.00  0.00    +0.000 OA
ENDBRANCH   1  27
TORSDOF 4
ENDMDL
MODEL 6
REMARK VINA RESULT:      -7.0      3.597      8.232
REMARK  Name = 
REMARK  6 active torsions:
REMARK  status: ('A' for Active; 'I' for Inactive)
REMARK    1  A    between atoms: C_1  and  O_2
REMARK    2  A    between atoms: O_2  and  C_3
REMARK    3  A    between atoms: C_5  and  C_6
REMARK    4  A    between atoms: C_16  and  N_17
REMARK    5  A    between atoms: C_23  and  O_24
REMARK    6  A    between atoms: O_24  and  C_25
REMARK                            x       y       z     vdW  Elec       q    Type
REMARK                         _______ _______ _______ _____ _____    ______ ____
ROOT
ATOM      1  C   UNL     1       0.892   9.735  21.361  0.00  0.00    +0.000 A 
ATOM      2  C   UNL     1       0.358  10.922  20.817  0.00  0.00    +0.000 A 
ATOM      3  C   UNL     1       0.372  11.155  19.432  0.00  0.00    +0.000 A 
ATOM      4  C   UNL     1       0.984  10.229  18.600  0.00  0.00    +0.000 A 
ATOM      5  C   UNL     1       1.415   9.013  19.117  0.00  0.00    +0.000 A 
ATOM      6  C   UNL     1       1.406   8.751  20.494  0.00  0.00    +0.000 A 
ENDROOT
BRANCH   6   7
ATOM      7  N   UNL     1       1.822   7.487  20.964  0.00  0.00    +0.000 N 
ATOM      8  C   UNL     1       2.181   6.419  20.143  0.00  0.00    +0.000 A 
ATOM      9  N   UNL     1       2.852   6.649  19.000  0.00  0.00    +0.000 NA
ATOM     10  C   UNL     1       2.942   5.633  18.121  0.00  0.00    +0.000 A 
ATOM     11  C   UNL     1       2.418   4.389  18.354  0.00  0.00    +0.000 A 
ATOM     12 CL   UNL     1       2.472   3.175  17.148  0.00  0.00    +0.000 Cl
ATOM     13  C   UNL     1       1.829   4.231  19.592  0.00  0.00    +0.000 A 
ATOM     14  N   UNL     1       1.703   5.227  20.494  0.00  0.00    +0.000 NA
ATOM     15  H   UNL     1       1.174   7.123  21.656  0.00  0.00    +0.000 HD
BRANCH  13  16
ATOM     16  O   UNL     1       1.292   2.999  19.913  0.00  0.00    +0.000 OA
ATOM     17  C   UNL     1       1.345   2.711  21.309  0.00  0.00    +0.000 C 
ENDBRANCH  13  16
ENDBRANCH   6   7
BRANCH   3  18
ATOM     18  C   UNL     1      -0.204  12.417  18.881  0.00  0.00    +0.000 C 
ATOM     19  O   UNL     1      -1.326  12.346  18.384  0.00  0.00    +0.000 OA
ATOM     20  N   UNL     1       0.498  13.618  18.951  0.00  0.00    +0.000 N 
ATOM     21  C   UNL     1       1.899  13.870  19.349  0.00  0.00    +0.000 C 
ATOM     22  C   UNL     1       1.926  14.914  20.481  0.00  0.00    +0.000 C 
ATOM     23  O   UNL     1       1.281  16.130  20.067  0.00  0.00    +0.000 OA
ATOM     24  C   UNL     1      -0.086  15.887  19.683  0.00  0.00    +0.000 C 
ATOM     25  C   UNL     1      -0.170  14.856  18.551  0.00  0.00    +0.000 C 
ENDBRANCH   3  18
BRANCH   1  27
ATOM     26  C   UNL     1      -0.482   9.885  23.293  0.00  0.00    +0.000 C 
ATOM     27  O   UNL     1       0.803   9.626  22.723  0.00  0.00    +0.000 OA
ENDBRANCH   1  27
TORSDOF 4
ENDMDL
MODEL 7
REMARK VINA RESULT:      -6.9      2.975      4.333
REMARK  Name = 
REMARK  6 active torsions:
REMARK  status: ('A' for Active; 'I' for Inactive)
REMARK    1  A    between atoms: C_1  and  O_2
REMARK    2  A    between atoms: O_2  and  C_3
REMARK    3  A    between atoms: C_5  and  C_6
REMARK    4  A    between atoms: C_16  and  N_17
REMARK    5  A    between atoms: C_23  and  O_24
REMARK    6  A    between atoms: O_24  and  C_25
REMARK                            x       y       z     vdW  Elec       q    Type
REMARK                         _______ _______ _______ _____ _____    ______ ____
ROOT
ATOM      1  C   UNL     1       1.129   8.762  19.786  0.00  0.00    +0.000 A 
ATOM      2  C   UNL     1       1.879   7.598  20.049  0.00  0.00    +0.000 A 
ATOM      3  C   UNL     1       2.693   7.022  19.060  0.00  0.00    +0.000 A 
ATOM      4  C   UNL     1       2.701   7.575  17.789  0.00  0.00    +0.000 A 
ATOM      5  C   UNL     1       2.050   8.780  17.554  0.00  0.00    +0.000 A 
ATOM      6  C   UNL     1       1.236   9.380  18.525  0.00  0.00    +0.000 A 
ENDROOT
BRANCH   6   7
ATOM      7  N   UNL     1       0.624  10.622  18.248  0.00  0.00    +0.000 N 
ATOM      8  C   UNL     1       0.803  11.777  19.007  0.00  0.00    +0.000 A 
ATOM      9  N   UNL     1       2.009  12.049  19.539  0.00  0.00    +0.000 NA
ATOM     10  C   UNL     1       2.068  13.019  20.470  0.00  0.00    +0.000 A 
ATOM     11  C   UNL     1       0.979  13.750  20.866  0.00  0.00    +0.000 A 
ATOM     12 CL   UNL     1       1.103  14.894  22.133  0.00  0.00    +0.000 Cl
ATOM     13  C   UNL     1      -0.191  13.455  20.194  0.00  0.00    +0.000 A 
ATOM     14  N   UNL     1      -0.297  12.480  19.268  0.00  0.00    +0.000 NA
ATOM     15  H   UNL     1      -0.376  10.512  18.106  0.00  0.00    +0.000 HD
BRANCH  13  16
ATOM     16  O   UNL     1      -1.332  14.162  20.521  0.00  0.00    +0.000 OA
ATOM     17  C   UNL     1      -2.471  13.326  20.719  0.00  0.00    +0.000 C 
ENDBRANCH  13  16
ENDBRANCH   6   7
BRANCH   3  18
ATOM     18  C   UNL     1       3.481   5.791  19.366  0.00  0.00    +0.000 C 
ATOM     19  O   UNL     1       4.686   5.938  19.569  0.00  0.00    +0.000 OA
ATOM     20  N   UNL     1       2.868   4.543  19.435  0.00  0.00    +0.000 N 
ATOM     21  C   UNL     1       1.493   4.146  19.064  0.00  0.00    +0.000 C 
ATOM     22  C   UNL     1       0.819   3.462  20.267  0.00  0.00    +0.000 C 
ATOM     23  O   UNL     1       1.584   2.325  20.700  0.00  0.00    +0.000 OA
ATOM     24  C   UNL     1       2.923   2.711  21.067  0.00  0.00    +0.000 C 
ATOM     25  C   UNL     1       3.644   3.393  19.898  0.00  0.00    +0.000 C 
ENDBRANCH   3  18
BRANCH   1  27
ATOM     26  C   UNL     1       1.083   9.386  22.078  0.00  0.00    +0.000 C 
ATOM     27  O   UNL     1       0.388   9.229  20.839  0.00  0.00    +0.000 OA
ENDBRANCH   1  27
TORSDOF 4
ENDMDL
MODEL 8
REMARK VINA RESULT:      -6.9      3.848      8.073
REMARK  Name = 
REMARK  6 active torsions:
REMARK  status: ('A' for Active; 'I' for Inactive)
REMARK    1  A    between atoms: C_1  and  O_2
REMARK    2  A    between atoms: O_2  and  C_3
REMARK    3  A    between atoms: C_5  and  C_6
REMARK    4  A    between atoms: C_16  and  N_17
REMARK    5  A    between atoms: C_23  and  O_24
REMARK    6  A    between atoms: O_24  and  C_25
REMARK                            x       y       z     vdW  Elec       q    Type
REMARK                         _______ _______ _______ _____ _____    ______ ____
ROOT
ATOM      1  C   UNL     1       0.719   8.982  20.926  0.00  0.00    +0.000 A 
ATOM      2  C   UNL     1      -0.304   9.862  20.518  0.00  0.00    +0.000 A 
ATOM      3  C   UNL     1      -0.430  10.254  19.176  0.00  0.00    +0.000 A 
ATOM      4  C   UNL     1       0.509   9.815  18.255  0.00  0.00    +0.000 A 
ATOM      5  C   UNL     1       1.453   8.866  18.628  0.00  0.00    +0.000 A 
ATOM      6  C   UNL     1       1.597   8.453  19.960  0.00  0.00    +0.000 A 
ENDROOT
BRANCH   6   7
ATOM      7  N   UNL     1       2.548   7.459  20.280  0.00  0.00    +0.000 N 
ATOM      8  C   UNL     1       2.647   6.226  19.639  0.00  0.00    +0.000 A 
ATOM      9  N   UNL     1       2.428   6.140  18.314  0.00  0.00    +0.000 NA
ATOM     10  C   UNL     1       2.274   4.909  17.792  0.00  0.00    +0.000 A 
ATOM     11  C   UNL     1       2.365   3.760  18.534  0.00  0.00    +0.000 A 
ATOM     12 CL   UNL     1       2.050   2.233  17.828  0.00  0.00    +0.000 Cl
ATOM     13  C   UNL     1       2.683   3.954  19.864  0.00  0.00    +0.000 A 
ATOM     14  N   UNL     1       2.828   5.170  20.430  0.00  0.00    +0.000 NA
ATOM     15  H   UNL     1       2.562   7.276  21.279  0.00  0.00    +0.000 HD
BRANCH  13  16
ATOM     16  O   UNL     1       2.812   2.844  20.677  0.00  0.00    +0.000 OA
ATOM     17  C   UNL     1       1.753   2.718  21.624  0.00  0.00    +0.000 C 
ENDBRANCH  13  16
ENDBRANCH   6   7
BRANCH   3  18
ATOM     18  C   UNL     1      -1.525  11.184  18.769  0.00  0.00    +0.000 C 
ATOM     19  O   UNL     1      -1.445  12.345  19.169  0.00  0.00    +0.000 OA
ATOM     20  N   UNL     1      -2.572  10.753  17.959  0.00  0.00    +0.000 N 
ATOM     21  C   UNL     1      -2.927   9.385  17.525  0.00  0.00    +0.000 C 
ATOM     22  C   UNL     1      -3.011   9.344  15.989  0.00  0.00    +0.000 C 
ATOM     23  O   UNL     1      -3.968  10.303  15.506  0.00  0.00    +0.000 OA
ATOM     24  C   UNL     1      -3.620  11.637  15.924  0.00  0.00    +0.000 C 
ATOM     25  C   UNL     1      -3.530  11.735  17.451  0.00  0.00    +0.000 C 
ENDBRANCH   3  18
BRANCH   1  27
ATOM     26  C   UNL     1      -0.187   9.404  23.081  0.00  0.00    +0.000 C 
ATOM     27  O   UNL     1       0.724   8.669  22.259  0.00  0.00    +0.000 OA
ENDBRANCH   1  27
TORSDOF 4
ENDMDL
MODEL 9
REMARK VINA RESULT:      -6.8      3.139      8.046
REMARK  Name = 
REMARK  6 active torsions:
REMARK  status: ('A' for Active; 'I' for Inactive)
REMARK    1  A    between atoms: C_1  and  O_2
REMARK    2  A    between atoms: O_2  and  C_3
REMARK    3  A    between atoms: C_5  and  C_6
REMARK    4  A    between atoms: C_16  and  N_17
REMARK    5  A    between atoms: C_23  and  O_24
REMARK    6  A    between atoms: O_24  and  C_25
REMARK                            x       y       z     vdW  Elec       q    Type
REMARK                         _______ _______ _______ _____ _____    ______ ____
ROOT
ATOM      1  C   UNL     1       3.166   4.676  19.330  0.00  0.00    +0.000 A 
ATOM      2  C   UNL     1       2.422   5.693  19.964  0.00  0.00    +0.000 A 
ATOM      3  C   UNL     1       2.358   6.988  19.424  0.00  0.00    +0.000 A 
ATOM      4  C   UNL     1       3.095   7.280  18.286  0.00  0.00    +0.000 A 
ATOM      5  C   UNL     1       3.741   6.258  17.600  0.00  0.00    +0.000 A 
ATOM      6  C   UNL     1       3.815   4.956  18.113  0.00  0.00    +0.000 A 
ENDROOT
BRANCH   6   7
ATOM      7  N   UNL     1       4.454   3.947  17.358  0.00  0.00    +0.000 N 
ATOM      8  C   UNL     1       5.476   4.178  16.440  0.00  0.00    +0.000 A 
ATOM      9  N   UNL     1       6.403   5.120  16.691  0.00  0.00    +0.000 NA
ATOM     10  C   UNL     1       7.203   5.487  15.672  0.00  0.00    +0.000 A 
ATOM     11  C   UNL     1       7.137   4.926  14.424  0.00  0.00    +0.000 A 
ATOM     12 CL   UNL     1       8.109   5.515  13.144  0.00  0.00    +0.000 Cl
ATOM     13  C   UNL     1       6.214   3.906  14.296  0.00  0.00    +0.000 A 
ATOM     14  N   UNL     1       5.383   3.520  15.285  0.00  0.00    +0.000 NA
ATOM     15  H   UNL     1       3.774   3.348  16.901  0.00  0.00    +0.000 HD
BRANCH  13  16
ATOM     16  O   UNL     1       6.098   3.274  13.072  0.00  0.00    +0.000 OA
ATOM     17  C   UNL     1       4.928   3.658  12.353  0.00  0.00    +0.000 C 
ENDBRANCH  13  16
ENDBRANCH   6   7
BRANCH   3  18
ATOM     18  C   UNL     1       1.560   8.045  20.113  0.00  0.00    +0.000 C 
ATOM     19  O   UNL     1       1.258   7.838  21.287  0.00  0.00    +0.000 OA
ATOM     20  N   UNL     1       1.199   9.217  19.453  0.00  0.00    +0.000 N 
ATOM     21  C   UNL     1       1.320   9.570  18.023  0.00  0.00    +0.000 C 
ATOM     22  C   UNL     1       2.102  10.889  17.889  0.00  0.00    +0.000 C 
ATOM     23  O   UNL     1       1.457  11.941  18.627  0.00  0.00    +0.000 OA
ATOM     24  C   UNL     1       1.343  11.600  20.021  0.00  0.00    +0.000 C 
ATOM     25  C   UNL     1       0.563  10.293  20.213  0.00  0.00    +0.000 C 
ENDBRANCH   3  18
BRANCH   1  27
ATOM     26  C   UNL     1       1.838   2.929  20.239  0.00  0.00    +0.000 C 
ATOM     27  O   UNL     1       3.135   3.456  19.952  0.00  0.00    +0.000 OA
ENDBRANCH   1  27
TORSDOF 4
ENDMDL
