MODEL 1
REMARK VINA RESULT:      -6.2      0.000      0.000
REMARK  Name = 
REMARK  7 active torsions:
REMARK  status: ('A' for Active; 'I' for Inactive)
REMARK    1  A    between atoms: C_1  and  C_2
REMARK    2  A    between atoms: C_2  and  O_3
REMARK    3  A    between atoms: O_3  and  C_4
REMARK    4  A    between atoms: C_7  and  N_8
REMARK    5  A    between atoms: C_9  and  C_11
REMARK    6  A    between atoms: C_16  and  S_17
REMARK    7  A    between atoms: S_17  and  C_18
REMARK                            x       y       z     vdW  Elec       q    Type
REMARK                         _______ _______ _______ _____ _____    ______ ____
ROOT
ATOM      1  N   UNL     1       3.143   7.502  18.070  0.00  0.00    +0.000 N 
ATOM      2  C   UNL     1       3.072   6.142  17.830  0.00  0.00    +0.000 C 
ATOM      3  O   UNL     1       2.099   5.443  18.125  0.00  0.00    +0.000 OA
ATOM      4  H   UNL     1       3.972   7.989  17.743  0.00  0.00    +0.000 HD
ENDROOT
BRANCH   1   8
ATOM      5  C   UNL     1       0.204   9.842  20.039  0.00  0.00    +0.000 A 
ATOM      6  C   UNL     1       0.448  10.029  18.684  0.00  0.00    +0.000 A 
ATOM      7  C   UNL     1       1.397   9.253  18.020  0.00  0.00    +0.000 A 
ATOM      8  C   UNL     1       2.145   8.288  18.700  0.00  0.00    +0.000 A 
ATOM      9  C   UNL     1       1.898   8.100  20.067  0.00  0.00    +0.000 A 
ATOM     10  C   UNL     1       0.936   8.881  20.737  0.00  0.00    +0.000 A 
BRANCH   5  11
ATOM     11  O   UNL     1      -0.737  10.679  20.556  0.00  0.00    +0.000 OA
BRANCH  11  13
ATOM     12  C   UNL     1      -1.141  11.109  22.846  0.00  0.00    +0.000 C 
ATOM     13  C   UNL     1      -0.334  11.523  21.627  0.00  0.00    +0.000 C 
ENDBRANCH  11  13
ENDBRANCH   5  11
ENDBRANCH   1   8
BRANCH   2  14
ATOM     14  C   UNL     1       4.218   5.434  17.161  0.00  0.00    +0.000 A 
ATOM     15  C   UNL     1       4.787   6.168  16.089  0.00  0.00    +0.000 A 
ATOM     16  C   UNL     1       5.840   5.677  15.324  0.00  0.00    +0.000 A 
ATOM     17  C   UNL     1       6.354   4.425  15.610  0.00  0.00    +0.000 A 
ATOM     18  C   UNL     1       5.818   3.680  16.666  0.00  0.00    +0.000 A 
ATOM     19  C   UNL     1       4.762   4.168  17.468  0.00  0.00    +0.000 A 
BRANCH  19  20
ATOM     20  S   UNL     1       4.145   3.084  18.765  0.00  0.00    +0.000 S 
ATOM     21  C   UNL     1       2.971   2.041  17.846  0.00  0.00    +0.000 C 
ENDBRANCH  19  20
ENDBRANCH   2  14
TORSDOF 5
ENDMDL
MODEL 2
REMARK VINA RESULT:      -6.1      1.790      2.421
REMARK  Name = 
REMARK  7 active torsions:
REMARK  status: ('A' for Active; 'I' for Inactive)
REMARK    1  A    between atoms: C_1  and  C_2
REMARK    2  A    between atoms: C_2  and  O_3
REMARK    3  A    between atoms: O_3  and  C_4
REMARK    4  A    between atoms: C_7  and  N_8
REMARK    5  A    between atoms: C_9  and  C_11
REMARK    6  A    between atoms: C_16  and  S_17
REMARK    7  A    between atoms: S_17  and  C_18
REMARK                            x       y       z     vdW  Elec       q    Type
REMARK                         _______ _______ _______ _____ _____    ______ ____
ROOT
ATOM      1  N   UNL     1       3.480   7.213  17.734  0.00  0.00    +0.000 N 
ATOM      2  C   UNL     1       4.280   6.144  18.096  0.00  0.00    +0.000 C 
ATOM      3  O   UNL     1       4.252   5.613  19.210  0.00  0.00    +0.000 OA
ATOM      4  H   UNL     1       3.550   7.542  16.775  0.00  0.00    +0.000 HD
ENDROOT
BRANCH   1   8
ATOM      5  C   UNL     1       0.717   9.140  20.311  0.00  0.00    +0.000 A 
ATOM      6  C   UNL     1       0.997   9.682  19.063  0.00  0.00    +0.000 A 
ATOM      7  C   UNL     1       1.889   9.048  18.198  0.00  0.00    +0.000 A 
ATOM      8  C   UNL     1       2.542   7.871  18.570  0.00  0.00    +0.000 A 
ATOM      9  C   UNL     1       2.258   7.324  19.829  0.00  0.00    +0.000 A 
ATOM     10  C   UNL     1       1.355   7.962  20.701  0.00  0.00    +0.000 A 
BRANCH   5  11
ATOM     11  O   UNL     1      -0.159   9.873  21.052  0.00  0.00    +0.000 OA
BRANCH  11  13
ATOM     12  C   UNL     1      -0.994  10.791  23.065  0.00  0.00    +0.000 C 
ATOM     13  C   UNL     1      -0.090   9.727  22.465  0.00  0.00    +0.000 C 
ENDBRANCH  11  13
ENDBRANCH   5  11
ENDBRANCH   1   8
BRANCH   2  14
ATOM     14  C   UNL     1       5.243   5.552  17.104  0.00  0.00    +0.000 A 
ATOM     15  C   UNL     1       4.607   4.834  16.060  0.00  0.00    +0.000 A 
ATOM     16  C   UNL     1       5.322   4.189  15.055  0.00  0.00    +0.000 A 
ATOM     17  C   UNL     1       6.704   4.242  15.072  0.00  0.00    +0.000 A 
ATOM     18  C   UNL     1       7.359   4.950  16.085  0.00  0.00    +0.000 A 
ATOM     19  C   UNL     1       6.652   5.629  17.103  0.00  0.00    +0.000 A 
BRANCH  19  20
ATOM     20  S   UNL     1       7.626   6.462  18.366  0.00  0.00    +0.000 S 
ATOM     21  C   UNL     1       7.819   8.122  17.646  0.00  0.00    +0.000 C 
ENDBRANCH  19  20
ENDBRANCH   2  14
TORSDOF 5
ENDMDL
MODEL 3
REMARK VINA RESULT:      -6.1      2.673      8.057
REMARK  Name = 
REMARK  7 active torsions:
REMARK  status: ('A' for Active; 'I' for Inactive)
REMARK    1  A    between atoms: C_1  and  C_2
REMARK    2  A    between atoms: C_2  and  O_3
REMARK    3  A    between atoms: O_3  and  C_4
REMARK    4  A    between atoms: C_7  and  N_8
REMARK    5  A    between atoms: C_9  and  C_11
REMARK    6  A    between atoms: C_16  and  S_17
REMARK    7  A    between atoms: S_17  and  C_18
REMARK                            x       y       z     vdW  Elec       q    Type
REMARK                         _______ _______ _______ _____ _____    ______ ____
ROOT
ATOM      1  N   UNL     1       2.136   7.556  19.727  0.00  0.00    +0.000 N 
ATOM      2  C   UNL     1       1.390   8.672  19.397  0.00  0.00    +0.000 C 
ATOM      3  O   UNL     1       1.196   9.049  18.238  0.00  0.00    +0.000 OA
ATOM      4  H   UNL     1       2.191   7.308  20.711  0.00  0.00    +0.000 HD
ENDROOT
BRANCH   1   8
ATOM      5  C   UNL     1       4.051   4.940  16.992  0.00  0.00    +0.000 A 
ATOM      6  C   UNL     1       4.437   6.272  17.066  0.00  0.00    +0.000 A 
ATOM      7  C   UNL     1       3.830   7.138  17.974  0.00  0.00    +0.000 A 
ATOM      8  C   UNL     1       2.803   6.700  18.814  0.00  0.00    +0.000 A 
ATOM      9  C   UNL     1       2.413   5.356  18.739  0.00  0.00    +0.000 A 
ATOM     10  C   UNL     1       3.030   4.480  17.824  0.00  0.00    +0.000 A 
BRANCH   5  11
ATOM     11  O   UNL     1       4.720   4.218  16.052  0.00  0.00    +0.000 OA
BRANCH  11  13
ATOM     12  C   UNL     1       6.641   4.371  14.681  0.00  0.00    +0.000 C 
ATOM     13  C   UNL     1       6.140   4.238  16.110  0.00  0.00    +0.000 C 
ENDBRANCH  11  13
ENDBRANCH   5  11
ENDBRANCH   1   8
BRANCH   2  14
ATOM     14  C   UNL     1       0.746   9.497  20.478  0.00  0.00    +0.000 A 
ATOM     15  C   UNL     1       0.183   8.718  21.521  0.00  0.00    +0.000 A 
ATOM     16  C   UNL     1      -0.480   9.289  22.602  0.00  0.00    +0.000 A 
ATOM     17  C   UNL     1      -0.604  10.665  22.667  0.00  0.00    +0.000 A 
ATOM     18  C   UNL     1      -0.053  11.459  21.656  0.00  0.00    +0.000 A 
ATOM     19  C   UNL     1       0.643  10.902  20.560  0.00  0.00    +0.000 A 
BRANCH  19  20
ATOM     20  S   UNL     1       1.263  12.041  19.312  0.00  0.00    +0.000 S 
ATOM     21  C   UNL     1      -0.280  12.615  18.537  0.00  0.00    +0.000 C 
ENDBRANCH  19  20
ENDBRANCH   2  14
TORSDOF 5
ENDMDL
MODEL 4
REMARK VINA RESULT:      -6.1      2.528      7.919
REMARK  Name = 
REMARK  7 active torsions:
REMARK  status: ('A' for Active; 'I' for Inactive)
REMARK    1  A    between atoms: C_1  and  C_2
REMARK    2  A    between atoms: C_2  and  O_3
REMARK    3  A    between atoms: O_3  and  C_4
REMARK    4  A    between atoms: C_7  and  N_8
REMARK    5  A    between atoms: C_9  and  C_11
REMARK    6  A    between atoms: C_16  and  S_17
REMARK    7  A    between atoms: S_17  and  C_18
REMARK                            x       y       z     vdW  Elec       q    Type
REMARK                         _______ _______ _______ _____ _____    ______ ____
ROOT
ATOM      1  N   UNL     1       2.073   7.881  18.969  0.00  0.00    +0.000 N 
ATOM      2  C   UNL     1       1.589   7.787  20.262  0.00  0.00    +0.000 C 
ATOM      3  O   UNL     1       1.753   6.800  20.984  0.00  0.00    +0.000 OA
ATOM      4  H   UNL     1       1.922   8.759  18.480  0.00  0.00    +0.000 HD
ENDROOT
BRANCH   1   8
ATOM      5  C   UNL     1       4.310   4.929  16.905  0.00  0.00    +0.000 A 
ATOM      6  C   UNL     1       3.129   4.582  17.547  0.00  0.00    +0.000 A 
ATOM      7  C   UNL     1       2.373   5.546  18.213  0.00  0.00    +0.000 A 
ATOM      8  C   UNL     1       2.793   6.877  18.275  0.00  0.00    +0.000 A 
ATOM      9  C   UNL     1       3.986   7.227  17.627  0.00  0.00    +0.000 A 
ATOM     10  C   UNL     1       4.748   6.253  16.951  0.00  0.00    +0.000 A 
BRANCH   5  11
ATOM     11  O   UNL     1       4.949   3.884  16.310  0.00  0.00    +0.000 OA
BRANCH  11  13
ATOM     12  C   UNL     1       6.117   3.984  14.257  0.00  0.00    +0.000 C 
ATOM     13  C   UNL     1       6.236   4.139  15.763  0.00  0.00    +0.000 C 
ENDBRANCH  11  13
ENDBRANCH   5  11
ENDBRANCH   1   8
BRANCH   2  14
ATOM     14  C   UNL     1       0.828   8.933  20.868  0.00  0.00    +0.000 A 
ATOM     15  C   UNL     1       0.632   8.804  22.267  0.00  0.00    +0.000 A 
ATOM     16  C   UNL     1      -0.071   9.746  23.011  0.00  0.00    +0.000 A 
ATOM     17  C   UNL     1      -0.606  10.849  22.371  0.00  0.00    +0.000 A 
ATOM     18  C   UNL     1      -0.422  11.007  20.993  0.00  0.00    +0.000 A 
ATOM     19  C   UNL     1       0.305  10.074  20.221  0.00  0.00    +0.000 A 
BRANCH  19  20
ATOM     20  S   UNL     1       0.425  10.384  18.453  0.00  0.00    +0.000 S 
ATOM     21  C   UNL     1      -1.311  10.227  17.932  0.00  0.00    +0.000 C 
ENDBRANCH  19  20
ENDBRANCH   2  14
TORSDOF 5
ENDMDL
MODEL 5
REMARK VINA RESULT:      -6.1      1.909      2.618
REMARK  Name = 
REMARK  7 active torsions:
REMARK  status: ('A' for Active; 'I' for Inactive)
REMARK    1  A    between atoms: C_1  and  C_2
REMARK    2  A    between atoms: C_2  and  O_3
REMARK    3  A    between atoms: O_3  and  C_4
REMARK    4  A    between atoms: C_7  and  N_8
REMARK    5  A    between atoms: C_9  and  C_11
REMARK    6  A    between atoms: C_16  and  S_17
REMARK    7  A    between atoms: S_17  and  C_18
REMARK                            x       y       z     vdW  Elec       q    Type
REMARK                         _______ _______ _______ _____ _____    ______ ____
ROOT
ATOM      1  N   UNL     1       3.272   6.914  17.958  0.00  0.00    +0.000 N 
ATOM      2  C   UNL     1       4.298   6.028  18.229  0.00  0.00    +0.000 C 
ATOM      3  O   UNL     1       4.591   5.645  19.365  0.00  0.00    +0.000 OA
ATOM      4  H   UNL     1       3.085   7.125  16.981  0.00  0.00    +0.000 HD
ENDROOT
BRANCH   1   8
ATOM      5  C   UNL     1       0.707   8.807  20.755  0.00  0.00    +0.000 A 
ATOM      6  C   UNL     1       1.246   7.559  21.041  0.00  0.00    +0.000 A 
ATOM      7  C   UNL     1       2.106   6.934  20.139  0.00  0.00    +0.000 A 
ATOM      8  C   UNL     1       2.428   7.530  18.917  0.00  0.00    +0.000 A 
ATOM      9  C   UNL     1       1.884   8.789  18.630  0.00  0.00    +0.000 A 
ATOM     10  C   UNL     1       1.018   9.423  19.543  0.00  0.00    +0.000 A 
BRANCH   5  11
ATOM     11  O   UNL     1      -0.126   9.287  21.720  0.00  0.00    +0.000 OA
BRANCH  11  13
ATOM     12  C   UNL     1      -1.083  11.023  23.010  0.00  0.00    +0.000 C 
ATOM     13  C   UNL     1      -0.415  10.680  21.690  0.00  0.00    +0.000 C 
ENDBRANCH  11  13
ENDBRANCH   5  11
ENDBRANCH   1   8
BRANCH   2  14
ATOM     14  C   UNL     1       5.121   5.460  17.106  0.00  0.00    +0.000 A 
ATOM     15  C   UNL     1       4.482   4.396  16.419  0.00  0.00    +0.000 A 
ATOM     16  C   UNL     1       5.088   3.720  15.365  0.00  0.00    +0.000 A 
ATOM     17  C   UNL     1       6.361   4.089  14.970  0.00  0.00    +0.000 A 
ATOM     18  C   UNL     1       7.013   5.139  15.623  0.00  0.00    +0.000 A 
ATOM     19  C   UNL     1       6.409   5.853  16.683  0.00  0.00    +0.000 A 
BRANCH  19  20
ATOM     20  S   UNL     1       7.382   7.153  17.458  0.00  0.00    +0.000 S 
ATOM     21  C   UNL     1       7.993   6.315  18.953  0.00  0.00    +0.000 C 
ENDBRANCH  19  20
ENDBRANCH   2  14
TORSDOF 5
ENDMDL
MODEL 6
REMARK VINA RESULT:      -6.1      1.682      2.442
REMARK  Name = 
REMARK  7 active torsions:
REMARK  status: ('A' for Active; 'I' for Inactive)
REMARK    1  A    between atoms: C_1  and  C_2
REMARK    2  A    between atoms: C_2  and  O_3
REMARK    3  A    between atoms: O_3  and  C_4
REMARK    4  A    between atoms: C_7  and  N_8
REMARK    5  A    between atoms: C_9  and  C_11
REMARK    6  A    between atoms: C_16  and  S_17
REMARK    7  A    between atoms: S_17  and  C_18
REMARK                            x       y       z     vdW  Elec       q    Type
REMARK                         _______ _______ _______ _____ _____    ______ ____
ROOT
ATOM      1  N   UNL     1       2.000   7.953  19.684  0.00  0.00    +0.000 N 
ATOM      2  C   UNL     1       2.230   6.593  19.782  0.00  0.00    +0.000 C 
ATOM      3  O   UNL     1       1.774   5.883  20.682  0.00  0.00    +0.000 OA
ATOM      4  H   UNL     1       2.384   8.433  18.875  0.00  0.00    +0.000 HD
ENDROOT
BRANCH   1   8
ATOM      5  C   UNL     1      -0.335  10.302  22.333  0.00  0.00    +0.000 A 
ATOM      6  C   UNL     1       0.602   9.410  22.839  0.00  0.00    +0.000 A 
ATOM      7  C   UNL     1       1.390   8.646  21.979  0.00  0.00    +0.000 A 
ATOM      8  C   UNL     1       1.243   8.736  20.593  0.00  0.00    +0.000 A 
ATOM      9  C   UNL     1       0.297   9.637  20.083  0.00  0.00    +0.000 A 
ATOM     10  C   UNL     1      -0.496  10.412  20.952  0.00  0.00    +0.000 A 
BRANCH   5  11
ATOM     11  O   UNL     1      -1.040  10.969  23.288  0.00  0.00    +0.000 OA
BRANCH  11  13
ATOM     12  C   UNL     1      -1.370  13.309  23.198  0.00  0.00    +0.000 C 
ATOM     13  C   UNL     1      -1.961  11.956  22.841  0.00  0.00    +0.000 C 
ENDBRANCH  11  13
ENDBRANCH   5  11
ENDBRANCH   1   8
BRANCH   2  14
ATOM     14  C   UNL     1       3.067   5.894  18.746  0.00  0.00    +0.000 A 
ATOM     15  C   UNL     1       3.712   6.782  17.848  0.00  0.00    +0.000 A 
ATOM     16  C   UNL     1       4.511   6.333  16.801  0.00  0.00    +0.000 A 
ATOM     17  C   UNL     1       4.684   4.973  16.620  0.00  0.00    +0.000 A 
ATOM     18  C   UNL     1       4.066   4.073  17.495  0.00  0.00    +0.000 A 
ATOM     19  C   UNL     1       3.267   4.507  18.576  0.00  0.00    +0.000 A 
BRANCH  19  20
ATOM     20  S   UNL     1       2.500   3.237  19.594  0.00  0.00    +0.000 S 
ATOM     21  C   UNL     1       1.004   2.848  18.635  0.00  0.00    +0.000 C 
ENDBRANCH  19  20
ENDBRANCH   2  14
TORSDOF 5
ENDMDL
MODEL 7
REMARK VINA RESULT:      -6.1      1.097      1.098
REMARK  Name = 
REMARK  7 active torsions:
REMARK  status: ('A' for Active; 'I' for Inactive)
REMARK    1  A    between atoms: C_1  and  C_2
REMARK    2  A    between atoms: C_2  and  O_3
REMARK    3  A    between atoms: O_3  and  C_4
REMARK    4  A    between atoms: C_7  and  N_8
REMARK    5  A    between atoms: C_9  and  C_11
REMARK    6  A    between atoms: C_16  and  S_17
REMARK    7  A    between atoms: S_17  and  C_18
REMARK                            x       y       z     vdW  Elec       q    Type
REMARK                         _______ _______ _______ _____ _____    ______ ____
ROOT
ATOM      1  N   UNL     1       2.925   6.995  17.925  0.00  0.00    +0.000 N 
ATOM      2  C   UNL     1       3.901   6.096  18.316  0.00  0.00    +0.000 C 
ATOM      3  O   UNL     1       4.244   5.923  19.488  0.00  0.00    +0.000 OA
ATOM      4  H   UNL     1       2.688   7.022  16.937  0.00  0.00    +0.000 HD
ENDROOT
BRANCH   1   8
ATOM      5  C   UNL     1       0.793   9.536  20.568  0.00  0.00    +0.000 A 
ATOM      6  C   UNL     1       0.999   9.921  19.250  0.00  0.00    +0.000 A 
ATOM      7  C   UNL     1       1.681   9.087  18.365  0.00  0.00    +0.000 A 
ATOM      8  C   UNL     1       2.197   7.858  18.783  0.00  0.00    +0.000 A 
ATOM      9  C   UNL     1       1.988   7.469  20.114  0.00  0.00    +0.000 A 
ATOM     10  C   UNL     1       1.295   8.310  21.007  0.00  0.00    +0.000 A 
BRANCH   5  11
ATOM     11  O   UNL     1       0.125  10.455  21.318  0.00  0.00    +0.000 OA
BRANCH  11  13
ATOM     12  C   UNL     1      -1.328  11.086  23.074  0.00  0.00    +0.000 C 
ATOM     13  C   UNL     1      -0.349  10.030  22.590  0.00  0.00    +0.000 C 
ENDBRANCH  11  13
ENDBRANCH   5  11
ENDBRANCH   1   8
BRANCH   2  14
ATOM     14  C   UNL     1       4.602   5.250  17.289  0.00  0.00    +0.000 A 
ATOM     15  C   UNL     1       5.563   5.965  16.529  0.00  0.00    +0.000 A 
ATOM     16  C   UNL     1       6.302   5.370  15.511  0.00  0.00    +0.000 A 
ATOM     17  C   UNL     1       6.094   4.034  15.221  0.00  0.00    +0.000 A 
ATOM     18  C   UNL     1       5.158   3.301  15.958  0.00  0.00    +0.000 A 
ATOM     19  C   UNL     1       4.412   3.880  17.009  0.00  0.00    +0.000 A 
BRANCH  19  20
ATOM     20  S   UNL     1       3.214   2.829  17.844  0.00  0.00    +0.000 S 
ATOM     21  C   UNL     1       4.072   2.460  19.406  0.00  0.00    +0.000 C 
ENDBRANCH  19  20
ENDBRANCH   2  14
TORSDOF 5
ENDMDL
MODEL 8
REMARK VINA RESULT:      -6.1      1.444      1.794
REMARK  Name = 
REMARK  7 active torsions:
REMARK  status: ('A' for Active; 'I' for Inactive)
REMARK    1  A    between atoms: C_1  and  C_2
REMARK    2  A    between atoms: C_2  and  O_3
REMARK    3  A    between atoms: O_3  and  C_4
REMARK    4  A    between atoms: C_7  and  N_8
REMARK    5  A    between atoms: C_9  and  C_11
REMARK    6  A    between atoms: C_16  and  S_17
REMARK    7  A    between atoms: S_17  and  C_18
REMARK                            x       y       z     vdW  Elec       q    Type
REMARK                         _______ _______ _______ _____ _____    ______ ____
ROOT
ATOM      1  N   UNL     1       2.274   7.529  19.610  0.00  0.00    +0.000 N 
ATOM      2  C   UNL     1       2.552   7.427  18.260  0.00  0.00    +0.000 C 
ATOM      3  O   UNL     1       2.124   8.214  17.410  0.00  0.00    +0.000 OA
ATOM      4  H   UNL     1       2.717   6.856  20.229  0.00  0.00    +0.000 HD
ENDROOT
BRANCH   1   8
ATOM      5  C   UNL     1      -0.146  10.443  21.519  0.00  0.00    +0.000 A 
ATOM      6  C   UNL     1       0.264  10.633  20.205  0.00  0.00    +0.000 A 
ATOM      7  C   UNL     1       1.043   9.674  19.559  0.00  0.00    +0.000 A 
ATOM      8  C   UNL     1       1.454   8.513  20.219  0.00  0.00    +0.000 A 
ATOM      9  C   UNL     1       1.040   8.322  21.545  0.00  0.00    +0.000 A 
ATOM     10  C   UNL     1       0.249   9.289  22.197  0.00  0.00    +0.000 A 
BRANCH   5  11
ATOM     11  O   UNL     1      -0.888  11.467  22.024  0.00  0.00    +0.000 OA
BRANCH  11  13
ATOM     12  C   UNL     1      -2.800  12.133  23.246  0.00  0.00    +0.000 C 
ATOM     13  C   UNL     1      -1.584  11.223  23.240  0.00  0.00    +0.000 C 
ENDBRANCH  11  13
ENDBRANCH   5  11
ENDBRANCH   1   8
BRANCH   2  14
ATOM     14  C   UNL     1       3.433   6.319  17.752  0.00  0.00    +0.000 A 
ATOM     15  C   UNL     1       4.687   6.772  17.267  0.00  0.00    +0.000 A 
ATOM     16  C   UNL     1       5.635   5.907  16.732  0.00  0.00    +0.000 A 
ATOM     17  C   UNL     1       5.351   4.555  16.661  0.00  0.00    +0.000 A 
ATOM     18  C   UNL     1       4.126   4.078  17.139  0.00  0.00    +0.000 A 
ATOM     19  C   UNL     1       3.157   4.936  17.705  0.00  0.00    +0.000 A 
BRANCH  19  20
ATOM     20  S   UNL     1       1.609   4.190  18.240  0.00  0.00    +0.000 S 
ATOM     21  C   UNL     1       1.994   2.416  18.120  0.00  0.00    +0.000 C 
ENDBRANCH  19  20
ENDBRANCH   2  14
TORSDOF 5
ENDMDL
MODEL 9
REMARK VINA RESULT:      -6.0      2.659      7.948
REMARK  Name = 
REMARK  7 active torsions:
REMARK  status: ('A' for Active; 'I' for Inactive)
REMARK    1  A    between atoms: C_1  and  C_2
REMARK    2  A    between atoms: C_2  and  O_3
REMARK    3  A    between atoms: O_3  and  C_4
REMARK    4  A    between atoms: C_7  and  N_8
REMARK    5  A    between atoms: C_9  and  C_11
REMARK    6  A    between atoms: C_16  and  S_17
REMARK    7  A    between atoms: S_17  and  C_18
REMARK                            x       y       z     vdW  Elec       q    Type
REMARK                         _______ _______ _______ _____ _____    ______ ____
ROOT
ATOM      1  N   UNL     1       2.071   7.067  20.068  0.00  0.00    +0.000 N 
ATOM      2  C   UNL     1       1.686   8.348  19.714  0.00  0.00    +0.000 C 
ATOM      3  O   UNL     1       1.953   8.868  18.628  0.00  0.00    +0.000 OA
ATOM      4  H   UNL     1       1.756   6.719  20.970  0.00  0.00    +0.000 HD
ENDROOT
BRANCH   1   8
ATOM      5  C   UNL     1       4.285   4.409  17.615  0.00  0.00    +0.000 A 
ATOM      6  C   UNL     1       4.942   5.213  18.537  0.00  0.00    +0.000 A 
ATOM      7  C   UNL     1       4.225   6.077  19.364  0.00  0.00    +0.000 A 
ATOM      8  C   UNL     1       2.835   6.178  19.270  0.00  0.00    +0.000 A 
ATOM      9  C   UNL     1       2.172   5.366  18.339  0.00  0.00    +0.000 A 
ATOM     10  C   UNL     1       2.897   4.490  17.507  0.00  0.00    +0.000 A 
BRANCH   5  11
ATOM     11  O   UNL     1       5.113   3.628  16.868  0.00  0.00    +0.000 OA
BRANCH  11  13
ATOM     12  C   UNL     1       6.907   4.519  15.610  0.00  0.00    +0.000 C 
ATOM     13  C   UNL     1       5.448   4.099  15.568  0.00  0.00    +0.000 C 
ENDBRANCH  11  13
ENDBRANCH   5  11
ENDBRANCH   1   8
BRANCH   2  14
ATOM     14  C   UNL     1       0.883   9.186  20.671  0.00  0.00    +0.000 A 
ATOM     15  C   UNL     1       0.977   8.750  22.018  0.00  0.00    +0.000 A 
ATOM     16  C   UNL     1       0.289   9.376  23.053  0.00  0.00    +0.000 A 
ATOM     17  C   UNL     1      -0.521  10.459  22.766  0.00  0.00    +0.000 A 
ATOM     18  C   UNL     1      -0.628  10.915  21.448  0.00  0.00    +0.000 A 
ATOM     19  C   UNL     1       0.078  10.308  20.385  0.00  0.00    +0.000 A 
BRANCH  19  20
ATOM     20  S   UNL     1      -0.187  10.975  18.735  0.00  0.00    +0.000 S 
ATOM     21  C   UNL     1      -1.755  10.181  18.263  0.00  0.00    +0.000 C 
ENDBRANCH  19  20
ENDBRANCH   2  14
TORSDOF 5
ENDMDL
