MODEL 1
REMARK VINA RESULT:      -8.0      0.000      0.000
REMARK  Name = 
REMARK  14 active torsions:
REMARK  status: ('A' for Active; 'I' for Inactive)
REMARK    1  A    between atoms: C_2  and  C_3
REMARK    2  A    between atoms: C_2  and  C_4
REMARK    3  A    between atoms: C_7  and  C_8
REMARK    4  A    between atoms: C_9  and  C_10
REMARK    5  A    between atoms: C_10  and  C_11
REMARK    6  A    between atoms: C_11  and  C_12
REMARK    7  A    between atoms: C_18  and  C_19
REMARK    8  A    between atoms: C_18  and  C_20
REMARK    9  A    between atoms: C_25  and  C_26
REMARK   10  A    between atoms: C_27  and  C_28
REMARK   11  A    between atoms: C_27  and  C_29
REMARK   12  A    between atoms: C_29  and  C_30
REMARK   13  A    between atoms: C_30  and  C_31
REMARK   14  A    between atoms: C_31  and  O_33
REMARK                            x       y       z     vdW  Elec       q    Type
REMARK                         _______ _______ _______ _____ _____    ______ ____
ROOT
ATOM      1  C   UNL     1       0.400  11.771  19.237  0.00  0.00    +0.000 C 
ATOM      2  C   UNL     1      -0.638  11.987  20.339  0.00  0.00    +0.000 C 
ATOM      3  C   UNL     1      -0.356  11.224  21.579  0.00  0.00    +0.000 C 
ATOM      4  C   UNL     1       0.221  10.013  21.604  0.00  0.00    +0.000 C 
ATOM      5  C   UNL     1       0.285   9.327  22.941  0.00  0.00    +0.000 C 
ATOM      6  C   UNL     1       0.635   9.271  20.326  0.00  0.00    +0.000 C 
ATOM      7  C   UNL     1       0.765  10.233  18.993  0.00  0.00    +0.000 C 
ATOM      8  C   UNL     1       2.141  10.162  18.276  0.00  0.00    +0.000 C 
ENDROOT
BRANCH   1  10
ATOM      9  C   UNL     1       2.127  13.087  20.508  0.00  0.00    +0.000 C 
ATOM     10  C   UNL     1       1.532  12.815  19.329  0.00  0.00    +0.000 C 
ATOM     11  C   UNL     1       2.055  13.462  18.074  0.00  0.00    +0.000 C 
ENDBRANCH   1  10
BRANCH   6  12
ATOM     12  C   UNL     1       1.803   8.258  20.527  0.00  0.00    +0.000 C 
BRANCH  12  13
ATOM     13  C   UNL     1       2.247   7.346  19.337  0.00  0.00    +0.000 C 
BRANCH  13  14
ATOM     14  C   UNL     1       2.951   5.911  19.361  0.00  0.00    +0.000 C 
ATOM     15  C   UNL     1       1.948   4.759  19.293  0.00  0.00    +0.000 C 
ATOM     16  C   UNL     1       0.778   4.757  19.958  0.00  0.00    +0.000 C 
ATOM     17  C   UNL     1       2.307   3.481  18.579  0.00  0.00    +0.000 C 
ATOM     18  C   UNL     1       3.136   3.628  17.311  0.00  0.00    +0.000 C 
ATOM     19  C   UNL     1       4.424   4.405  17.574  0.00  0.00    +0.000 C 
ATOM     20  C   UNL     1       5.455   4.411  16.349  0.00  0.00    +0.000 C 
ATOM     21  C   UNL     1       4.964   5.038  15.017  0.00  0.00    +0.000 C 
ATOM     22  C   UNL     1       5.847   2.967  15.937  0.00  0.00    +0.000 C 
ATOM     23  C   UNL     1       6.734   5.127  16.820  0.00  0.00    +0.000 C 
ATOM     24  O   UNL     1       7.844   4.846  16.341  0.00  0.00    +0.000 OA
ATOM     25  C   UNL     1       6.636   6.311  17.773  0.00  0.00    +0.000 C 
ATOM     26  C   UNL     1       5.499   6.240  18.799  0.00  0.00    +0.000 C 
ATOM     27  C   UNL     1       4.121   5.840  18.188  0.00  0.00    +0.000 C 
ATOM     28  C   UNL     1       3.748   6.821  17.051  0.00  0.00    +0.000 C 
ENDBRANCH  13  14
ENDBRANCH  12  13
ENDBRANCH   6  12
BRANCH   7  29
ATOM     29  C   UNL     1      -0.300   9.626  17.985  0.00  0.00    +0.000 C 
BRANCH  29  30
ATOM     30  C   UNL     1      -1.761  10.089  18.106  0.00  0.00    +0.000 C 
BRANCH  30  31
ATOM     31  C   UNL     1      -2.312  10.543  16.772  0.00  0.00    +0.000 C 
ATOM     32  O   UNL     1      -2.964   9.852  16.004  0.00  0.00    +0.000 OA
BRANCH  31  33
ATOM     33  O   UNL     1      -2.007  11.837  16.514  0.00  0.00    +0.000 OA
ATOM     34  H   UNL     1      -2.707  12.326  16.072  0.00  0.00    +0.000 HD
ENDBRANCH  31  33
ENDBRANCH  30  31
ENDBRANCH  29  30
ENDBRANCH   7  29
TORSDOF 8
ENDMDL
MODEL 2
REMARK VINA RESULT:      -7.7      1.718      8.863
REMARK  Name = 
REMARK  14 active torsions:
REMARK  status: ('A' for Active; 'I' for Inactive)
REMARK    1  A    between atoms: C_2  and  C_3
REMARK    2  A    between atoms: C_2  and  C_4
REMARK    3  A    between atoms: C_7  and  C_8
REMARK    4  A    between atoms: C_9  and  C_10
REMARK    5  A    between atoms: C_10  and  C_11
REMARK    6  A    between atoms: C_11  and  C_12
REMARK    7  A    between atoms: C_18  and  C_19
REMARK    8  A    between atoms: C_18  and  C_20
REMARK    9  A    between atoms: C_25  and  C_26
REMARK   10  A    between atoms: C_27  and  C_28
REMARK   11  A    between atoms: C_27  and  C_29
REMARK   12  A    between atoms: C_29  and  C_30
REMARK   13  A    between atoms: C_30  and  C_31
REMARK   14  A    between atoms: C_31  and  O_33
REMARK                            x       y       z     vdW  Elec       q    Type
REMARK                         _______ _______ _______ _____ _____    ______ ____
ROOT
ATOM      1  C   UNL     1       5.576   4.554  16.771  0.00  0.00    +0.000 C 
ATOM      2  C   UNL     1       4.798   3.359  17.323  0.00  0.00    +0.000 C 
ATOM      3  C   UNL     1       3.328   3.557  17.325  0.00  0.00    +0.000 C 
ATOM      4  C   UNL     1       2.727   4.739  17.527  0.00  0.00    +0.000 C 
ATOM      5  C   UNL     1       1.227   4.718  17.649  0.00  0.00    +0.000 C 
ATOM      6  C   UNL     1       3.514   6.027  17.804  0.00  0.00    +0.000 C 
ATOM      7  C   UNL     1       5.104   5.959  17.370  0.00  0.00    +0.000 C 
ATOM      8  C   UNL     1       5.558   7.084  16.401  0.00  0.00    +0.000 C 
ENDROOT
BRANCH   1  10
ATOM      9  C   UNL     1       4.773   4.151  14.421  0.00  0.00    +0.000 C 
ATOM     10  C   UNL     1       5.802   4.414  15.251  0.00  0.00    +0.000 C 
ATOM     11  C   UNL     1       7.167   4.678  14.672  0.00  0.00    +0.000 C 
ENDBRANCH   1  10
BRANCH   6  12
ATOM     12  C   UNL     1       2.770   7.332  17.386  0.00  0.00    +0.000 C 
BRANCH  12  13
ATOM     13  C   UNL     1       2.332   8.355  18.485  0.00  0.00    +0.000 C 
BRANCH  13  14
ATOM     14  C   UNL     1       1.006   8.385  19.379  0.00  0.00    +0.000 C 
ATOM     15  C   UNL     1       1.200   7.726  20.745  0.00  0.00    +0.000 C 
ATOM     16  C   UNL     1       1.905   6.594  20.927  0.00  0.00    +0.000 C 
ATOM     17  C   UNL     1       0.464   8.250  21.952  0.00  0.00    +0.000 C 
ATOM     18  C   UNL     1       0.296   9.761  22.034  0.00  0.00    +0.000 C 
ATOM     19  C   UNL     1      -0.383  10.315  20.784  0.00  0.00    +0.000 C 
ATOM     20  C   UNL     1      -0.799  11.859  20.886  0.00  0.00    +0.000 C 
ATOM     21  C   UNL     1       0.345  12.883  21.116  0.00  0.00    +0.000 C 
ATOM     22  C   UNL     1      -1.745  12.107  22.091  0.00  0.00    +0.000 C 
ATOM     23  C   UNL     1      -1.569  12.219  19.603  0.00  0.00    +0.000 C 
ATOM     24  O   UNL     1      -2.437  13.106  19.599  0.00  0.00    +0.000 OA
ATOM     25  C   UNL     1      -1.164  11.598  18.272  0.00  0.00    +0.000 C 
ATOM     26  C   UNL     1      -0.636  10.160  18.347  0.00  0.00    +0.000 C 
ATOM     27  C   UNL     1       0.425   9.935  19.468  0.00  0.00    +0.000 C 
ATOM     28  C   UNL     1       1.602  10.922  19.281  0.00  0.00    +0.000 C 
ENDBRANCH  13  14
ENDBRANCH  12  13
ENDBRANCH   6  12
BRANCH   7  29
ATOM     29  C   UNL     1       5.878   6.200  18.735  0.00  0.00    +0.000 C 
BRANCH  29  30
ATOM     30  C   UNL     1       7.396   6.438  18.676  0.00  0.00    +0.000 C 
BRANCH  30  31
ATOM     31  C   UNL     1       8.166   5.224  19.148  0.00  0.00    +0.000 C 
ATOM     32  O   UNL     1       8.512   4.287  18.444  0.00  0.00    +0.000 OA
BRANCH  31  33
ATOM     33  O   UNL     1       8.449   5.288  20.471  0.00  0.00    +0.000 OA
ATOM     34  H   UNL     1       7.860   5.860  20.973  0.00  0.00    +0.000 HD
ENDBRANCH  31  33
ENDBRANCH  30  31
ENDBRANCH  29  30
ENDBRANCH   7  29
TORSDOF 8
ENDMDL
MODEL 3
REMARK VINA RESULT:      -7.5      1.814      8.674
REMARK  Name = 
REMARK  14 active torsions:
REMARK  status: ('A' for Active; 'I' for Inactive)
REMARK    1  A    between atoms: C_2  and  C_3
REMARK    2  A    between atoms: C_2  and  C_4
REMARK    3  A    between atoms: C_7  and  C_8
REMARK    4  A    between atoms: C_9  and  C_10
REMARK    5  A    between atoms: C_10  and  C_11
REMARK    6  A    between atoms: C_11  and  C_12
REMARK    7  A    between atoms: C_18  and  C_19
REMARK    8  A    between atoms: C_18  and  C_20
REMARK    9  A    between atoms: C_25  and  C_26
REMARK   10  A    between atoms: C_27  and  C_28
REMARK   11  A    between atoms: C_27  and  C_29
REMARK   12  A    between atoms: C_29  and  C_30
REMARK   13  A    between atoms: C_30  and  C_31
REMARK   14  A    between atoms: C_31  and  O_33
REMARK                            x       y       z     vdW  Elec       q    Type
REMARK                         _______ _______ _______ _____ _____    ______ ____
ROOT
ATOM      1  C   UNL     1       5.886   4.880  16.411  0.00  0.00    +0.000 C 
ATOM      2  C   UNL     1       5.415   3.669  17.217  0.00  0.00    +0.000 C 
ATOM      3  C   UNL     1       3.946   3.623  17.417  0.00  0.00    +0.000 C 
ATOM      4  C   UNL     1       3.171   4.708  17.563  0.00  0.00    +0.000 C 
ATOM      5  C   UNL     1       1.728   4.462  17.912  0.00  0.00    +0.000 C 
ATOM      6  C   UNL     1       3.740   6.134  17.557  0.00  0.00    +0.000 C 
ATOM      7  C   UNL     1       5.246   6.262  16.898  0.00  0.00    +0.000 C 
ATOM      8  C   UNL     1       5.361   7.292  15.742  0.00  0.00    +0.000 C 
ENDROOT
BRANCH   1  10
ATOM      9  C   UNL     1       4.827   4.171  14.241  0.00  0.00    +0.000 C 
ATOM     10  C   UNL     1       5.937   4.557  14.903  0.00  0.00    +0.000 C 
ATOM     11  C   UNL     1       7.213   4.777  14.135  0.00  0.00    +0.000 C 
ENDBRANCH   1  10
BRANCH   6  12
ATOM     12  C   UNL     1       2.723   7.224  17.101  0.00  0.00    +0.000 C 
BRANCH  12  13
ATOM     13  C   UNL     1       2.324   8.368  18.091  0.00  0.00    +0.000 C 
BRANCH  13  14
ATOM     14  C   UNL     1       1.142   8.417  19.167  0.00  0.00    +0.000 C 
ATOM     15  C   UNL     1       1.548   7.827  20.518  0.00  0.00    +0.000 C 
ATOM     16  C   UNL     1       2.299   6.717  20.645  0.00  0.00    +0.000 C 
ATOM     17  C   UNL     1       0.982   8.395  21.794  0.00  0.00    +0.000 C 
ATOM     18  C   UNL     1       0.791   9.904  21.833  0.00  0.00    +0.000 C 
ATOM     19  C   UNL     1      -0.075  10.387  20.672  0.00  0.00    +0.000 C 
ATOM     20  C   UNL     1      -0.509  11.926  20.765  0.00  0.00    +0.000 C 
ATOM     21  C   UNL     1       0.630  12.980  20.780  0.00  0.00    +0.000 C 
ATOM     22  C   UNL     1      -1.276  12.215  22.083  0.00  0.00    +0.000 C 
ATOM     23  C   UNL     1      -1.466  12.212  19.593  0.00  0.00    +0.000 C 
ATOM     24  O   UNL     1      -2.346  13.083  19.677  0.00  0.00    +0.000 OA
ATOM     25  C   UNL     1      -1.243  11.536  18.246  0.00  0.00    +0.000 C 
ATOM     26  C   UNL     1      -0.676  10.112  18.308  0.00  0.00    +0.000 C 
ATOM     27  C   UNL     1       0.542   9.959  19.270  0.00  0.00    +0.000 C 
ATOM     28  C   UNL     1       1.655  10.956  18.869  0.00  0.00    +0.000 C 
ENDBRANCH  13  14
ENDBRANCH  12  13
ENDBRANCH   6  12
BRANCH   7  29
ATOM     29  C   UNL     1       6.132   6.824  18.090  0.00  0.00    +0.000 C 
BRANCH  29  30
ATOM     30  C   UNL     1       7.650   6.944  17.872  0.00  0.00    +0.000 C 
BRANCH  30  31
ATOM     31  C   UNL     1       8.141   8.347  18.151  0.00  0.00    +0.000 C 
ATOM     32  O   UNL     1       7.848   9.342  17.505  0.00  0.00    +0.000 OA
BRANCH  31  33
ATOM     33  O   UNL     1       8.957   8.391  19.232  0.00  0.00    +0.000 OA
ATOM     34  H   UNL     1       8.620   7.921  20.000  0.00  0.00    +0.000 HD
ENDBRANCH  31  33
ENDBRANCH  30  31
ENDBRANCH  29  30
ENDBRANCH   7  29
TORSDOF 8
ENDMDL
MODEL 4
REMARK VINA RESULT:      -7.4      1.459      8.874
REMARK  Name = 
REMARK  14 active torsions:
REMARK  status: ('A' for Active; 'I' for Inactive)
REMARK    1  A    between atoms: C_2  and  C_3
REMARK    2  A    between atoms: C_2  and  C_4
REMARK    3  A    between atoms: C_7  and  C_8
REMARK    4  A    between atoms: C_9  and  C_10
REMARK    5  A    between atoms: C_10  and  C_11
REMARK    6  A    between atoms: C_11  and  C_12
REMARK    7  A    between atoms: C_18  and  C_19
REMARK    8  A    between atoms: C_18  and  C_20
REMARK    9  A    between atoms: C_25  and  C_26
REMARK   10  A    between atoms: C_27  and  C_28
REMARK   11  A    between atoms: C_27  and  C_29
REMARK   12  A    between atoms: C_29  and  C_30
REMARK   13  A    between atoms: C_30  and  C_31
REMARK   14  A    between atoms: C_31  and  O_33
REMARK                            x       y       z     vdW  Elec       q    Type
REMARK                         _______ _______ _______ _____ _____    ______ ____
ROOT
ATOM      1  C   UNL     1       4.784   4.412  18.076  0.00  0.00    +0.000 C 
ATOM      2  C   UNL     1       4.454   3.703  19.390  0.00  0.00    +0.000 C 
ATOM      3  C   UNL     1       3.138   4.085  19.957  0.00  0.00    +0.000 C 
ATOM      4  C   UNL     1       2.595   5.307  19.847  0.00  0.00    +0.000 C 
ATOM      5  C   UNL     1       1.328   5.552  20.619  0.00  0.00    +0.000 C 
ATOM      6  C   UNL     1       3.306   6.462  19.127  0.00  0.00    +0.000 C 
ATOM      7  C   UNL     1       4.518   5.989  18.114  0.00  0.00    +0.000 C 
ATOM      8  C   UNL     1       4.377   6.499  16.654  0.00  0.00    +0.000 C 
ENDROOT
BRANCH   1  10
ATOM      9  C   UNL     1       5.132   3.305  15.844  0.00  0.00    +0.000 C 
ATOM     10  C   UNL     1       4.299   3.589  16.865  0.00  0.00    +0.000 C 
ATOM     11  C   UNL     1       2.911   3.004  16.868  0.00  0.00    +0.000 C 
ENDBRANCH   1  10
BRANCH   6  12
ATOM     12  C   UNL     1       2.342   7.541  18.547  0.00  0.00    +0.000 C 
BRANCH  12  13
ATOM     13  C   UNL     1       1.947   8.775  19.424  0.00  0.00    +0.000 C 
BRANCH  13  14
ATOM     14  C   UNL     1       0.585   9.074  20.207  0.00  0.00    +0.000 C 
ATOM     15  C   UNL     1       0.816   9.455  21.670  0.00  0.00    +0.000 C 
ATOM     16  C   UNL     1       1.728   8.853  22.456  0.00  0.00    +0.000 C 
ATOM     17  C   UNL     1      -0.096  10.444  22.349  0.00  0.00    +0.000 C 
ATOM     18  C   UNL     1      -0.582  11.608  21.496  0.00  0.00    +0.000 C 
ATOM     19  C   UNL     1      -1.272  11.118  20.225  0.00  0.00    +0.000 C 
ATOM     20  C   UNL     1      -2.007  12.268  19.387  0.00  0.00    +0.000 C 
ATOM     21  C   UNL     1      -1.122  13.424  18.850  0.00  0.00    +0.000 C 
ATOM     22  C   UNL     1      -3.066  13.003  20.250  0.00  0.00    +0.000 C 
ATOM     23  C   UNL     1      -2.743  11.591  18.216  0.00  0.00    +0.000 C 
ATOM     24  O   UNL     1      -3.774  12.084  17.732  0.00  0.00    +0.000 OA
ATOM     25  C   UNL     1      -2.125  10.384  17.523  0.00  0.00    +0.000 C 
ATOM     26  C   UNL     1      -1.315   9.446  18.428  0.00  0.00    +0.000 C 
ATOM     27  C   UNL     1      -0.312  10.186  19.366  0.00  0.00    +0.000 C 
ATOM     28  C   UNL     1       0.643  11.063  18.523  0.00  0.00    +0.000 C 
ENDBRANCH  13  14
ENDBRANCH  12  13
ENDBRANCH   6  12
BRANCH   7  29
ATOM     29  C   UNL     1       5.808   6.694  18.715  0.00  0.00    +0.000 C 
BRANCH  29  30
ATOM     30  C   UNL     1       7.151   6.479  17.998  0.00  0.00    +0.000 C 
BRANCH  30  31
ATOM     31  C   UNL     1       7.900   5.293  18.567  0.00  0.00    +0.000 C 
ATOM     32  O   UNL     1       8.221   4.294  17.943  0.00  0.00    +0.000 OA
BRANCH  31  33
ATOM     33  O   UNL     1       8.195   5.464  19.878  0.00  0.00    +0.000 OA
ATOM     34  H   UNL     1       8.861   4.856  20.214  0.00  0.00    +0.000 HD
ENDBRANCH  31  33
ENDBRANCH  30  31
ENDBRANCH  29  30
ENDBRANCH   7  29
TORSDOF 8
ENDMDL
MODEL 5
REMARK VINA RESULT:      -7.4      2.021      3.307
REMARK  Name = 
REMARK  14 active torsions:
REMARK  status: ('A' for Active; 'I' for Inactive)
REMARK    1  A    between atoms: C_2  and  C_3
REMARK    2  A    between atoms: C_2  and  C_4
REMARK    3  A    between atoms: C_7  and  C_8
REMARK    4  A    between atoms: C_9  and  C_10
REMARK    5  A    between atoms: C_10  and  C_11
REMARK    6  A    between atoms: C_11  and  C_12
REMARK    7  A    between atoms: C_18  and  C_19
REMARK    8  A    between atoms: C_18  and  C_20
REMARK    9  A    between atoms: C_25  and  C_26
REMARK   10  A    between atoms: C_27  and  C_28
REMARK   11  A    between atoms: C_27  and  C_29
REMARK   12  A    between atoms: C_29  and  C_30
REMARK   13  A    between atoms: C_30  and  C_31
REMARK   14  A    between atoms: C_31  and  O_33
REMARK                            x       y       z     vdW  Elec       q    Type
REMARK                         _______ _______ _______ _____ _____    ______ ____
ROOT
ATOM      1  C   UNL     1      -1.224  12.661  20.602  0.00  0.00    +0.000 C 
ATOM      2  C   UNL     1      -2.168  12.240  21.729  0.00  0.00    +0.000 C 
ATOM      3  C   UNL     1      -1.536  11.349  22.732  0.00  0.00    +0.000 C 
ATOM      4  C   UNL     1      -0.591  10.441  22.445  0.00  0.00    +0.000 C 
ATOM      5  C   UNL     1      -0.180   9.522  23.563  0.00  0.00    +0.000 C 
ATOM      6  C   UNL     1      -0.075  10.212  21.018  0.00  0.00    +0.000 C 
ATOM      7  C   UNL     1      -0.394  11.448  19.973  0.00  0.00    +0.000 C 
ATOM      8  C   UNL     1       0.854  12.026  19.254  0.00  0.00    +0.000 C 
ENDROOT
BRANCH   1  10
ATOM      9  C   UNL     1       0.215  14.092  22.090  0.00  0.00    +0.000 C 
ATOM     10  C   UNL     1      -0.497  13.977  20.951  0.00  0.00    +0.000 C 
ATOM     11  C   UNL     1      -0.493  15.112  19.962  0.00  0.00    +0.000 C 
ENDBRANCH   1  10
BRANCH   6  12
ATOM     12  C   UNL     1       1.376   9.645  20.948  0.00  0.00    +0.000 C 
BRANCH  12  13
ATOM     13  C   UNL     1       1.595   8.118  20.689  0.00  0.00    +0.000 C 
BRANCH  13  14
ATOM     14  C   UNL     1       1.567   7.304  19.314  0.00  0.00    +0.000 C 
ATOM     15  C   UNL     1       2.369   7.987  18.206  0.00  0.00    +0.000 C 
ATOM     16  C   UNL     1       2.367   9.317  18.004  0.00  0.00    +0.000 C 
ATOM     17  C   UNL     1       3.096   7.160  17.176  0.00  0.00    +0.000 C 
ATOM     18  C   UNL     1       3.739   5.874  17.675  0.00  0.00    +0.000 C 
ATOM     19  C   UNL     1       2.720   4.977  18.375  0.00  0.00    +0.000 C 
ATOM     20  C   UNL     1       3.263   3.512  18.730  0.00  0.00    +0.000 C 
ATOM     21  C   UNL     1       4.482   3.425  19.686  0.00  0.00    +0.000 C 
ATOM     22  C   UNL     1       3.756   2.772  17.458  0.00  0.00    +0.000 C 
ATOM     23  C   UNL     1       2.086   2.709  19.314  0.00  0.00    +0.000 C 
ATOM     24  O   UNL     1       2.025   1.476  19.193  0.00  0.00    +0.000 OA
ATOM     25  C   UNL     1       1.054   3.402  20.194  0.00  0.00    +0.000 C 
ATOM     26  C   UNL     1       0.746   4.859  19.828  0.00  0.00    +0.000 C 
ATOM     27  C   UNL     1       2.016   5.731  19.584  0.00  0.00    +0.000 C 
ATOM     28  C   UNL     1       2.932   5.680  20.829  0.00  0.00    +0.000 C 
ENDBRANCH  13  14
ENDBRANCH  12  13
ENDBRANCH   6  12
BRANCH   7  29
ATOM     29  C   UNL     1      -1.287  10.769  18.849  0.00  0.00    +0.000 C 
BRANCH  29  30
ATOM     30  C   UNL     1      -1.882  11.669  17.753  0.00  0.00    +0.000 C 
BRANCH  30  31
ATOM     31  C   UNL     1      -2.769  10.884  16.812  0.00  0.00    +0.000 C 
ATOM     32  O   UNL     1      -2.608   9.715  16.497  0.00  0.00    +0.000 OA
BRANCH  31  33
ATOM     33  O   UNL     1      -3.798  11.633  16.346  0.00  0.00    +0.000 OA
ATOM     34  H   UNL     1      -4.122  12.288  16.970  0.00  0.00    +0.000 HD
ENDBRANCH  31  33
ENDBRANCH  30  31
ENDBRANCH  29  30
ENDBRANCH   7  29
TORSDOF 8
ENDMDL
MODEL 6
REMARK VINA RESULT:      -7.4      3.669      9.852
REMARK  Name = 
REMARK  14 active torsions:
REMARK  status: ('A' for Active; 'I' for Inactive)
REMARK    1  A    between atoms: C_2  and  C_3
REMARK    2  A    between atoms: C_2  and  C_4
REMARK    3  A    between atoms: C_7  and  C_8
REMARK    4  A    between atoms: C_9  and  C_10
REMARK    5  A    between atoms: C_10  and  C_11
REMARK    6  A    between atoms: C_11  and  C_12
REMARK    7  A    between atoms: C_18  and  C_19
REMARK    8  A    between atoms: C_18  and  C_20
REMARK    9  A    between atoms: C_25  and  C_26
REMARK   10  A    between atoms: C_27  and  C_28
REMARK   11  A    between atoms: C_27  and  C_29
REMARK   12  A    between atoms: C_29  and  C_30
REMARK   13  A    between atoms: C_30  and  C_31
REMARK   14  A    between atoms: C_31  and  O_33
REMARK                            x       y       z     vdW  Elec       q    Type
REMARK                         _______ _______ _______ _____ _____    ______ ____
ROOT
ATOM      1  C   UNL     1       0.743   9.236  19.135  0.00  0.00    +0.000 C 
ATOM      2  C   UNL     1       1.648   9.462  17.923  0.00  0.00    +0.000 C 
ATOM      3  C   UNL     1       2.381  10.751  17.961  0.00  0.00    +0.000 C 
ATOM      4  C   UNL     1       1.892  11.881  18.493  0.00  0.00    +0.000 C 
ATOM      5  C   UNL     1       2.714  13.126  18.301  0.00  0.00    +0.000 C 
ATOM      6  C   UNL     1       0.488  11.961  19.110  0.00  0.00    +0.000 C 
ATOM      7  C   UNL     1      -0.168  10.499  19.499  0.00  0.00    +0.000 C 
ATOM      8  C   UNL     1      -0.623  10.367  20.978  0.00  0.00    +0.000 C 
ENDROOT
BRANCH   1  10
ATOM      9  C   UNL     1       1.490   8.964  21.523  0.00  0.00    +0.000 C 
ATOM     10  C   UNL     1       1.496   8.494  20.259  0.00  0.00    +0.000 C 
ATOM     11  C   UNL     1       2.158   7.173  19.968  0.00  0.00    +0.000 C 
ENDBRANCH   1  10
BRANCH   6  12
ATOM     12  C   UNL     1       0.331  13.067  20.197  0.00  0.00    +0.000 C 
BRANCH  12  13
ATOM     13  C   UNL     1      -0.797  14.141  20.048  0.00  0.00    +0.000 C 
BRANCH  13  14
ATOM     14  C   UNL     1      -1.618  14.917  21.179  0.00  0.00    +0.000 C 
ATOM     15  C   UNL     1      -2.171  16.257  20.691  0.00  0.00    +0.000 C 
ATOM     16  C   UNL     1      -1.480  17.100  19.902  0.00  0.00    +0.000 C 
ATOM     17  C   UNL     1      -3.490  16.768  21.213  0.00  0.00    +0.000 C 
ATOM     18  C   UNL     1      -4.572  15.724  21.447  0.00  0.00    +0.000 C 
ATOM     19  C   UNL     1      -4.086  14.617  22.382  0.00  0.00    +0.000 C 
ATOM     20  C   UNL     1      -5.231  13.603  22.856  0.00  0.00    +0.000 C 
ATOM     21  C   UNL     1      -5.960  12.795  21.750  0.00  0.00    +0.000 C 
ATOM     22  C   UNL     1      -6.388  14.353  23.569  0.00  0.00    +0.000 C 
ATOM     23  C   UNL     1      -4.601  12.636  23.876  0.00  0.00    +0.000 C 
ATOM     24  O   UNL     1      -5.280  12.118  24.777  0.00  0.00    +0.000 OA
ATOM     25  C   UNL     1      -3.162  12.172  23.697  0.00  0.00    +0.000 C 
ATOM     26  C   UNL     1      -2.207  13.204  23.085  0.00  0.00    +0.000 C 
ATOM     27  C   UNL     1      -2.775  13.917  21.819  0.00  0.00    +0.000 C 
ATOM     28  C   UNL     1      -3.167  12.863  20.757  0.00  0.00    +0.000 C 
ENDBRANCH  13  14
ENDBRANCH  12  13
ENDBRANCH   6  12
BRANCH   7  29
ATOM     29  C   UNL     1      -1.485  10.429  18.615  0.00  0.00    +0.000 C 
BRANCH  29  30
ATOM     30  C   UNL     1      -1.745  11.563  17.610  0.00  0.00    +0.000 C 
BRANCH  30  31
ATOM     31  C   UNL     1      -2.741  11.148  16.550  0.00  0.00    +0.000 C 
ATOM     32  O   UNL     1      -2.544  10.311  15.682  0.00  0.00    +0.000 OA
BRANCH  31  33
ATOM     33  O   UNL     1      -3.916  11.813  16.672  0.00  0.00    +0.000 OA
ATOM     34  H   UNL     1      -4.485  11.751  15.900  0.00  0.00    +0.000 HD
ENDBRANCH  31  33
ENDBRANCH  30  31
ENDBRANCH  29  30
ENDBRANCH   7  29
TORSDOF 8
ENDMDL
MODEL 7
REMARK VINA RESULT:      -7.3      2.481      8.657
REMARK  Name = 
REMARK  14 active torsions:
REMARK  status: ('A' for Active; 'I' for Inactive)
REMARK    1  A    between atoms: C_2  and  C_3
REMARK    2  A    between atoms: C_2  and  C_4
REMARK    3  A    between atoms: C_7  and  C_8
REMARK    4  A    between atoms: C_9  and  C_10
REMARK    5  A    between atoms: C_10  and  C_11
REMARK    6  A    between atoms: C_11  and  C_12
REMARK    7  A    between atoms: C_18  and  C_19
REMARK    8  A    between atoms: C_18  and  C_20
REMARK    9  A    between atoms: C_25  and  C_26
REMARK   10  A    between atoms: C_27  and  C_28
REMARK   11  A    between atoms: C_27  and  C_29
REMARK   12  A    between atoms: C_29  and  C_30
REMARK   13  A    between atoms: C_30  and  C_31
REMARK   14  A    between atoms: C_31  and  O_33
REMARK                            x       y       z     vdW  Elec       q    Type
REMARK                         _______ _______ _______ _____ _____    ______ ____
ROOT
ATOM      1  C   UNL     1       3.227   4.439  19.028  0.00  0.00    +0.000 C 
ATOM      2  C   UNL     1       2.769   4.395  20.486  0.00  0.00    +0.000 C 
ATOM      3  C   UNL     1       1.812   5.471  20.841  0.00  0.00    +0.000 C 
ATOM      4  C   UNL     1       1.835   6.705  20.316  0.00  0.00    +0.000 C 
ATOM      5  C   UNL     1       0.885   7.708  20.911  0.00  0.00    +0.000 C 
ATOM      6  C   UNL     1       2.889   7.143  19.289  0.00  0.00    +0.000 C 
ATOM      7  C   UNL     1       3.666   5.897  18.538  0.00  0.00    +0.000 C 
ATOM      8  C   UNL     1       3.599   5.935  16.987  0.00  0.00    +0.000 C 
ENDROOT
BRANCH   1  10
ATOM      9  C   UNL     1       1.141   4.072  17.669  0.00  0.00    +0.000 C 
ATOM     10  C   UNL     1       2.309   3.582  18.132  0.00  0.00    +0.000 C 
ATOM     11  C   UNL     1       2.767   2.221  17.679  0.00  0.00    +0.000 C 
ENDBRANCH   1  10
BRANCH   6  12
ATOM     12  C   UNL     1       2.422   8.295  18.348  0.00  0.00    +0.000 C 
BRANCH  12  13
ATOM     13  C   UNL     1       1.409   9.362  18.879  0.00  0.00    +0.000 C 
BRANCH  13  14
ATOM     14  C   UNL     1       0.778  10.627  18.133  0.00  0.00    +0.000 C 
ATOM     15  C   UNL     1      -0.738  10.521  17.968  0.00  0.00    +0.000 C 
ATOM     16  C   UNL     1      -1.368   9.377  17.641  0.00  0.00    +0.000 C 
ATOM     17  C   UNL     1      -1.596  11.759  18.020  0.00  0.00    +0.000 C 
ATOM     18  C   UNL     1      -1.175  12.828  19.019  0.00  0.00    +0.000 C 
ATOM     19  C   UNL     1       0.273  13.260  18.798  0.00  0.00    +0.000 C 
ATOM     20  C   UNL     1       0.722  14.534  19.657  0.00  0.00    +0.000 C 
ATOM     21  C   UNL     1       0.655  14.402  21.202  0.00  0.00    +0.000 C 
ATOM     22  C   UNL     1      -0.189  15.757  19.367  0.00  0.00    +0.000 C 
ATOM     23  C   UNL     1       2.154  14.903  19.228  0.00  0.00    +0.000 C 
ATOM     24  O   UNL     1       2.564  16.073  19.292  0.00  0.00    +0.000 OA
ATOM     25  C   UNL     1       3.147  13.807  18.867  0.00  0.00    +0.000 C 
ATOM     26  C   UNL     1       2.548  12.572  18.183  0.00  0.00    +0.000 C 
ATOM     27  C   UNL     1       1.267  12.022  18.884  0.00  0.00    +0.000 C 
ATOM     28  C   UNL     1       1.575  11.708  20.367  0.00  0.00    +0.000 C 
ENDBRANCH  13  14
ENDBRANCH  12  13
ENDBRANCH   6  12
BRANCH   7  29
ATOM     29  C   UNL     1       5.189   6.112  18.929  0.00  0.00    +0.000 C 
BRANCH  29  30
ATOM     30  C   UNL     1       6.142   4.909  18.824  0.00  0.00    +0.000 C 
BRANCH  30  31
ATOM     31  C   UNL     1       7.178   5.115  17.741  0.00  0.00    +0.000 C 
ATOM     32  O   UNL     1       7.206   6.051  16.957  0.00  0.00    +0.000 OA
BRANCH  31  33
ATOM     33  O   UNL     1       8.107   4.129  17.736  0.00  0.00    +0.000 OA
ATOM     34  H   UNL     1       8.334   3.797  18.610  0.00  0.00    +0.000 HD
ENDBRANCH  31  33
ENDBRANCH  30  31
ENDBRANCH  29  30
ENDBRANCH   7  29
TORSDOF 8
ENDMDL
MODEL 8
REMARK VINA RESULT:      -7.2      1.752      8.780
REMARK  Name = 
REMARK  14 active torsions:
REMARK  status: ('A' for Active; 'I' for Inactive)
REMARK    1  A    between atoms: C_2  and  C_3
REMARK    2  A    between atoms: C_2  and  C_4
REMARK    3  A    between atoms: C_7  and  C_8
REMARK    4  A    between atoms: C_9  and  C_10
REMARK    5  A    between atoms: C_10  and  C_11
REMARK    6  A    between atoms: C_11  and  C_12
REMARK    7  A    between atoms: C_18  and  C_19
REMARK    8  A    between atoms: C_18  and  C_20
REMARK    9  A    between atoms: C_25  and  C_26
REMARK   10  A    between atoms: C_27  and  C_28
REMARK   11  A    between atoms: C_27  and  C_29
REMARK   12  A    between atoms: C_29  and  C_30
REMARK   13  A    between atoms: C_30  and  C_31
REMARK   14  A    between atoms: C_31  and  O_33
REMARK                            x       y       z     vdW  Elec       q    Type
REMARK                         _______ _______ _______ _____ _____    ______ ____
ROOT
ATOM      1  C   UNL     1       5.903   5.322  17.100  0.00  0.00    +0.000 C 
ATOM      2  C   UNL     1       6.018   4.628  18.457  0.00  0.00    +0.000 C 
ATOM      3  C   UNL     1       4.734   4.545  19.194  0.00  0.00    +0.000 C 
ATOM      4  C   UNL     1       3.772   5.479  19.141  0.00  0.00    +0.000 C 
ATOM      5  C   UNL     1       2.608   5.299  20.075  0.00  0.00    +0.000 C 
ATOM      6  C   UNL     1       3.916   6.763  18.312  0.00  0.00    +0.000 C 
ATOM      7  C   UNL     1       5.084   6.695  17.150  0.00  0.00    +0.000 C 
ATOM      8  C   UNL     1       4.588   7.024  15.715  0.00  0.00    +0.000 C 
ENDROOT
BRANCH   1  10
ATOM      9  C   UNL     1       4.494   3.545  16.010  0.00  0.00    +0.000 C 
ATOM     10  C   UNL     1       5.608   4.303  15.980  0.00  0.00    +0.000 C 
ATOM     11  C   UNL     1       6.518   4.226  14.782  0.00  0.00    +0.000 C 
ENDBRANCH   1  10
BRANCH   6  12
ATOM     12  C   UNL     1       2.561   7.381  17.853  0.00  0.00    +0.000 C 
BRANCH  12  13
ATOM     13  C   UNL     1       1.997   8.640  18.592  0.00  0.00    +0.000 C 
BRANCH  13  14
ATOM     14  C   UNL     1       0.661   8.800  19.456  0.00  0.00    +0.000 C 
ATOM     15  C   UNL     1       0.938   8.939  20.953  0.00  0.00    +0.000 C 
ATOM     16  C   UNL     1       1.874   8.221  21.602  0.00  0.00    +0.000 C 
ATOM     17  C   UNL     1       0.048   9.799  21.813  0.00  0.00    +0.000 C 
ATOM     18  C   UNL     1      -0.465  11.084  21.177  0.00  0.00    +0.000 C 
ATOM     19  C   UNL     1      -1.195  10.804  19.865  0.00  0.00    +0.000 C 
ATOM     20  C   UNL     1      -1.956  12.071  19.249  0.00  0.00    +0.000 C 
ATOM     21  C   UNL     1      -1.089  13.304  18.881  0.00  0.00    +0.000 C 
ATOM     22  C   UNL     1      -2.988  12.650  20.253  0.00  0.00    +0.000 C 
ATOM     23  C   UNL     1      -2.729  11.590  18.007  0.00  0.00    +0.000 C 
ATOM     24  O   UNL     1      -3.776  12.150  17.643  0.00  0.00    +0.000 OA
ATOM     25  C   UNL     1      -2.133  10.515  17.108  0.00  0.00    +0.000 C 
ATOM     26  C   UNL     1      -1.295   9.447  17.822  0.00  0.00    +0.000 C 
ATOM     27  C   UNL     1      -0.263  10.029  18.836  0.00  0.00    +0.000 C 
ATOM     28  C   UNL     1       0.665  11.038  18.118  0.00  0.00    +0.000 C 
ENDBRANCH  13  14
ENDBRANCH  12  13
ENDBRANCH   6  12
BRANCH   7  29
ATOM     29  C   UNL     1       6.089   7.855  17.556  0.00  0.00    +0.000 C 
BRANCH  29  30
ATOM     30  C   UNL     1       7.589   7.641  17.294  0.00  0.00    +0.000 C 
BRANCH  30  31
ATOM     31  C   UNL     1       8.413   7.914  18.533  0.00  0.00    +0.000 C 
ATOM     32  O   UNL     1       8.880   8.998  18.848  0.00  0.00    +0.000 OA
BRANCH  31  33
ATOM     33  O   UNL     1       8.577   6.800  19.287  0.00  0.00    +0.000 OA
ATOM     34  H   UNL     1       8.530   6.955  20.235  0.00  0.00    +0.000 HD
ENDBRANCH  31  33
ENDBRANCH  30  31
ENDBRANCH  29  30
ENDBRANCH   7  29
TORSDOF 8
ENDMDL
MODEL 9
REMARK VINA RESULT:      -7.2      1.889      3.255
REMARK  Name = 
REMARK  14 active torsions:
REMARK  status: ('A' for Active; 'I' for Inactive)
REMARK    1  A    between atoms: C_2  and  C_3
REMARK    2  A    between atoms: C_2  and  C_4
REMARK    3  A    between atoms: C_7  and  C_8
REMARK    4  A    between atoms: C_9  and  C_10
REMARK    5  A    between atoms: C_10  and  C_11
REMARK    6  A    between atoms: C_11  and  C_12
REMARK    7  A    between atoms: C_18  and  C_19
REMARK    8  A    between atoms: C_18  and  C_20
REMARK    9  A    between atoms: C_25  and  C_26
REMARK   10  A    between atoms: C_27  and  C_28
REMARK   11  A    between atoms: C_27  and  C_29
REMARK   12  A    between atoms: C_29  and  C_30
REMARK   13  A    between atoms: C_30  and  C_31
REMARK   14  A    between atoms: C_31  and  O_33
REMARK                            x       y       z     vdW  Elec       q    Type
REMARK                         _______ _______ _______ _____ _____    ______ ____
ROOT
ATOM      1  C   UNL     1      -0.382  10.959  19.517  0.00  0.00    +0.000 C 
ATOM      2  C   UNL     1       0.720  11.661  18.724  0.00  0.00    +0.000 C 
ATOM      3  C   UNL     1       1.598  10.730  17.974  0.00  0.00    +0.000 C 
ATOM      4  C   UNL     1       1.932   9.502  18.398  0.00  0.00    +0.000 C 
ATOM      5  C   UNL     1       2.956   8.763  17.581  0.00  0.00    +0.000 C 
ATOM      6  C   UNL     1       1.445   8.933  19.738  0.00  0.00    +0.000 C 
ATOM      7  C   UNL     1       0.139   9.714  20.375  0.00  0.00    +0.000 C 
ATOM      8  C   UNL     1      -1.072   8.796  20.694  0.00  0.00    +0.000 C 
ENDROOT
BRANCH   1  10
ATOM      9  C   UNL     1      -2.775  11.521  18.977  0.00  0.00    +0.000 C 
ATOM     10  C   UNL     1      -1.666  10.816  18.674  0.00  0.00    +0.000 C 
ATOM     11  C   UNL     1      -1.654   9.961  17.434  0.00  0.00    +0.000 C 
ENDBRANCH   1  10
BRANCH   6  12
ATOM     12  C   UNL     1       1.370   7.377  19.781  0.00  0.00    +0.000 C 
BRANCH  12  13
ATOM     13  C   UNL     1       2.624   6.556  20.228  0.00  0.00    +0.000 C 
BRANCH  13  14
ATOM     14  C   UNL     1       3.128   5.119  19.740  0.00  0.00    +0.000 C 
ATOM     15  C   UNL     1       1.986   4.227  19.252  0.00  0.00    +0.000 C 
ATOM     16  C   UNL     1       0.788   4.161  19.860  0.00  0.00    +0.000 C 
ATOM     17  C   UNL     1       2.215   3.249  18.129  0.00  0.00    +0.000 C 
ATOM     18  C   UNL     1       3.133   3.713  17.007  0.00  0.00    +0.000 C 
ATOM     19  C   UNL     1       4.495   4.149  17.545  0.00  0.00    +0.000 C 
ATOM     20  C   UNL     1       5.591   4.438  16.414  0.00  0.00    +0.000 C 
ATOM     21  C   UNL     1       5.271   5.563  15.393  0.00  0.00    +0.000 C 
ATOM     22  C   UNL     1       5.811   3.194  15.513  0.00  0.00    +0.000 C 
ATOM     23  C   UNL     1       6.922   4.745  17.124  0.00  0.00    +0.000 C 
ATOM     24  O   UNL     1       8.012   4.493  16.586  0.00  0.00    +0.000 OA
ATOM     25  C   UNL     1       6.925   5.513  18.439  0.00  0.00    +0.000 C 
ATOM     26  C   UNL     1       5.727   5.250  19.360  0.00  0.00    +0.000 C 
ATOM     27  C   UNL     1       4.349   5.300  18.632  0.00  0.00    +0.000 C 
ATOM     28  C   UNL     1       4.180   6.664  17.922  0.00  0.00    +0.000 C 
ENDBRANCH  13  14
ENDBRANCH  12  13
ENDBRANCH   6  12
BRANCH   7  29
ATOM     29  C   UNL     1       0.669  10.261  21.768  0.00  0.00    +0.000 C 
BRANCH  29  30
ATOM     30  C   UNL     1      -0.342  10.425  22.915  0.00  0.00    +0.000 C 
BRANCH  30  31
ATOM     31  C   UNL     1      -1.083  11.740  22.817  0.00  0.00    +0.000 C 
ATOM     32  O   UNL     1      -2.226  11.880  22.408  0.00  0.00    +0.000 OA
BRANCH  31  33
ATOM     33  O   UNL     1      -0.330  12.779  23.252  0.00  0.00    +0.000 OA
ATOM     34  H   UNL     1       0.258  13.146  22.585  0.00  0.00    +0.000 HD
ENDBRANCH  31  33
ENDBRANCH  30  31
ENDBRANCH  29  30
ENDBRANCH   7  29
TORSDOF 8
ENDMDL
