MODEL 1
REMARK VINA RESULT:      -8.2      0.000      0.000
REMARK  Name = 
REMARK  7 active torsions:
REMARK  status: ('A' for Active; 'I' for Inactive)
REMARK    1  A    between atoms: C_1  and  C_2
REMARK    2  A    between atoms: C_6  and  N_7
REMARK    3  A    between atoms: C_8  and  C_10
REMARK    4  A    between atoms: C_10  and  N_11
REMARK    5  A    between atoms: C_16  and  C_17
REMARK    6  A    between atoms: C_20  and  O_21
REMARK    7  A    between atoms: C_22  and  N_23
REMARK                            x       y       z     vdW  Elec       q    Type
REMARK                         _______ _______ _______ _____ _____    ______ ____
ROOT
ATOM      1  N   UNL     1       0.829   9.603  19.407  0.00  0.00    +0.000 N 
ATOM      2  C   UNL     1       0.639   9.073  20.650  0.00  0.00    +0.000 C 
ATOM      3  O   UNL     1      -0.001   9.579  21.563  0.00  0.00    +0.000 OA
ATOM      4  S   UNL     1       1.486   7.575  20.813  0.00  0.00    +0.000 S 
ATOM      5  C   UNL     1       2.216   7.679  19.220  0.00  0.00    +0.000 C 
ATOM      6  C   UNL     1       3.092   6.692  18.934  0.00  0.00    +0.000 C 
ATOM      7  C   UNL     1       1.707   8.940  18.561  0.00  0.00    +0.000 C 
ATOM      8  O   UNL     1       2.056   9.319  17.451  0.00  0.00    +0.000 OA
ENDROOT
BRANCH   6   9
ATOM      9  C   UNL     1       4.117   6.309  17.940  0.00  0.00    +0.000 A 
ATOM     10  C   UNL     1       4.164   6.710  16.604  0.00  0.00    +0.000 A 
ATOM     11  C   UNL     1       5.335   6.511  15.836  0.00  0.00    +0.000 A 
ATOM     12  C   UNL     1       6.467   5.913  16.393  0.00  0.00    +0.000 A 
ATOM     13  C   UNL     1       6.400   5.464  17.700  0.00  0.00    +0.000 A 
ATOM     14  C   UNL     1       5.244   5.644  18.469  0.00  0.00    +0.000 A 
BRANCH  13  15
ATOM     15  N   UNL     1       7.558   4.897  18.351  0.00  0.00    +0.000 N 
ATOM     16  O   UNL     1       7.839   5.297  19.492  0.00  0.00    +0.000 OA
ATOM     17  O   UNL     1       8.244   4.099  17.694  0.00  0.00    +0.000 OA
ENDBRANCH  13  15
BRANCH  12  18
ATOM     18  O   UNL     1       7.628   5.820  15.685  0.00  0.00    +0.000 OA
ATOM     19  H   UNL     1       7.631   6.462  14.956  0.00  0.00    +0.000 HD
ENDBRANCH  12  18
ENDBRANCH   6   9
BRANCH   1  20
ATOM     20  C   UNL     1       0.058  10.811  19.082  0.00  0.00    +0.000 C 
BRANCH  20  22
ATOM     21  N   UNL     1       1.593  12.603  18.343  0.00  0.00    +0.000 N 
ATOM     22  C   UNL     1       0.873  12.082  19.421  0.00  0.00    +0.000 C 
ATOM     23  O   UNL     1       0.834  12.554  20.556  0.00  0.00    +0.000 OA
ATOM     24  H   UNL     1       1.604  12.077  17.480  0.00  0.00    +0.000 HD
BRANCH  21  30
ATOM     25  C   UNL     1       6.029  14.820  17.832  0.00  0.00    +0.000 C 
ATOM     26  C   UNL     1       4.544  14.902  18.054  0.00  0.00    +0.000 A 
ATOM     27  C   UNL     1       3.935  16.153  18.186  0.00  0.00    +0.000 A 
ATOM     28  C   UNL     1       2.562  16.237  18.389  0.00  0.00    +0.000 A 
ATOM     29  C   UNL     1       1.782  15.078  18.459  0.00  0.00    +0.000 A 
ATOM     30  C   UNL     1       2.352  13.812  18.324  0.00  0.00    +0.000 A 
ATOM     31  C   UNL     1       3.747  13.734  18.131  0.00  0.00    +0.000 A 
ENDBRANCH  21  30
ENDBRANCH  20  22
ENDBRANCH   1  20
TORSDOF 6
ENDMDL
MODEL 2
REMARK VINA RESULT:      -8.2      3.531      5.334
REMARK  Name = 
REMARK  7 active torsions:
REMARK  status: ('A' for Active; 'I' for Inactive)
REMARK    1  A    between atoms: C_1  and  C_2
REMARK    2  A    between atoms: C_6  and  N_7
REMARK    3  A    between atoms: C_8  and  C_10
REMARK    4  A    between atoms: C_10  and  N_11
REMARK    5  A    between atoms: C_16  and  C_17
REMARK    6  A    between atoms: C_20  and  O_21
REMARK    7  A    between atoms: C_22  and  N_23
REMARK                            x       y       z     vdW  Elec       q    Type
REMARK                         _______ _______ _______ _____ _____    ______ ____
ROOT
ATOM      1  N   UNL     1       1.208  10.889  19.923  0.00  0.00    +0.000 N 
ATOM      2  C   UNL     1       0.857  11.020  21.234  0.00  0.00    +0.000 C 
ATOM      3  O   UNL     1       0.689  12.071  21.839  0.00  0.00    +0.000 OA
ATOM      4  S   UNL     1       0.728   9.470  21.990  0.00  0.00    +0.000 S 
ATOM      5  C   UNL     1       1.257   8.598  20.561  0.00  0.00    +0.000 C 
ATOM      6  C   UNL     1       1.403   7.267  20.732  0.00  0.00    +0.000 C 
ATOM      7  C   UNL     1       1.491   9.611  19.463  0.00  0.00    +0.000 C 
ATOM      8  O   UNL     1       1.900   9.325  18.346  0.00  0.00    +0.000 OA
ENDROOT
BRANCH   6   9
ATOM      9  C   UNL     1       1.951   6.070  20.062  0.00  0.00    +0.000 A 
ATOM     10  C   UNL     1       2.607   6.038  18.830  0.00  0.00    +0.000 A 
ATOM     11  C   UNL     1       3.329   4.889  18.431  0.00  0.00    +0.000 A 
ATOM     12  C   UNL     1       3.404   3.765  19.255  0.00  0.00    +0.000 A 
ATOM     13  C   UNL     1       2.705   3.774  20.450  0.00  0.00    +0.000 A 
ATOM     14  C   UNL     1       1.978   4.900  20.854  0.00  0.00    +0.000 A 
BRANCH  13  15
ATOM     15  N   UNL     1       2.797   2.668  21.374  0.00  0.00    +0.000 N 
ATOM     16  O   UNL     1       3.890   2.088  21.481  0.00  0.00    +0.000 OA
ATOM     17  O   UNL     1       1.753   2.319  21.946  0.00  0.00    +0.000 OA
ENDBRANCH  13  15
BRANCH  12  18
ATOM     18  O   UNL     1       4.187   2.701  18.919  0.00  0.00    +0.000 OA
ATOM     19  H   UNL     1       4.329   2.129  19.691  0.00  0.00    +0.000 HD
ENDBRANCH  12  18
ENDBRANCH   6   9
BRANCH   1  20
ATOM     20  C   UNL     1       1.223  12.122  19.121  0.00  0.00    +0.000 C 
BRANCH  20  22
ATOM     21  N   UNL     1      -0.823  11.315  17.992  0.00  0.00    +0.000 N 
ATOM     22  C   UNL     1      -0.188  12.421  18.561  0.00  0.00    +0.000 C 
ATOM     23  O   UNL     1      -0.661  13.552  18.657  0.00  0.00    +0.000 OA
ATOM     24  H   UNL     1      -0.296  10.456  17.905  0.00  0.00    +0.000 HD
BRANCH  21  30
ATOM     25  C   UNL     1      -3.905  10.051  14.283  0.00  0.00    +0.000 C 
ATOM     26  C   UNL     1      -3.676  10.617  15.657  0.00  0.00    +0.000 A 
ATOM     27  C   UNL     1      -4.770  11.027  16.425  0.00  0.00    +0.000 A 
ATOM     28  C   UNL     1      -4.566  11.549  17.697  0.00  0.00    +0.000 A 
ATOM     29  C   UNL     1      -3.273  11.664  18.219  0.00  0.00    +0.000 A 
ATOM     30  C   UNL     1      -2.158  11.259  17.487  0.00  0.00    +0.000 A 
ATOM     31  C   UNL     1      -2.371  10.742  16.192  0.00  0.00    +0.000 A 
ENDBRANCH  21  30
ENDBRANCH  20  22
ENDBRANCH   1  20
TORSDOF 6
ENDMDL
MODEL 3
REMARK VINA RESULT:      -8.1      2.965      4.966
REMARK  Name = 
REMARK  7 active torsions:
REMARK  status: ('A' for Active; 'I' for Inactive)
REMARK    1  A    between atoms: C_1  and  C_2
REMARK    2  A    between atoms: C_6  and  N_7
REMARK    3  A    between atoms: C_8  and  C_10
REMARK    4  A    between atoms: C_10  and  N_11
REMARK    5  A    between atoms: C_16  and  C_17
REMARK    6  A    between atoms: C_20  and  O_21
REMARK    7  A    between atoms: C_22  and  N_23
REMARK                            x       y       z     vdW  Elec       q    Type
REMARK                         _______ _______ _______ _____ _____    ______ ____
ROOT
ATOM      1  N   UNL     1       1.341  10.188  19.806  0.00  0.00    +0.000 N 
ATOM      2  C   UNL     1       0.849  10.375  21.065  0.00  0.00    +0.000 C 
ATOM      3  O   UNL     1       0.614  11.451  21.599  0.00  0.00    +0.000 OA
ATOM      4  S   UNL     1       0.642   8.860  21.873  0.00  0.00    +0.000 S 
ATOM      5  C   UNL     1       1.324   7.928  20.550  0.00  0.00    +0.000 C 
ATOM      6  C   UNL     1       1.453   6.607  20.797  0.00  0.00    +0.000 C 
ATOM      7  C   UNL     1       1.674   8.891  19.439  0.00  0.00    +0.000 C 
ATOM      8  O   UNL     1       2.202   8.558  18.387  0.00  0.00    +0.000 OA
ENDROOT
BRANCH   6   9
ATOM      9  C   UNL     1       2.073   5.384  20.246  0.00  0.00    +0.000 A 
ATOM     10  C   UNL     1       1.402   4.235  19.822  0.00  0.00    +0.000 A 
ATOM     11  C   UNL     1       2.074   3.253  19.057  0.00  0.00    +0.000 A 
ATOM     12  C   UNL     1       3.417   3.408  18.708  0.00  0.00    +0.000 A 
ATOM     13  C   UNL     1       4.097   4.519  19.177  0.00  0.00    +0.000 A 
ATOM     14  C   UNL     1       3.448   5.494  19.944  0.00  0.00    +0.000 A 
BRANCH  13  15
ATOM     15  N   UNL     1       5.467   4.766  18.796  0.00  0.00    +0.000 N 
ATOM     16  O   UNL     1       6.277   5.056  19.691  0.00  0.00    +0.000 OA
ATOM     17  O   UNL     1       5.730   4.748  17.584  0.00  0.00    +0.000 OA
ENDBRANCH  13  15
BRANCH  12  18
ATOM     18  O   UNL     1       4.032   2.516  17.882  0.00  0.00    +0.000 OA
ATOM     19  H   UNL     1       4.332   2.959  17.071  0.00  0.00    +0.000 HD
ENDBRANCH  12  18
ENDBRANCH   6   9
BRANCH   1  20
ATOM     20  C   UNL     1       1.440  11.382  18.956  0.00  0.00    +0.000 C 
BRANCH  20  22
ATOM     21  N   UNL     1      -0.753  10.884  17.928  0.00  0.00    +0.000 N 
ATOM     22  C   UNL     1       0.032  11.868  18.536  0.00  0.00    +0.000 C 
ATOM     23  O   UNL     1      -0.314  13.026  18.762  0.00  0.00    +0.000 OA
ATOM     24  H   UNL     1      -0.325   9.990  17.729  0.00  0.00    +0.000 HD
BRANCH  21  30
ATOM     25  C   UNL     1      -5.448  12.038  19.146  0.00  0.00    +0.000 C 
ATOM     26  C   UNL     1      -4.432  11.592  18.131  0.00  0.00    +0.000 A 
ATOM     27  C   UNL     1      -4.833  11.355  16.813  0.00  0.00    +0.000 A 
ATOM     28  C   UNL     1      -3.899  10.945  15.868  0.00  0.00    +0.000 A 
ATOM     29  C   UNL     1      -2.558  10.771  16.224  0.00  0.00    +0.000 A 
ATOM     30  C   UNL     1      -2.118  11.005  17.526  0.00  0.00    +0.000 A 
ATOM     31  C   UNL     1      -3.073  11.408  18.483  0.00  0.00    +0.000 A 
ENDBRANCH  21  30
ENDBRANCH  20  22
ENDBRANCH   1  20
TORSDOF 6
ENDMDL
MODEL 4
REMARK VINA RESULT:      -8.0      3.127      4.819
REMARK  Name = 
REMARK  7 active torsions:
REMARK  status: ('A' for Active; 'I' for Inactive)
REMARK    1  A    between atoms: C_1  and  C_2
REMARK    2  A    between atoms: C_6  and  N_7
REMARK    3  A    between atoms: C_8  and  C_10
REMARK    4  A    between atoms: C_10  and  N_11
REMARK    5  A    between atoms: C_16  and  C_17
REMARK    6  A    between atoms: C_20  and  O_21
REMARK    7  A    between atoms: C_22  and  N_23
REMARK                            x       y       z     vdW  Elec       q    Type
REMARK                         _______ _______ _______ _____ _____    ______ ____
ROOT
ATOM      1  N   UNL     1       0.971  10.771  20.425  0.00  0.00    +0.000 N 
ATOM      2  C   UNL     1       0.695  10.268  21.662  0.00  0.00    +0.000 C 
ATOM      3  O   UNL     1       0.353  10.911  22.646  0.00  0.00    +0.000 OA
ATOM      4  S   UNL     1       0.949   8.558  21.699  0.00  0.00    +0.000 S 
ATOM      5  C   UNL     1       1.546   8.493  20.049  0.00  0.00    +0.000 C 
ATOM      6  C   UNL     1       1.980   7.278  19.653  0.00  0.00    +0.000 C 
ATOM      7  C   UNL     1       1.482   9.892  19.480  0.00  0.00    +0.000 C 
ATOM      8  O   UNL     1       1.862  10.190  18.355  0.00  0.00    +0.000 OA
ENDROOT
BRANCH   6   9
ATOM      9  C   UNL     1       2.719   6.616  18.557  0.00  0.00    +0.000 A 
ATOM     10  C   UNL     1       3.712   7.192  17.762  0.00  0.00    +0.000 A 
ATOM     11  C   UNL     1       4.535   6.383  16.944  0.00  0.00    +0.000 A 
ATOM     12  C   UNL     1       4.376   4.997  16.912  0.00  0.00    +0.000 A 
ATOM     13  C   UNL     1       3.354   4.432  17.656  0.00  0.00    +0.000 A 
ATOM     14  C   UNL     1       2.525   5.221  18.461  0.00  0.00    +0.000 A 
BRANCH  13  15
ATOM     15  N   UNL     1       3.182   2.999  17.714  0.00  0.00    +0.000 N 
ATOM     16  O   UNL     1       2.168   2.513  17.188  0.00  0.00    +0.000 OA
ATOM     17  O   UNL     1       4.025   2.353  18.356  0.00  0.00    +0.000 OA
ENDBRANCH  13  15
BRANCH  12  18
ATOM     18  O   UNL     1       5.239   4.210  16.208  0.00  0.00    +0.000 OA
ATOM     19  H   UNL     1       5.276   4.496  15.281  0.00  0.00    +0.000 HD
ENDBRANCH  12  18
ENDBRANCH   6   9
BRANCH   1  20
ATOM     20  C   UNL     1       0.669  12.193  20.211  0.00  0.00    +0.000 C 
BRANCH  20  22
ATOM     21  N   UNL     1      -1.426  11.455  19.125  0.00  0.00    +0.000 N 
ATOM     22  C   UNL     1      -0.365  12.363  19.073  0.00  0.00    +0.000 C 
ATOM     23  O   UNL     1      -0.220  13.252  18.236  0.00  0.00    +0.000 OA
ATOM     24  H   UNL     1      -1.390  10.721  19.820  0.00  0.00    +0.000 HD
BRANCH  21  30
ATOM     25  C   UNL     1      -3.416  10.251  14.716  0.00  0.00    +0.000 C 
ATOM     26  C   UNL     1      -3.554  10.816  16.103  0.00  0.00    +0.000 A 
ATOM     27  C   UNL     1      -4.805  11.254  16.546  0.00  0.00    +0.000 A 
ATOM     28  C   UNL     1      -4.942  11.775  17.828  0.00  0.00    +0.000 A 
ATOM     29  C   UNL     1      -3.837  11.862  18.681  0.00  0.00    +0.000 A 
ATOM     30  C   UNL     1      -2.574  11.429  18.277  0.00  0.00    +0.000 A 
ATOM     31  C   UNL     1      -2.441  10.913  16.971  0.00  0.00    +0.000 A 
ENDBRANCH  21  30
ENDBRANCH  20  22
ENDBRANCH   1  20
TORSDOF 6
ENDMDL
MODEL 5
REMARK VINA RESULT:      -8.0      3.225      5.006
REMARK  Name = 
REMARK  7 active torsions:
REMARK  status: ('A' for Active; 'I' for Inactive)
REMARK    1  A    between atoms: C_1  and  C_2
REMARK    2  A    between atoms: C_6  and  N_7
REMARK    3  A    between atoms: C_8  and  C_10
REMARK    4  A    between atoms: C_10  and  N_11
REMARK    5  A    between atoms: C_16  and  C_17
REMARK    6  A    between atoms: C_20  and  O_21
REMARK    7  A    between atoms: C_22  and  N_23
REMARK                            x       y       z     vdW  Elec       q    Type
REMARK                         _______ _______ _______ _____ _____    ______ ____
ROOT
ATOM      1  N   UNL     1       1.321  10.790  19.436  0.00  0.00    +0.000 N 
ATOM      2  C   UNL     1       0.968  10.493  20.719  0.00  0.00    +0.000 C 
ATOM      3  O   UNL     1       0.619  11.292  21.578  0.00  0.00    +0.000 OA
ATOM      4  S   UNL     1       1.130   8.798  21.022  0.00  0.00    +0.000 S 
ATOM      5  C   UNL     1       1.791   8.458  19.431  0.00  0.00    +0.000 C 
ATOM      6  C   UNL     1       2.178   7.179  19.242  0.00  0.00    +0.000 C 
ATOM      7  C   UNL     1       1.825   9.756  18.659  0.00  0.00    +0.000 C 
ATOM      8  O   UNL     1       2.266   9.863  17.522  0.00  0.00    +0.000 OA
ENDROOT
BRANCH   6   9
ATOM      9  C   UNL     1       2.925   6.326  18.294  0.00  0.00    +0.000 A 
ATOM     10  C   UNL     1       4.023   6.712  17.523  0.00  0.00    +0.000 A 
ATOM     11  C   UNL     1       4.822   5.741  16.875  0.00  0.00    +0.000 A 
ATOM     12  C   UNL     1       4.534   4.380  16.990  0.00  0.00    +0.000 A 
ATOM     13  C   UNL     1       3.412   4.001  17.707  0.00  0.00    +0.000 A 
ATOM     14  C   UNL     1       2.606   4.952  18.346  0.00  0.00    +0.000 A 
BRANCH  13  15
ATOM     15  N   UNL     1       3.100   2.607  17.917  0.00  0.00    +0.000 N 
ATOM     16  O   UNL     1       2.070   2.155  17.391  0.00  0.00    +0.000 OA
ATOM     17  O   UNL     1       3.845   1.967  18.675  0.00  0.00    +0.000 OA
ENDBRANCH  13  15
BRANCH  12  18
ATOM     18  O   UNL     1       5.365   3.441  16.455  0.00  0.00    +0.000 OA
ATOM     19  H   UNL     1       6.150   3.865  16.072  0.00  0.00    +0.000 HD
ENDBRANCH  12  18
ENDBRANCH   6   9
BRANCH   1  20
ATOM     20  C   UNL     1       1.104  12.177  18.998  0.00  0.00    +0.000 C 
BRANCH  20  22
ATOM     21  N   UNL     1      -1.003  11.489  17.902  0.00  0.00    +0.000 N 
ATOM     22  C   UNL     1      -0.399  12.433  18.737  0.00  0.00    +0.000 C 
ATOM     23  O   UNL     1      -0.962  13.392  19.262  0.00  0.00    +0.000 OA
ATOM     24  H   UNL     1      -0.413  10.790  17.470  0.00  0.00    +0.000 HD
BRANCH  21  30
ATOM     25  C   UNL     1      -5.758  11.837  19.359  0.00  0.00    +0.000 C 
ATOM     26  C   UNL     1      -4.733  11.596  18.285  0.00  0.00    +0.000 A 
ATOM     27  C   UNL     1      -5.154  11.348  16.976  0.00  0.00    +0.000 A 
ATOM     28  C   UNL     1      -4.213  11.126  15.976  0.00  0.00    +0.000 A 
ATOM     29  C   UNL     1      -2.846  11.154  16.269  0.00  0.00    +0.000 A 
ATOM     30  C   UNL     1      -2.387  11.406  17.562  0.00  0.00    +0.000 A 
ATOM     31  C   UNL     1      -3.348  11.617  18.573  0.00  0.00    +0.000 A 
ENDBRANCH  21  30
ENDBRANCH  20  22
ENDBRANCH   1  20
TORSDOF 6
ENDMDL
MODEL 6
REMARK VINA RESULT:      -8.0      3.034      5.037
REMARK  Name = 
REMARK  7 active torsions:
REMARK  status: ('A' for Active; 'I' for Inactive)
REMARK    1  A    between atoms: C_1  and  C_2
REMARK    2  A    between atoms: C_6  and  N_7
REMARK    3  A    between atoms: C_8  and  C_10
REMARK    4  A    between atoms: C_10  and  N_11
REMARK    5  A    between atoms: C_16  and  C_17
REMARK    6  A    between atoms: C_20  and  O_21
REMARK    7  A    between atoms: C_22  and  N_23
REMARK                            x       y       z     vdW  Elec       q    Type
REMARK                         _______ _______ _______ _____ _____    ______ ____
ROOT
ATOM      1  N   UNL     1       1.117   9.641  19.118  0.00  0.00    +0.000 N 
ATOM      2  C   UNL     1       0.824   9.581  20.449  0.00  0.00    +0.000 C 
ATOM      3  O   UNL     1       0.309  10.468  21.118  0.00  0.00    +0.000 OA
ATOM      4  S   UNL     1       1.335   8.072  21.121  0.00  0.00    +0.000 S 
ATOM      5  C   UNL     1       2.064   7.518  19.623  0.00  0.00    +0.000 C 
ATOM      6  C   UNL     1       2.711   6.337  19.713  0.00  0.00    +0.000 C 
ATOM      7  C   UNL     1       1.831   8.582  18.575  0.00  0.00    +0.000 C 
ATOM      8  O   UNL     1       2.248   8.513  17.427  0.00  0.00    +0.000 OA
ENDROOT
BRANCH   6   9
ATOM      9  C   UNL     1       3.628   5.461  18.953  0.00  0.00    +0.000 A 
ATOM     10  C   UNL     1       3.578   4.068  18.888  0.00  0.00    +0.000 A 
ATOM     11  C   UNL     1       4.324   3.367  17.912  0.00  0.00    +0.000 A 
ATOM     12  C   UNL     1       5.124   4.049  16.993  0.00  0.00    +0.000 A 
ATOM     13  C   UNL     1       5.219   5.426  17.095  0.00  0.00    +0.000 A 
ATOM     14  C   UNL     1       4.495   6.132  18.062  0.00  0.00    +0.000 A 
BRANCH  13  15
ATOM     15  N   UNL     1       5.979   6.191  16.134  0.00  0.00    +0.000 N 
ATOM     16  O   UNL     1       5.352   6.868  15.303  0.00  0.00    +0.000 OA
ATOM     17  O   UNL     1       7.212   6.061  16.154  0.00  0.00    +0.000 OA
ENDBRANCH  13  15
BRANCH  12  18
ATOM     18  O   UNL     1       5.757   3.382  15.987  0.00  0.00    +0.000 OA
ATOM     19  H   UNL     1       5.860   3.959  15.213  0.00  0.00    +0.000 HD
ENDBRANCH  12  18
ENDBRANCH   6   9
BRANCH   1  20
ATOM     20  C   UNL     1       0.617  10.815  18.387  0.00  0.00    +0.000 C 
BRANCH  20  22
ATOM     21  N   UNL     1      -1.712  11.581  18.709  0.00  0.00    +0.000 N 
ATOM     22  C   UNL     1      -0.888  10.653  18.067  0.00  0.00    +0.000 C 
ATOM     23  O   UNL     1      -1.262   9.776  17.290  0.00  0.00    +0.000 OA
ATOM     24  H   UNL     1      -1.289  12.204  19.385  0.00  0.00    +0.000 HD
BRANCH  21  30
ATOM     25  C   UNL     1      -6.090  12.992  20.631  0.00  0.00    +0.000 C 
ATOM     26  C   UNL     1      -5.276  12.457  19.485  0.00  0.00    +0.000 A 
ATOM     27  C   UNL     1      -5.902  12.180  18.266  0.00  0.00    +0.000 A 
ATOM     28  C   UNL     1      -5.156  11.687  17.201  0.00  0.00    +0.000 A 
ATOM     29  C   UNL     1      -3.781  11.471  17.337  0.00  0.00    +0.000 A 
ATOM     30  C   UNL     1      -3.120  11.743  18.535  0.00  0.00    +0.000 A 
ATOM     31  C   UNL     1      -3.885  12.230  19.614  0.00  0.00    +0.000 A 
ENDBRANCH  21  30
ENDBRANCH  20  22
ENDBRANCH   1  20
TORSDOF 6
ENDMDL
MODEL 7
REMARK VINA RESULT:      -7.9      3.791      9.239
REMARK  Name = 
REMARK  7 active torsions:
REMARK  status: ('A' for Active; 'I' for Inactive)
REMARK    1  A    between atoms: C_1  and  C_2
REMARK    2  A    between atoms: C_6  and  N_7
REMARK    3  A    between atoms: C_8  and  C_10
REMARK    4  A    between atoms: C_10  and  N_11
REMARK    5  A    between atoms: C_16  and  C_17
REMARK    6  A    between atoms: C_20  and  O_21
REMARK    7  A    between atoms: C_22  and  N_23
REMARK                            x       y       z     vdW  Elec       q    Type
REMARK                         _______ _______ _______ _____ _____    ______ ____
ROOT
ATOM      1  N   UNL     1       3.928   4.152  19.059  0.00  0.00    +0.000 N 
ATOM      2  C   UNL     1       3.051   3.210  19.512  0.00  0.00    +0.000 C 
ATOM      3  O   UNL     1       3.105   2.007  19.295  0.00  0.00    +0.000 OA
ATOM      4  S   UNL     1       1.773   3.946  20.414  0.00  0.00    +0.000 S 
ATOM      5  C   UNL     1       2.340   5.580  20.109  0.00  0.00    +0.000 C 
ATOM      6  C   UNL     1       1.537   6.555  20.584  0.00  0.00    +0.000 C 
ATOM      7  C   UNL     1       3.610   5.483  19.296  0.00  0.00    +0.000 C 
ATOM      8  O   UNL     1       4.237   6.452  18.889  0.00  0.00    +0.000 OA
ENDROOT
BRANCH   6   9
ATOM      9  C   UNL     1       1.331   8.017  20.517  0.00  0.00    +0.000 A 
ATOM     10  C   UNL     1       1.475   8.823  19.386  0.00  0.00    +0.000 A 
ATOM     11  C   UNL     1       0.980  10.148  19.381  0.00  0.00    +0.000 A 
ATOM     12  C   UNL     1       0.339  10.680  20.501  0.00  0.00    +0.000 A 
ATOM     13  C   UNL     1       0.248   9.901  21.642  0.00  0.00    +0.000 A 
ATOM     14  C   UNL     1       0.743   8.591  21.665  0.00  0.00    +0.000 A 
BRANCH  13  15
ATOM     15  N   UNL     1      -0.461  10.372  22.808  0.00  0.00    +0.000 N 
ATOM     16  O   UNL     1      -1.413  11.150  22.636  0.00  0.00    +0.000 OA
ATOM     17  O   UNL     1      -0.023  10.026  23.916  0.00  0.00    +0.000 OA
ENDBRANCH  13  15
BRANCH  12  18
ATOM     18  O   UNL     1      -0.232  11.917  20.458  0.00  0.00    +0.000 OA
ATOM     19  H   UNL     1      -1.018  11.945  21.028  0.00  0.00    +0.000 HD
ENDBRANCH  12  18
ENDBRANCH   6   9
BRANCH   1  20
ATOM     20  C   UNL     1       5.138   3.656  18.389  0.00  0.00    +0.000 C 
BRANCH  20  22
ATOM     21  N   UNL     1       6.333   3.962  16.246  0.00  0.00    +0.000 N 
ATOM     22  C   UNL     1       5.085   3.964  16.874  0.00  0.00    +0.000 C 
ATOM     23  O   UNL     1       4.003   4.166  16.324  0.00  0.00    +0.000 OA
ATOM     24  H   UNL     1       7.156   3.859  16.825  0.00  0.00    +0.000 HD
BRANCH  21  30
ATOM     25  C   UNL     1       5.304   2.582  11.568  0.00  0.00    +0.000 C 
ATOM     26  C   UNL     1       6.064   3.440  12.541  0.00  0.00    +0.000 A 
ATOM     27  C   UNL     1       6.963   4.396  12.060  0.00  0.00    +0.000 A 
ATOM     28  C   UNL     1       7.669   5.194  12.953  0.00  0.00    +0.000 A 
ATOM     29  C   UNL     1       7.483   5.052  14.332  0.00  0.00    +0.000 A 
ATOM     30  C   UNL     1       6.590   4.115  14.850  0.00  0.00    +0.000 A 
ATOM     31  C   UNL     1       5.887   3.300  13.938  0.00  0.00    +0.000 A 
ENDBRANCH  21  30
ENDBRANCH  20  22
ENDBRANCH   1  20
TORSDOF 6
ENDMDL
MODEL 8
REMARK VINA RESULT:      -7.8      3.931      5.807
REMARK  Name = 
REMARK  7 active torsions:
REMARK  status: ('A' for Active; 'I' for Inactive)
REMARK    1  A    between atoms: C_1  and  C_2
REMARK    2  A    between atoms: C_6  and  N_7
REMARK    3  A    between atoms: C_8  and  C_10
REMARK    4  A    between atoms: C_10  and  N_11
REMARK    5  A    between atoms: C_16  and  C_17
REMARK    6  A    between atoms: C_20  and  O_21
REMARK    7  A    between atoms: C_22  and  N_23
REMARK                            x       y       z     vdW  Elec       q    Type
REMARK                         _______ _______ _______ _____ _____    ______ ____
ROOT
ATOM      1  N   UNL     1       0.050  10.684  19.451  0.00  0.00    +0.000 N 
ATOM      2  C   UNL     1       0.113  10.772  20.811  0.00  0.00    +0.000 C 
ATOM      3  O   UNL     1      -0.274  11.711  21.495  0.00  0.00    +0.000 OA
ATOM      4  S   UNL     1       0.884   9.376  21.479  0.00  0.00    +0.000 S 
ATOM      5  C   UNL     1       1.241   8.677  19.909  0.00  0.00    +0.000 C 
ATOM      6  C   UNL     1       1.971   7.542  19.949  0.00  0.00    +0.000 C 
ATOM      7  C   UNL     1       0.674   9.598  18.854  0.00  0.00    +0.000 C 
ATOM      8  O   UNL     1       0.786   9.409  17.650  0.00  0.00    +0.000 OA
ENDROOT
BRANCH   6   9
ATOM      9  C   UNL     1       2.721   6.619  19.071  0.00  0.00    +0.000 A 
ATOM     10  C   UNL     1       3.431   6.966  17.920  0.00  0.00    +0.000 A 
ATOM     11  C   UNL     1       4.333   6.050  17.330  0.00  0.00    +0.000 A 
ATOM     12  C   UNL     1       4.535   4.784  17.882  0.00  0.00    +0.000 A 
ATOM     13  C   UNL     1       3.788   4.419  18.989  0.00  0.00    +0.000 A 
ATOM     14  C   UNL     1       2.884   5.311  19.577  0.00  0.00    +0.000 A 
BRANCH  13  15
ATOM     15  N   UNL     1       4.000   3.149  19.642  0.00  0.00    +0.000 N 
ATOM     16  O   UNL     1       3.002   2.472  19.937  0.00  0.00    +0.000 OA
ATOM     17  O   UNL     1       5.168   2.851  19.936  0.00  0.00    +0.000 OA
ENDBRANCH  13  15
BRANCH  12  18
ATOM     18  O   UNL     1       5.483   3.944  17.377  0.00  0.00    +0.000 OA
ATOM     19  H   UNL     1       6.194   3.810  18.025  0.00  0.00    +0.000 HD
ENDBRANCH  12  18
ENDBRANCH   6   9
BRANCH   1  20
ATOM     20  C   UNL     1      -0.702  11.741  18.759  0.00  0.00    +0.000 C 
BRANCH  20  22
ATOM     21  N   UNL     1      -3.104  12.156  19.170  0.00  0.00    +0.000 N 
ATOM     22  C   UNL     1      -2.175  11.314  18.554  0.00  0.00    +0.000 C 
ATOM     23  O   UNL     1      -2.440  10.320  17.881  0.00  0.00    +0.000 OA
ATOM     24  H   UNL     1      -2.755  12.898  19.762  0.00  0.00    +0.000 HD
BRANCH  21  30
ATOM     25  C   UNL     1      -7.526  12.406  21.460  0.00  0.00    +0.000 C 
ATOM     26  C   UNL     1      -6.708  12.217  20.212  0.00  0.00    +0.000 A 
ATOM     27  C   UNL     1      -7.354  12.018  18.989  0.00  0.00    +0.000 A 
ATOM     28  C   UNL     1      -6.605  11.844  17.830  0.00  0.00    +0.000 A 
ATOM     29  C   UNL     1      -5.207  11.872  17.877  0.00  0.00    +0.000 A 
ATOM     30  C   UNL     1      -4.527  12.075  19.078  0.00  0.00    +0.000 A 
ATOM     31  C   UNL     1      -5.293  12.238  20.251  0.00  0.00    +0.000 A 
ENDBRANCH  21  30
ENDBRANCH  20  22
ENDBRANCH   1  20
TORSDOF 6
ENDMDL
MODEL 9
REMARK VINA RESULT:      -7.8      0.601      1.570
REMARK  Name = 
REMARK  7 active torsions:
REMARK  status: ('A' for Active; 'I' for Inactive)
REMARK    1  A    between atoms: C_1  and  C_2
REMARK    2  A    between atoms: C_6  and  N_7
REMARK    3  A    between atoms: C_8  and  C_10
REMARK    4  A    between atoms: C_10  and  N_11
REMARK    5  A    between atoms: C_16  and  C_17
REMARK    6  A    between atoms: C_20  and  O_21
REMARK    7  A    between atoms: C_22  and  N_23
REMARK                            x       y       z     vdW  Elec       q    Type
REMARK                         _______ _______ _______ _____ _____    ______ ____
ROOT
ATOM      1  N   UNL     1       0.737   9.814  19.502  0.00  0.00    +0.000 N 
ATOM      2  C   UNL     1       0.452   9.268  20.719  0.00  0.00    +0.000 C 
ATOM      3  O   UNL     1      -0.215   9.784  21.606  0.00  0.00    +0.000 OA
ATOM      4  S   UNL     1       1.220   7.729  20.895  0.00  0.00    +0.000 S 
ATOM      5  C   UNL     1       2.044   7.832  19.348  0.00  0.00    +0.000 C 
ATOM      6  C   UNL     1       2.890   6.812  19.090  0.00  0.00    +0.000 C 
ATOM      7  C   UNL     1       1.632   9.129  18.691  0.00  0.00    +0.000 C 
ATOM      8  O   UNL     1       2.061   9.514  17.611  0.00  0.00    +0.000 OA
ENDROOT
BRANCH   6   9
ATOM      9  C   UNL     1       3.951   6.402  18.146  0.00  0.00    +0.000 A 
ATOM     10  C   UNL     1       4.033   6.740  16.794  0.00  0.00    +0.000 A 
ATOM     11  C   UNL     1       5.230   6.528  16.072  0.00  0.00    +0.000 A 
ATOM     12  C   UNL     1       6.355   5.979  16.691  0.00  0.00    +0.000 A 
ATOM     13  C   UNL     1       6.256   5.591  18.016  0.00  0.00    +0.000 A 
ATOM     14  C   UNL     1       5.074   5.785  18.740  0.00  0.00    +0.000 A 
BRANCH  13  15
ATOM     15  N   UNL     1       7.403   5.078  18.727  0.00  0.00    +0.000 N 
ATOM     16  O   UNL     1       8.148   4.282  18.134  0.00  0.00    +0.000 OA
ATOM     17  O   UNL     1       7.528   5.410  19.916  0.00  0.00    +0.000 OA
ENDBRANCH  13  15
BRANCH  12  18
ATOM     18  O   UNL     1       7.539   5.875  16.024  0.00  0.00    +0.000 OA
ATOM     19  H   UNL     1       8.281   5.897  16.650  0.00  0.00    +0.000 HD
ENDBRANCH  12  18
ENDBRANCH   6   9
BRANCH   1  20
ATOM     20  C   UNL     1       0.041  11.063  19.162  0.00  0.00    +0.000 C 
BRANCH  20  22
ATOM     21  N   UNL     1       1.274  13.032  18.315  0.00  0.00    +0.000 N 
ATOM     22  C   UNL     1       0.948  12.284  19.449  0.00  0.00    +0.000 C 
ATOM     23  O   UNL     1       1.302  12.531  20.600  0.00  0.00    +0.000 OA
ATOM     24  H   UNL     1       0.983  12.680  17.413  0.00  0.00    +0.000 HD
BRANCH  21  30
ATOM     25  C   UNL     1       1.358  17.950  19.129  0.00  0.00    +0.000 C 
ATOM     26  C   UNL     1       2.045  16.684  18.698  0.00  0.00    +0.000 A 
ATOM     27  C   UNL     1       3.391  16.724  18.322  0.00  0.00    +0.000 A 
ATOM     28  C   UNL     1       4.034  15.557  17.925  0.00  0.00    +0.000 A 
ATOM     29  C   UNL     1       3.346  14.339  17.903  0.00  0.00    +0.000 A 
ATOM     30  C   UNL     1       2.006  14.258  18.278  0.00  0.00    +0.000 A 
ATOM     31  C   UNL     1       1.356  15.447  18.668  0.00  0.00    +0.000 A 
ENDBRANCH  21  30
ENDBRANCH  20  22
ENDBRANCH   1  20
TORSDOF 6
ENDMDL
