MODEL 1
REMARK VINA RESULT:      -6.7      0.000      0.000
REMARK  Name = 
REMARK  4 active torsions:
REMARK  status: ('A' for Active; 'I' for Inactive)
REMARK    1  A    between atoms: C_1  and  C_2
REMARK    2  A    between atoms: C_6  and  C_7
REMARK    3  A    between atoms: C_19  and  C_20
REMARK    4  A    between atoms: C_23  and  C_24
REMARK                            x       y       z     vdW  Elec       q    Type
REMARK                         _______ _______ _______ _____ _____    ______ ____
ROOT
ATOM      1  C   UNL     1       9.273  12.194  22.127  0.00  0.00    +0.000 C 
ATOM      2  C   UNL     1       8.787  13.100  21.010  0.00  0.00    +0.000 C 
ATOM      3  N   UNL     1       7.786  13.873  21.323  0.00  0.00    +0.000 NA
ATOM      4  C   UNL     1       7.283  14.926  20.530  0.00  0.00    +0.000 A 
ATOM      5  C   UNL     1       5.895  15.138  20.494  0.00  0.00    +0.000 A 
ATOM      6  C   UNL     1       5.346  16.276  19.873  0.00  0.00    +0.000 A 
ATOM      7  C   UNL     1       6.205  17.232  19.326  0.00  0.00    +0.000 A 
ATOM      8  C   UNL     1       7.577  17.023  19.316  0.00  0.00    +0.000 A 
ATOM      9  C   UNL     1       8.114  15.898  19.943  0.00  0.00    +0.000 A 
ATOM     10  S   UNL     1       9.888  15.766  20.004  0.00  0.00    +0.000 S 
ATOM     11  C   UNL     1       9.985  14.226  19.096  0.00  0.00    +0.000 A 
ATOM     12  C   UNL     1      10.529  14.213  17.792  0.00  0.00    +0.000 A 
ATOM     13  C   UNL     1      10.912  15.449  17.018  0.00  0.00    +0.000 C 
ATOM     14  C   UNL     1      10.717  12.983  17.152  0.00  0.00    +0.000 A 
ATOM     15  C   UNL     1      10.341  11.797  17.772  0.00  0.00    +0.000 A 
ATOM     16  C   UNL     1       9.720  11.796  19.033  0.00  0.00    +0.000 A 
ATOM     17  C   UNL     1       9.332  10.461  19.603  0.00  0.00    +0.000 C 
ATOM     18  C   UNL     1       9.517  13.031  19.694  0.00  0.00    +0.000 A 
ENDROOT
BRANCH   6  19
ATOM     19  C   UNL     1       3.878  16.529  19.973  0.00  0.00    +0.000 C 
ATOM     20  O   UNL     1       3.400  16.673  21.097  0.00  0.00    +0.000 OA
ATOM     21  N   UNL     1       3.103  16.681  18.831  0.00  0.00    +0.000 N 
ATOM     22  C   UNL     1       3.346  16.264  17.460  0.00  0.00    +0.000 C 
ATOM     23  C   UNL     1       2.602  17.328  16.673  0.00  0.00    +0.000 C 
ATOM     24  C   UNL     1       1.327  17.507  17.492  0.00  0.00    +0.000 C 
ATOM     25  C   UNL     1       1.763  17.241  18.935  0.00  0.00    +0.000 C 
ENDBRANCH   6  19
TORSDOF 1
ENDMDL
MODEL 2
REMARK VINA RESULT:      -6.7      8.630     10.055
REMARK  Name = 
REMARK  4 active torsions:
REMARK  status: ('A' for Active; 'I' for Inactive)
REMARK    1  A    between atoms: C_1  and  C_2
REMARK    2  A    between atoms: C_6  and  C_7
REMARK    3  A    between atoms: C_19  and  C_20
REMARK    4  A    between atoms: C_23  and  C_24
REMARK                            x       y       z     vdW  Elec       q    Type
REMARK                         _______ _______ _______ _____ _____    ______ ____
ROOT
ATOM      1  C   UNL     1       2.352   3.977  21.785  0.00  0.00    +0.000 C 
ATOM      2  C   UNL     1       2.308   4.733  20.470  0.00  0.00    +0.000 C 
ATOM      3  N   UNL     1       1.976   5.990  20.567  0.00  0.00    +0.000 NA
ATOM      4  C   UNL     1       2.049   6.940  19.526  0.00  0.00    +0.000 A 
ATOM      5  C   UNL     1       1.036   7.909  19.427  0.00  0.00    +0.000 A 
ATOM      6  C   UNL     1       1.144   8.988  18.531  0.00  0.00    +0.000 A 
ATOM      7  C   UNL     1       2.302   9.121  17.762  0.00  0.00    +0.000 A 
ATOM      8  C   UNL     1       3.297   8.155  17.816  0.00  0.00    +0.000 A 
ATOM      9  C   UNL     1       3.189   7.093  18.715  0.00  0.00    +0.000 A 
ATOM     10  S   UNL     1       4.563   5.967  18.820  0.00  0.00    +0.000 S 
ATOM     11  C   UNL     1       3.640   4.511  18.338  0.00  0.00    +0.000 A 
ATOM     12  C   UNL     1       3.886   3.906  17.086  0.00  0.00    +0.000 A 
ATOM     13  C   UNL     1       4.784   4.486  16.023  0.00  0.00    +0.000 C 
ATOM     14  C   UNL     1       3.250   2.696  16.784  0.00  0.00    +0.000 A 
ATOM     15  C   UNL     1       2.365   2.117  17.686  0.00  0.00    +0.000 A 
ATOM     16  C   UNL     1       2.042   2.746  18.900  0.00  0.00    +0.000 A 
ATOM     17  C   UNL     1       1.055   2.048  19.791  0.00  0.00    +0.000 C 
ATOM     18  C   UNL     1       2.671   3.974  19.220  0.00  0.00    +0.000 A 
ENDROOT
BRANCH   6  19
ATOM     19  C   UNL     1       0.109  10.064  18.553  0.00  0.00    +0.000 C 
ATOM     20  O   UNL     1      -0.636  10.158  17.579  0.00  0.00    +0.000 OA
ATOM     21  N   UNL     1      -0.058  10.869  19.672  0.00  0.00    +0.000 N 
ATOM     22  C   UNL     1       0.847  11.162  20.771  0.00  0.00    +0.000 C 
ATOM     23  C   UNL     1      -0.118  11.401  21.918  0.00  0.00    +0.000 C 
ATOM     24  C   UNL     1      -1.227  12.206  21.246  0.00  0.00    +0.000 C 
ATOM     25  C   UNL     1      -1.260  11.680  19.809  0.00  0.00    +0.000 C 
ENDBRANCH   6  19
TORSDOF 1
ENDMDL
MODEL 3
REMARK VINA RESULT:      -6.7      8.645     12.488
REMARK  Name = 
REMARK  4 active torsions:
REMARK  status: ('A' for Active; 'I' for Inactive)
REMARK    1  A    between atoms: C_1  and  C_2
REMARK    2  A    between atoms: C_6  and  C_7
REMARK    3  A    between atoms: C_19  and  C_20
REMARK    4  A    between atoms: C_23  and  C_24
REMARK                            x       y       z     vdW  Elec       q    Type
REMARK                         _______ _______ _______ _____ _____    ______ ____
ROOT
ATOM      1  C   UNL     1      -4.687  11.894  17.099  0.00  0.00    +0.000 C 
ATOM      2  C   UNL     1      -4.104  11.732  18.491  0.00  0.00    +0.000 C 
ATOM      3  N   UNL     1      -2.863  11.336  18.527  0.00  0.00    +0.000 NA
ATOM      4  C   UNL     1      -2.047  11.296  19.678  0.00  0.00    +0.000 A 
ATOM      5  C   UNL     1      -1.150  10.226  19.829  0.00  0.00    +0.000 A 
ATOM      6  C   UNL     1      -0.186  10.221  20.854  0.00  0.00    +0.000 A 
ATOM      7  C   UNL     1      -0.094  11.324  21.706  0.00  0.00    +0.000 A 
ATOM      8  C   UNL     1      -0.996  12.374  21.598  0.00  0.00    +0.000 A 
ATOM      9  C   UNL     1      -1.941  12.377  20.572  0.00  0.00    +0.000 A 
ATOM     10  S   UNL     1      -2.977  13.816  20.419  0.00  0.00    +0.000 S 
ATOM     11  C   UNL     1      -4.525  12.951  20.660  0.00  0.00    +0.000 A 
ATOM     12  C   UNL     1      -5.269  13.159  21.843  0.00  0.00    +0.000 A 
ATOM     13  C   UNL     1      -4.782  13.961  23.023  0.00  0.00    +0.000 C 
ATOM     14  C   UNL     1      -6.536  12.577  21.954  0.00  0.00    +0.000 A 
ATOM     15  C   UNL     1      -7.041  11.778  20.934  0.00  0.00    +0.000 A 
ATOM     16  C   UNL     1      -6.282  11.490  19.788  0.00  0.00    +0.000 A 
ATOM     17  C   UNL     1      -6.911  10.597  18.757  0.00  0.00    +0.000 C 
ATOM     18  C   UNL     1      -4.995  12.066  19.660  0.00  0.00    +0.000 A 
ENDROOT
BRANCH   6  19
ATOM     19  C   UNL     1       0.832   9.130  20.898  0.00  0.00    +0.000 C 
ATOM     20  O   UNL     1       0.970   8.521  21.958  0.00  0.00    +0.000 OA
ATOM     21  N   UNL     1       1.531   8.763  19.756  0.00  0.00    +0.000 N 
ATOM     22  C   UNL     1       1.775   9.490  18.520  0.00  0.00    +0.000 C 
ATOM     23  C   UNL     1       1.871   8.364  17.508  0.00  0.00    +0.000 C 
ATOM     24  C   UNL     1       2.673   7.311  18.266  0.00  0.00    +0.000 C 
ATOM     25  C   UNL     1       2.269   7.507  19.729  0.00  0.00    +0.000 C 
ENDBRANCH   6  19
TORSDOF 1
ENDMDL
MODEL 4
REMARK VINA RESULT:      -6.6      1.153      1.345
REMARK  Name = 
REMARK  4 active torsions:
REMARK  status: ('A' for Active; 'I' for Inactive)
REMARK    1  A    between atoms: C_1  and  C_2
REMARK    2  A    between atoms: C_6  and  C_7
REMARK    3  A    between atoms: C_19  and  C_20
REMARK    4  A    between atoms: C_23  and  C_24
REMARK                            x       y       z     vdW  Elec       q    Type
REMARK                         _______ _______ _______ _____ _____    ______ ____
ROOT
ATOM      1  C   UNL     1       9.319  12.254  22.108  0.00  0.00    +0.000 C 
ATOM      2  C   UNL     1       8.878  13.098  20.927  0.00  0.00    +0.000 C 
ATOM      3  N   UNL     1       7.872  13.893  21.161  0.00  0.00    +0.000 NA
ATOM      4  C   UNL     1       7.404  14.902  20.292  0.00  0.00    +0.000 A 
ATOM      5  C   UNL     1       6.020  15.119  20.197  0.00  0.00    +0.000 A 
ATOM      6  C   UNL     1       5.500  16.222  19.494  0.00  0.00    +0.000 A 
ATOM      7  C   UNL     1       6.383  17.141  18.923  0.00  0.00    +0.000 A 
ATOM      8  C   UNL     1       7.754  16.925  18.972  0.00  0.00    +0.000 A 
ATOM      9  C   UNL     1       8.262  15.835  19.680  0.00  0.00    +0.000 A 
ATOM     10  S   UNL     1      10.031  15.696  19.809  0.00  0.00    +0.000 S 
ATOM     11  C   UNL     1      10.148  14.107  18.993  0.00  0.00    +0.000 A 
ATOM     12  C   UNL     1      10.736  14.017  17.712  0.00  0.00    +0.000 A 
ATOM     13  C   UNL     1      11.154  15.205  16.883  0.00  0.00    +0.000 C 
ATOM     14  C   UNL     1      10.936  12.752  17.149  0.00  0.00    +0.000 A 
ATOM     15  C   UNL     1      10.531  11.605  17.822  0.00  0.00    +0.000 A 
ATOM     16  C   UNL     1       9.868  11.678  19.059  0.00  0.00    +0.000 A 
ATOM     17  C   UNL     1       9.451  10.381  19.690  0.00  0.00    +0.000 C 
ATOM     18  C   UNL     1       9.652  12.951  19.642  0.00  0.00    +0.000 A 
ENDROOT
BRANCH   6  19
ATOM     19  C   UNL     1       4.031  16.488  19.529  0.00  0.00    +0.000 C 
ATOM     20  O   UNL     1       3.667  17.652  19.684  0.00  0.00    +0.000 OA
ATOM     21  N   UNL     1       3.118  15.466  19.307  0.00  0.00    +0.000 N 
ATOM     22  C   UNL     1       3.267  14.023  19.410  0.00  0.00    +0.000 C 
ATOM     23  C   UNL     1       2.280  13.531  18.368  0.00  0.00    +0.000 C 
ATOM     24  C   UNL     1       1.094  14.468  18.574  0.00  0.00    +0.000 C 
ATOM     25  C   UNL     1       1.726  15.787  19.022  0.00  0.00    +0.000 C 
ENDBRANCH   6  19
TORSDOF 1
ENDMDL
MODEL 5
REMARK VINA RESULT:      -6.5      5.736      8.420
REMARK  Name = 
REMARK  4 active torsions:
REMARK  status: ('A' for Active; 'I' for Inactive)
REMARK    1  A    between atoms: C_1  and  C_2
REMARK    2  A    between atoms: C_6  and  C_7
REMARK    3  A    between atoms: C_19  and  C_20
REMARK    4  A    between atoms: C_23  and  C_24
REMARK                            x       y       z     vdW  Elec       q    Type
REMARK                         _______ _______ _______ _____ _____    ______ ____
ROOT
ATOM      1  C   UNL     1       0.711   9.388  18.129  0.00  0.00    +0.000 C 
ATOM      2  C   UNL     1       0.850  10.555  19.088  0.00  0.00    +0.000 C 
ATOM      3  N   UNL     1       1.458  11.601  18.601  0.00  0.00    +0.000 NA
ATOM      4  C   UNL     1       1.541  12.865  19.223  0.00  0.00    +0.000 A 
ATOM      5  C   UNL     1       2.738  13.592  19.110  0.00  0.00    +0.000 A 
ATOM      6  C   UNL     1       2.824  14.927  19.547  0.00  0.00    +0.000 A 
ATOM      7  C   UNL     1       1.684  15.550  20.059  0.00  0.00    +0.000 A 
ATOM      8  C   UNL     1       0.503  14.838  20.216  0.00  0.00    +0.000 A 
ATOM      9  C   UNL     1       0.421  13.518  19.770  0.00  0.00    +0.000 A 
ATOM     10  S   UNL     1      -1.161  12.713  19.885  0.00  0.00    +0.000 S 
ATOM     11  C   UNL     1      -0.615  11.394  20.965  0.00  0.00    +0.000 A 
ATOM     12  C   UNL     1      -1.059  11.355  22.305  0.00  0.00    +0.000 A 
ATOM     13  C   UNL     1      -1.862  12.446  22.967  0.00  0.00    +0.000 C 
ATOM     14  C   UNL     1      -0.726  10.247  23.094  0.00  0.00    +0.000 A 
ATOM     15  C   UNL     1       0.056   9.220  22.579  0.00  0.00    +0.000 A 
ATOM     16  C   UNL     1       0.578   9.281  21.276  0.00  0.00    +0.000 A 
ATOM     17  C   UNL     1       1.432   8.131  20.826  0.00  0.00    +0.000 C 
ATOM     18  C   UNL     1       0.257  10.397  20.465  0.00  0.00    +0.000 A 
ENDROOT
BRANCH   6  19
ATOM     19  C   UNL     1       4.073  15.704  19.287  0.00  0.00    +0.000 C 
ATOM     20  O   UNL     1       4.151  16.319  18.225  0.00  0.00    +0.000 OA
ATOM     21  N   UNL     1       5.068  15.795  20.251  0.00  0.00    +0.000 N 
ATOM     22  C   UNL     1       5.352  14.952  21.401  0.00  0.00    +0.000 C 
ATOM     23  C   UNL     1       5.964  15.943  22.373  0.00  0.00    +0.000 C 
ATOM     24  C   UNL     1       6.851  16.787  21.462  0.00  0.00    +0.000 C 
ATOM     25  C   UNL     1       6.113  16.801  20.122  0.00  0.00    +0.000 C 
ENDBRANCH   6  19
TORSDOF 1
ENDMDL
MODEL 6
REMARK VINA RESULT:      -6.5      5.665      8.224
REMARK  Name = 
REMARK  4 active torsions:
REMARK  status: ('A' for Active; 'I' for Inactive)
REMARK    1  A    between atoms: C_1  and  C_2
REMARK    2  A    between atoms: C_6  and  C_7
REMARK    3  A    between atoms: C_19  and  C_20
REMARK    4  A    between atoms: C_23  and  C_24
REMARK                            x       y       z     vdW  Elec       q    Type
REMARK                         _______ _______ _______ _____ _____    ______ ____
ROOT
ATOM      1  C   UNL     1       1.025   9.686  18.233  0.00  0.00    +0.000 C 
ATOM      2  C   UNL     1       1.078  10.777  19.286  0.00  0.00    +0.000 C 
ATOM      3  N   UNL     1       1.732  11.850  18.938  0.00  0.00    +0.000 NA
ATOM      4  C   UNL     1       1.762  13.063  19.658  0.00  0.00    +0.000 A 
ATOM      5  C   UNL     1       2.966  13.785  19.710  0.00  0.00    +0.000 A 
ATOM      6  C   UNL     1       3.016  15.082  20.252  0.00  0.00    +0.000 A 
ATOM      7  C   UNL     1       1.836  15.677  20.703  0.00  0.00    +0.000 A 
ATOM      8  C   UNL     1       0.642  14.967  20.696  0.00  0.00    +0.000 A 
ATOM      9  C   UNL     1       0.598  13.685  20.147  0.00  0.00    +0.000 A 
ATOM     10  S   UNL     1      -0.991  12.889  20.055  0.00  0.00    +0.000 S 
ATOM     11  C   UNL     1      -0.551  11.488  21.078  0.00  0.00    +0.000 A 
ATOM     12  C   UNL     1      -1.117  11.354  22.365  0.00  0.00    +0.000 A 
ATOM     13  C   UNL     1      -1.974  12.401  23.031  0.00  0.00    +0.000 C 
ATOM     14  C   UNL     1      -0.862  10.188  23.096  0.00  0.00    +0.000 A 
ATOM     15  C   UNL     1      -0.039   9.194  22.579  0.00  0.00    +0.000 A 
ATOM     16  C   UNL     1       0.601   9.347  21.338  0.00  0.00    +0.000 A 
ATOM     17  C   UNL     1       1.489   8.224  20.883  0.00  0.00    +0.000 C 
ATOM     18  C   UNL     1       0.360  10.522  20.587  0.00  0.00    +0.000 A 
ENDROOT
BRANCH   6  19
ATOM     19  C   UNL     1       4.286  15.863  20.167  0.00  0.00    +0.000 C 
ATOM     20  O   UNL     1       4.520  16.670  21.066  0.00  0.00    +0.000 OA
ATOM     21  N   UNL     1       5.205  15.619  19.156  0.00  0.00    +0.000 N 
ATOM     22  C   UNL     1       5.040  14.980  17.860  0.00  0.00    +0.000 C 
ATOM     23  C   UNL     1       6.411  14.369  17.635  0.00  0.00    +0.000 C 
ATOM     24  C   UNL     1       7.343  15.467  18.138  0.00  0.00    +0.000 C 
ATOM     25  C   UNL     1       6.560  16.143  19.265  0.00  0.00    +0.000 C 
ENDBRANCH   6  19
TORSDOF 1
ENDMDL
MODEL 7
REMARK VINA RESULT:      -6.4      8.379      9.811
REMARK  Name = 
REMARK  4 active torsions:
REMARK  status: ('A' for Active; 'I' for Inactive)
REMARK    1  A    between atoms: C_1  and  C_2
REMARK    2  A    between atoms: C_6  and  C_7
REMARK    3  A    between atoms: C_19  and  C_20
REMARK    4  A    between atoms: C_23  and  C_24
REMARK                            x       y       z     vdW  Elec       q    Type
REMARK                         _______ _______ _______ _____ _____    ______ ____
ROOT
ATOM      1  C   UNL     1       2.347   4.113  21.744  0.00  0.00    +0.000 C 
ATOM      2  C   UNL     1       2.332   4.827  20.405  0.00  0.00    +0.000 C 
ATOM      3  N   UNL     1       2.054   6.100  20.461  0.00  0.00    +0.000 NA
ATOM      4  C   UNL     1       2.165   7.012  19.390  0.00  0.00    +0.000 A 
ATOM      5  C   UNL     1       1.194   8.018  19.261  0.00  0.00    +0.000 A 
ATOM      6  C   UNL     1       1.345   9.063  18.331  0.00  0.00    +0.000 A 
ATOM      7  C   UNL     1       2.506   9.122  17.557  0.00  0.00    +0.000 A 
ATOM      8  C   UNL     1       3.460   8.116  17.641  0.00  0.00    +0.000 A 
ATOM      9  C   UNL     1       3.308   7.090  18.574  0.00  0.00    +0.000 A 
ATOM     10  S   UNL     1       4.633   5.910  18.714  0.00  0.00    +0.000 S 
ATOM     11  C   UNL     1       3.649   4.480  18.281  0.00  0.00    +0.000 A 
ATOM     12  C   UNL     1       3.867   3.825  17.048  0.00  0.00    +0.000 A 
ATOM     13  C   UNL     1       4.786   4.332  15.966  0.00  0.00    +0.000 C 
ATOM     14  C   UNL     1       3.180   2.634  16.787  0.00  0.00    +0.000 A 
ATOM     15  C   UNL     1       2.272   2.122  17.707  0.00  0.00    +0.000 A 
ATOM     16  C   UNL     1       1.979   2.804  18.901  0.00  0.00    +0.000 A 
ATOM     17  C   UNL     1       0.965   2.177  19.815  0.00  0.00    +0.000 C 
ATOM     18  C   UNL     1       2.660   4.013  19.180  0.00  0.00    +0.000 A 
ENDROOT
BRANCH   6  19
ATOM     19  C   UNL     1       0.356  10.182  18.318  0.00  0.00    +0.000 C 
ATOM     20  O   UNL     1      -0.801   9.917  17.994  0.00  0.00    +0.000 OA
ATOM     21  N   UNL     1       0.716  11.454  18.743  0.00  0.00    +0.000 N 
ATOM     22  C   UNL     1       2.024  12.076  18.867  0.00  0.00    +0.000 C 
ATOM     23  C   UNL     1       1.804  13.041  20.018  0.00  0.00    +0.000 C 
ATOM     24  C   UNL     1       0.417  13.598  19.715  0.00  0.00    +0.000 C 
ATOM     25  C   UNL     1      -0.316  12.440  19.033  0.00  0.00    +0.000 C 
ENDBRANCH   6  19
TORSDOF 1
ENDMDL
MODEL 8
REMARK VINA RESULT:      -6.4      5.648      8.451
REMARK  Name = 
REMARK  4 active torsions:
REMARK  status: ('A' for Active; 'I' for Inactive)
REMARK    1  A    between atoms: C_1  and  C_2
REMARK    2  A    between atoms: C_6  and  C_7
REMARK    3  A    between atoms: C_19  and  C_20
REMARK    4  A    between atoms: C_23  and  C_24
REMARK                            x       y       z     vdW  Elec       q    Type
REMARK                         _______ _______ _______ _____ _____    ______ ____
ROOT
ATOM      1  C   UNL     1       1.002   8.956  18.964  0.00  0.00    +0.000 C 
ATOM      2  C   UNL     1       0.924  10.388  19.461  0.00  0.00    +0.000 C 
ATOM      3  N   UNL     1       1.597  11.254  18.756  0.00  0.00    +0.000 NA
ATOM      4  C   UNL     1       1.530  12.657  18.899  0.00  0.00    +0.000 A 
ATOM      5  C   UNL     1       2.711  13.404  18.755  0.00  0.00    +0.000 A 
ATOM      6  C   UNL     1       2.683  14.810  18.703  0.00  0.00    +0.000 A 
ATOM      7  C   UNL     1       1.451  15.468  18.749  0.00  0.00    +0.000 A 
ATOM      8  C   UNL     1       0.276  14.750  18.931  0.00  0.00    +0.000 A 
ATOM      9  C   UNL     1       0.311  13.356  18.969  0.00  0.00    +0.000 A 
ATOM     10  S   UNL     1      -1.247  12.502  19.073  0.00  0.00    +0.000 S 
ATOM     11  C   UNL     1      -0.902  11.683  20.626  0.00  0.00    +0.000 A 
ATOM     12  C   UNL     1      -1.603  12.064  21.791  0.00  0.00    +0.000 A 
ATOM     13  C   UNL     1      -2.543  13.241  21.872  0.00  0.00    +0.000 C 
ATOM     14  C   UNL     1      -1.414  11.326  22.965  0.00  0.00    +0.000 A 
ATOM     15  C   UNL     1      -0.525  10.257  22.994  0.00  0.00    +0.000 A 
ATOM     16  C   UNL     1       0.246   9.917  21.869  0.00  0.00    +0.000 A 
ATOM     17  C   UNL     1       1.194   8.761  22.015  0.00  0.00    +0.000 C 
ATOM     18  C   UNL     1       0.072  10.656  20.674  0.00  0.00    +0.000 A 
ENDROOT
BRANCH   6  19
ATOM     19  C   UNL     1       3.943  15.558  18.417  0.00  0.00    +0.000 C 
ATOM     20  O   UNL     1       4.311  15.628  17.246  0.00  0.00    +0.000 OA
ATOM     21  N   UNL     1       4.621  16.223  19.430  0.00  0.00    +0.000 N 
ATOM     22  C   UNL     1       4.578  16.047  20.873  0.00  0.00    +0.000 C 
ATOM     23  C   UNL     1       4.875  17.450  21.369  0.00  0.00    +0.000 C 
ATOM     24  C   UNL     1       5.972  17.908  20.413  0.00  0.00    +0.000 C 
ATOM     25  C   UNL     1       5.646  17.202  19.094  0.00  0.00    +0.000 C 
ENDBRANCH   6  19
TORSDOF 1
ENDMDL
MODEL 9
REMARK VINA RESULT:      -6.4      1.246      1.825
REMARK  Name = 
REMARK  4 active torsions:
REMARK  status: ('A' for Active; 'I' for Inactive)
REMARK    1  A    between atoms: C_1  and  C_2
REMARK    2  A    between atoms: C_6  and  C_7
REMARK    3  A    between atoms: C_19  and  C_20
REMARK    4  A    between atoms: C_23  and  C_24
REMARK                            x       y       z     vdW  Elec       q    Type
REMARK                         _______ _______ _______ _____ _____    ______ ____
ROOT
ATOM      1  C   UNL     1       9.121  12.182  21.986  0.00  0.00    +0.000 C 
ATOM      2  C   UNL     1       8.831  13.050  20.775  0.00  0.00    +0.000 C 
ATOM      3  N   UNL     1       7.832  13.876  20.915  0.00  0.00    +0.000 NA
ATOM      4  C   UNL     1       7.488  14.907  20.016  0.00  0.00    +0.000 A 
ATOM      5  C   UNL     1       6.128  15.171  19.782  0.00  0.00    +0.000 A 
ATOM      6  C   UNL     1       5.719  16.297  19.044  0.00  0.00    +0.000 A 
ATOM      7  C   UNL     1       6.685  17.191  18.577  0.00  0.00    +0.000 A 
ATOM      8  C   UNL     1       8.036  16.930  18.764  0.00  0.00    +0.000 A 
ATOM      9  C   UNL     1       8.433  15.817  19.506  0.00  0.00    +0.000 A 
ATOM     10  S   UNL     1      10.175  15.619  19.813  0.00  0.00    +0.000 S 
ATOM     11  C   UNL     1      10.324  14.034  18.995  0.00  0.00    +0.000 A 
ATOM     12  C   UNL     1      11.037  13.936  17.779  0.00  0.00    +0.000 A 
ATOM     13  C   UNL     1      11.575  15.117  17.012  0.00  0.00    +0.000 C 
ATOM     14  C   UNL     1      11.253  12.670  17.224  0.00  0.00    +0.000 A 
ATOM     15  C   UNL     1      10.745  11.531  17.838  0.00  0.00    +0.000 A 
ATOM     16  C   UNL     1       9.961  11.616  19.001  0.00  0.00    +0.000 A 
ATOM     17  C   UNL     1       9.440  10.327  19.570  0.00  0.00    +0.000 C 
ATOM     18  C   UNL     1       9.727  12.889  19.575  0.00  0.00    +0.000 A 
ENDROOT
BRANCH   6  19
ATOM     19  C   UNL     1       4.264  16.611  18.932  0.00  0.00    +0.000 C 
ATOM     20  O   UNL     1       3.681  16.255  17.909  0.00  0.00    +0.000 OA
ATOM     21  N   UNL     1       3.581  17.204  19.985  0.00  0.00    +0.000 N 
ATOM     22  C   UNL     1       4.071  17.973  21.118  0.00  0.00    +0.000 C 
ATOM     23  C   UNL     1       3.039  17.652  22.183  0.00  0.00    +0.000 C 
ATOM     24  C   UNL     1       1.734  17.687  21.394  0.00  0.00    +0.000 C 
ATOM     25  C   UNL     1       2.124  17.208  19.994  0.00  0.00    +0.000 C 
ENDBRANCH   6  19
TORSDOF 1
ENDMDL
