MODEL 1
REMARK VINA RESULT:      -7.9      0.000      0.000
REMARK  Name = 
REMARK  9 active torsions:
REMARK  status: ('A' for Active; 'I' for Inactive)
REMARK    1  A    between atoms: C_1  and  O_2
REMARK    2  A    between atoms: O_2  and  C_3
REMARK    3  A    between atoms: C_8  and  N_9
REMARK    4  A    between atoms: N_9  and  C_10
REMARK    5  A    between atoms: N_9  and  S_17
REMARK    6  A    between atoms: C_10  and  C_11
REMARK    7  A    between atoms: S_17  and  C_20
REMARK    8  A    between atoms: C_24  and  C_25
REMARK    9  A    between atoms: C_30  and  C_31
REMARK                            x       y       z     vdW  Elec       q    Type
REMARK                         _______ _______ _______ _____ _____    ______ ____
ROOT
ATOM      1  S   UNL     1       0.935  12.953  20.584  0.00  0.00    +0.000 S 
ATOM      2  O   UNL     1       2.047  12.837  19.660  0.00  0.00    +0.000 OA
ATOM      3  O   UNL     1       1.060  13.809  21.755  0.00  0.00    +0.000 OA
ENDROOT
BRANCH   1   4
ATOM      4  C   UNL     1       0.593  11.321  21.198  0.00  0.00    +0.000 A 
ATOM      5  C   UNL     1      -0.334  11.122  22.229  0.00  0.00    +0.000 A 
ATOM      6  C   UNL     1      -0.649   9.825  22.637  0.00  0.00    +0.000 A 
ATOM      7  C   UNL     1      -0.009   8.737  22.045  0.00  0.00    +0.000 A 
ATOM      8  C   UNL     1       0.968   8.949  21.064  0.00  0.00    +0.000 A 
ATOM      9  C   UNL     1       1.278  10.240  20.640  0.00  0.00    +0.000 A 
BRANCH   8  10
ATOM     10  C   UNL     1       1.596   7.787  20.403  0.00  0.00    +0.000 C 
ATOM     11  O   UNL     1       2.149   7.965  19.323  0.00  0.00    +0.000 OA
ATOM     12  N   UNL     1       1.432   6.579  21.047  0.00  0.00    +0.000 N 
ATOM     13  C   UNL     1       1.902   5.386  20.495  0.00  0.00    +0.000 A 
ATOM     14  C   UNL     1       3.177   5.301  19.945  0.00  0.00    +0.000 A 
ATOM     15  C   UNL     1       3.575   4.111  19.339  0.00  0.00    +0.000 A 
ATOM     16  C   UNL     1       4.944   3.965  18.750  0.00  0.00    +0.000 C 
ATOM     17  C   UNL     1       2.655   3.066  19.271  0.00  0.00    +0.000 A 
ATOM     18  C   UNL     1       1.418   3.233  19.879  0.00  0.00    +0.000 A 
ATOM     19  N   UNL     1       1.039   4.354  20.530  0.00  0.00    +0.000 NA
ATOM     20  H   UNL     1       0.613   6.460  21.629  0.00  0.00    +0.000 HD
ENDBRANCH   8  10
ENDBRANCH   1   4
BRANCH   1  21
ATOM     21  N   UNL     1      -0.466  13.411  19.690  0.00  0.00    +0.000 N 
BRANCH  21  27
ATOM     22  C   UNL     1      -1.873  15.308  20.652  0.00  0.00    +0.000 A 
ATOM     23  C   UNL     1      -2.199  16.677  20.609  0.00  0.00    +0.000 A 
ATOM     24  C   UNL     1      -1.537  17.548  19.743  0.00  0.00    +0.000 A 
ATOM     25  C   UNL     1      -0.564  17.053  18.888  0.00  0.00    +0.000 A 
ATOM     26  C   UNL     1      -0.241  15.694  18.908  0.00  0.00    +0.000 A 
ATOM     27  C   UNL     1      -0.861  14.808  19.802  0.00  0.00    +0.000 A 
BRANCH  22  29
ATOM     28  C   UNL     1      -3.905  14.656  21.709  0.00  0.00    +0.000 C 
ATOM     29  O   UNL     1      -2.516  14.425  21.481  0.00  0.00    +0.000 OA
ENDBRANCH  22  29
ENDBRANCH  21  27
BRANCH  21  30
ATOM     30  C   UNL     1      -0.637  12.687  18.410  0.00  0.00    +0.000 C 
BRANCH  30  31
ATOM     31  C   UNL     1      -1.778  11.698  18.282  0.00  0.00    +0.000 A 
ATOM     32  C   UNL     1      -3.065  12.139  18.645  0.00  0.00    +0.000 A 
ATOM     33  C   UNL     1      -4.195  11.369  18.378  0.00  0.00    +0.000 A 
ATOM     34  C   UNL     1      -4.058  10.140  17.744  0.00  0.00    +0.000 A 
ATOM     35  C   UNL     1      -2.788   9.680  17.385  0.00  0.00    +0.000 A 
ATOM     36  C   UNL     1      -1.652  10.457  17.645  0.00  0.00    +0.000 A 
ENDBRANCH  30  31
ENDBRANCH  21  30
ENDBRANCH   1  21
TORSDOF 7
ENDMDL
MODEL 2
REMARK VINA RESULT:      -7.9      1.371      2.043
REMARK  Name = 
REMARK  9 active torsions:
REMARK  status: ('A' for Active; 'I' for Inactive)
REMARK    1  A    between atoms: C_1  and  O_2
REMARK    2  A    between atoms: O_2  and  C_3
REMARK    3  A    between atoms: C_8  and  N_9
REMARK    4  A    between atoms: N_9  and  C_10
REMARK    5  A    between atoms: N_9  and  S_17
REMARK    6  A    between atoms: C_10  and  C_11
REMARK    7  A    between atoms: S_17  and  C_20
REMARK    8  A    between atoms: C_24  and  C_25
REMARK    9  A    between atoms: C_30  and  C_31
REMARK                            x       y       z     vdW  Elec       q    Type
REMARK                         _______ _______ _______ _____ _____    ______ ____
ROOT
ATOM      1  S   UNL     1       0.372  13.083  21.064  0.00  0.00    +0.000 S 
ATOM      2  O   UNL     1       1.495  13.415  20.206  0.00  0.00    +0.000 OA
ATOM      3  O   UNL     1       0.304  13.639  22.407  0.00  0.00    +0.000 OA
ENDROOT
BRANCH   1   4
ATOM      4  C   UNL     1       0.367  11.316  21.258  0.00  0.00    +0.000 A 
ATOM      5  C   UNL     1      -0.343  10.712  22.303  0.00  0.00    +0.000 A 
ATOM      6  C   UNL     1      -0.401   9.320  22.386  0.00  0.00    +0.000 A 
ATOM      7  C   UNL     1       0.280   8.540  21.453  0.00  0.00    +0.000 A 
ATOM      8  C   UNL     1       1.046   9.154  20.453  0.00  0.00    +0.000 A 
ATOM      9  C   UNL     1       1.098  10.543  20.353  0.00  0.00    +0.000 A 
BRANCH   8  10
ATOM     10  C   UNL     1       1.714   8.317  19.436  0.00  0.00    +0.000 C 
ATOM     11  O   UNL     1       1.626   8.656  18.260  0.00  0.00    +0.000 OA
ATOM     12  N   UNL     1       2.323   7.177  19.914  0.00  0.00    +0.000 N 
ATOM     13  C   UNL     1       2.922   6.253  19.055  0.00  0.00    +0.000 A 
ATOM     14  C   UNL     1       3.754   6.667  18.020  0.00  0.00    +0.000 A 
ATOM     15  C   UNL     1       4.271   5.715  17.144  0.00  0.00    +0.000 A 
ATOM     16  C   UNL     1       5.186   6.111  16.025  0.00  0.00    +0.000 C 
ATOM     17  C   UNL     1       3.892   4.385  17.317  0.00  0.00    +0.000 A 
ATOM     18  C   UNL     1       3.084   4.064  18.400  0.00  0.00    +0.000 A 
ATOM     19  N   UNL     1       2.630   4.963  19.300  0.00  0.00    +0.000 NA
ATOM     20  H   UNL     1       1.955   6.762  20.760  0.00  0.00    +0.000 HD
ENDBRANCH   8  10
ENDBRANCH   1   4
BRANCH   1  21
ATOM     21  N   UNL     1      -1.083  13.456  20.218  0.00  0.00    +0.000 N 
BRANCH  21  27
ATOM     22  C   UNL     1      -1.386  15.988  20.289  0.00  0.00    +0.000 A 
ATOM     23  C   UNL     1      -2.098  17.078  20.822  0.00  0.00    +0.000 A 
ATOM     24  C   UNL     1      -3.175  16.881  21.687  0.00  0.00    +0.000 A 
ATOM     25  C   UNL     1      -3.530  15.592  22.054  0.00  0.00    +0.000 A 
ATOM     26  C   UNL     1      -2.823  14.500  21.545  0.00  0.00    +0.000 A 
ATOM     27  C   UNL     1      -1.766  14.672  20.638  0.00  0.00    +0.000 A 
BRANCH  22  29
ATOM     28  C   UNL     1      -0.500  17.021  18.336  0.00  0.00    +0.000 C 
ATOM     29  O   UNL     1      -0.314  16.150  19.449  0.00  0.00    +0.000 OA
ENDBRANCH  22  29
ENDBRANCH  21  27
BRANCH  21  30
ATOM     30  C   UNL     1      -1.082  13.054  18.793  0.00  0.00    +0.000 C 
BRANCH  30  31
ATOM     31  C   UNL     1      -1.842  11.807  18.390  0.00  0.00    +0.000 A 
ATOM     32  C   UNL     1      -3.244  11.831  18.513  0.00  0.00    +0.000 A 
ATOM     33  C   UNL     1      -4.034  10.810  17.987  0.00  0.00    +0.000 A 
ATOM     34  C   UNL     1      -3.434   9.743  17.330  0.00  0.00    +0.000 A 
ATOM     35  C   UNL     1      -2.042   9.696  17.207  0.00  0.00    +0.000 A 
ATOM     36  C   UNL     1      -1.248  10.725  17.727  0.00  0.00    +0.000 A 
ENDBRANCH  30  31
ENDBRANCH  21  30
ENDBRANCH   1  21
TORSDOF 7
ENDMDL
MODEL 3
REMARK VINA RESULT:      -7.7      2.027      4.444
REMARK  Name = 
REMARK  9 active torsions:
REMARK  status: ('A' for Active; 'I' for Inactive)
REMARK    1  A    between atoms: C_1  and  O_2
REMARK    2  A    between atoms: O_2  and  C_3
REMARK    3  A    between atoms: C_8  and  N_9
REMARK    4  A    between atoms: N_9  and  C_10
REMARK    5  A    between atoms: N_9  and  S_17
REMARK    6  A    between atoms: C_10  and  C_11
REMARK    7  A    between atoms: S_17  and  C_20
REMARK    8  A    between atoms: C_24  and  C_25
REMARK    9  A    between atoms: C_30  and  C_31
REMARK                            x       y       z     vdW  Elec       q    Type
REMARK                         _______ _______ _______ _____ _____    ______ ____
ROOT
ATOM      1  S   UNL     1      -0.191  11.868  21.003  0.00  0.00    +0.000 S 
ATOM      2  O   UNL     1       0.737  12.604  21.842  0.00  0.00    +0.000 OA
ATOM      3  O   UNL     1      -1.064  10.869  21.602  0.00  0.00    +0.000 OA
ENDROOT
BRANCH   1   4
ATOM      4  C   UNL     1       0.774  11.014  19.779  0.00  0.00    +0.000 A 
ATOM      5  C   UNL     1       1.367  11.711  18.720  0.00  0.00    +0.000 A 
ATOM      6  C   UNL     1       2.189  11.033  17.819  0.00  0.00    +0.000 A 
ATOM      7  C   UNL     1       2.383   9.659  17.955  0.00  0.00    +0.000 A 
ATOM      8  C   UNL     1       1.728   8.958  18.976  0.00  0.00    +0.000 A 
ATOM      9  C   UNL     1       0.917   9.629  19.889  0.00  0.00    +0.000 A 
BRANCH   8  10
ATOM     10  C   UNL     1       1.988   7.514  19.145  0.00  0.00    +0.000 C 
ATOM     11  O   UNL     1       1.879   7.035  20.269  0.00  0.00    +0.000 OA
ATOM     12  N   UNL     1       2.404   6.850  18.011  0.00  0.00    +0.000 N 
ATOM     13  C   UNL     1       2.763   5.501  18.044  0.00  0.00    +0.000 A 
ATOM     14  C   UNL     1       1.980   4.564  18.711  0.00  0.00    +0.000 A 
ATOM     15  C   UNL     1       2.416   3.242  18.779  0.00  0.00    +0.000 A 
ATOM     16  C   UNL     1       1.599   2.194  19.471  0.00  0.00    +0.000 C 
ATOM     17  C   UNL     1       3.648   2.925  18.211  0.00  0.00    +0.000 A 
ATOM     18  C   UNL     1       4.342   3.921  17.536  0.00  0.00    +0.000 A 
ATOM     19  N   UNL     1       3.903   5.191  17.400  0.00  0.00    +0.000 NA
ATOM     20  H   UNL     1       2.895   7.381  17.304  0.00  0.00    +0.000 HD
ENDBRANCH   8  10
ENDBRANCH   1   4
BRANCH   1  21
ATOM     21  N   UNL     1      -1.144  13.005  20.126  0.00  0.00    +0.000 N 
BRANCH  21  27
ATOM     22  C   UNL     1      -2.855  11.861  18.618  0.00  0.00    +0.000 A 
ATOM     23  C   UNL     1      -4.210  11.565  18.381  0.00  0.00    +0.000 A 
ATOM     24  C   UNL     1      -5.201  11.960  19.281  0.00  0.00    +0.000 A 
ATOM     25  C   UNL     1      -4.851  12.683  20.410  0.00  0.00    +0.000 A 
ATOM     26  C   UNL     1      -3.511  12.998  20.651  0.00  0.00    +0.000 A 
ATOM     27  C   UNL     1      -2.493  12.572  19.784  0.00  0.00    +0.000 A 
BRANCH  22  29
ATOM     28  C   UNL     1      -1.834  10.134  17.335  0.00  0.00    +0.000 C 
ATOM     29  O   UNL     1      -1.860  11.499  17.746  0.00  0.00    +0.000 OA
ENDBRANCH  22  29
ENDBRANCH  21  27
BRANCH  21  30
ATOM     30  C   UNL     1      -0.880  14.420  20.470  0.00  0.00    +0.000 C 
BRANCH  30  31
ATOM     31  C   UNL     1      -0.055  15.258  19.515  0.00  0.00    +0.000 A 
ATOM     32  C   UNL     1      -0.702  16.323  18.859  0.00  0.00    +0.000 A 
ATOM     33  C   UNL     1       0.018  17.259  18.118  0.00  0.00    +0.000 A 
ATOM     34  C   UNL     1       1.399  17.146  18.018  0.00  0.00    +0.000 A 
ATOM     35  C   UNL     1       2.058  16.090  18.655  0.00  0.00    +0.000 A 
ATOM     36  C   UNL     1       1.338  15.153  19.405  0.00  0.00    +0.000 A 
ENDBRANCH  30  31
ENDBRANCH  21  30
ENDBRANCH   1  21
TORSDOF 7
ENDMDL
MODEL 4
REMARK VINA RESULT:      -7.7      1.588      3.982
REMARK  Name = 
REMARK  9 active torsions:
REMARK  status: ('A' for Active; 'I' for Inactive)
REMARK    1  A    between atoms: C_1  and  O_2
REMARK    2  A    between atoms: O_2  and  C_3
REMARK    3  A    between atoms: C_8  and  N_9
REMARK    4  A    between atoms: N_9  and  C_10
REMARK    5  A    between atoms: N_9  and  S_17
REMARK    6  A    between atoms: C_10  and  C_11
REMARK    7  A    between atoms: S_17  and  C_20
REMARK    8  A    between atoms: C_24  and  C_25
REMARK    9  A    between atoms: C_30  and  C_31
REMARK                            x       y       z     vdW  Elec       q    Type
REMARK                         _______ _______ _______ _____ _____    ______ ____
ROOT
ATOM      1  S   UNL     1       0.440  13.330  21.396  0.00  0.00    +0.000 S 
ATOM      2  O   UNL     1       1.856  13.632  21.288  0.00  0.00    +0.000 OA
ATOM      3  O   UNL     1      -0.319  13.839  22.528  0.00  0.00    +0.000 OA
ENDROOT
BRANCH   1   4
ATOM      4  C   UNL     1       0.286  11.560  21.452  0.00  0.00    +0.000 A 
ATOM      5  C   UNL     1      -0.556  10.943  22.385  0.00  0.00    +0.000 A 
ATOM      6  C   UNL     1      -0.726   9.558  22.355  0.00  0.00    +0.000 A 
ATOM      7  C   UNL     1      -0.025   8.793  21.423  0.00  0.00    +0.000 A 
ATOM      8  C   UNL     1       0.869   9.413  20.540  0.00  0.00    +0.000 A 
ATOM      9  C   UNL     1       1.034  10.797  20.553  0.00  0.00    +0.000 A 
BRANCH   8  10
ATOM     10  C   UNL     1       1.561   8.599  19.519  0.00  0.00    +0.000 C 
ATOM     11  O   UNL     1       1.486   8.955  18.348  0.00  0.00    +0.000 OA
ATOM     12  N   UNL     1       2.174   7.457  19.988  0.00  0.00    +0.000 N 
ATOM     13  C   UNL     1       2.794   6.553  19.123  0.00  0.00    +0.000 A 
ATOM     14  C   UNL     1       3.637   6.991  18.107  0.00  0.00    +0.000 A 
ATOM     15  C   UNL     1       4.176   6.058  17.224  0.00  0.00    +0.000 A 
ATOM     16  C   UNL     1       5.102   6.480  16.125  0.00  0.00    +0.000 C 
ATOM     17  C   UNL     1       3.806   4.722  17.371  0.00  0.00    +0.000 A 
ATOM     18  C   UNL     1       2.986   4.376  18.436  0.00  0.00    +0.000 A 
ATOM     19  N   UNL     1       2.510   5.256  19.344  0.00  0.00    +0.000 NA
ATOM     20  H   UNL     1       1.798   7.025  20.822  0.00  0.00    +0.000 HD
ENDBRANCH   8  10
ENDBRANCH   1   4
BRANCH   1  21
ATOM     21  N   UNL     1      -0.329  13.812  19.931  0.00  0.00    +0.000 N 
BRANCH  21  27
ATOM     22  C   UNL     1      -2.580  12.622  19.779  0.00  0.00    +0.000 A 
ATOM     23  C   UNL     1      -3.340  11.606  19.172  0.00  0.00    +0.000 A 
ATOM     24  C   UNL     1      -2.805  10.817  18.153  0.00  0.00    +0.000 A 
ATOM     25  C   UNL     1      -1.493  11.016  17.752  0.00  0.00    +0.000 A 
ATOM     26  C   UNL     1      -0.720  12.010  18.357  0.00  0.00    +0.000 A 
ATOM     27  C   UNL     1      -1.252  12.846  19.352  0.00  0.00    +0.000 A 
BRANCH  22  29
ATOM     28  C   UNL     1      -3.624  12.721  21.917  0.00  0.00    +0.000 C 
ATOM     29  O   UNL     1      -3.073  13.403  20.793  0.00  0.00    +0.000 OA
ENDBRANCH  22  29
ENDBRANCH  21  27
BRANCH  21  30
ATOM     30  C   UNL     1      -0.611  15.263  19.837  0.00  0.00    +0.000 C 
BRANCH  30  31
ATOM     31  C   UNL     1       0.155  16.087  18.822  0.00  0.00    +0.000 A 
ATOM     32  C   UNL     1      -0.564  17.054  18.094  0.00  0.00    +0.000 A 
ATOM     33  C   UNL     1       0.089  17.985  17.288  0.00  0.00    +0.000 A 
ATOM     34  C   UNL     1       1.475  17.963  17.192  0.00  0.00    +0.000 A 
ATOM     35  C   UNL     1       2.206  17.003  17.899  0.00  0.00    +0.000 A 
ATOM     36  C   UNL     1       1.551  16.073  18.717  0.00  0.00    +0.000 A 
ENDBRANCH  30  31
ENDBRANCH  21  30
ENDBRANCH   1  21
TORSDOF 7
ENDMDL
MODEL 5
REMARK VINA RESULT:      -7.6      1.621      2.376
REMARK  Name = 
REMARK  9 active torsions:
REMARK  status: ('A' for Active; 'I' for Inactive)
REMARK    1  A    between atoms: C_1  and  O_2
REMARK    2  A    between atoms: O_2  and  C_3
REMARK    3  A    between atoms: C_8  and  N_9
REMARK    4  A    between atoms: N_9  and  C_10
REMARK    5  A    between atoms: N_9  and  S_17
REMARK    6  A    between atoms: C_10  and  C_11
REMARK    7  A    between atoms: S_17  and  C_20
REMARK    8  A    between atoms: C_24  and  C_25
REMARK    9  A    between atoms: C_30  and  C_31
REMARK                            x       y       z     vdW  Elec       q    Type
REMARK                         _______ _______ _______ _____ _____    ______ ____
ROOT
ATOM      1  S   UNL     1       0.136  12.954  21.170  0.00  0.00    +0.000 S 
ATOM      2  O   UNL     1       1.363  13.500  21.719  0.00  0.00    +0.000 OA
ATOM      3  O   UNL     1      -1.146  13.390  21.702  0.00  0.00    +0.000 OA
ENDROOT
BRANCH   1   4
ATOM      4  C   UNL     1       0.196  11.193  21.403  0.00  0.00    +0.000 A 
ATOM      5  C   UNL     1      -0.505  10.585  22.451  0.00  0.00    +0.000 A 
ATOM      6  C   UNL     1      -0.511   9.194  22.565  0.00  0.00    +0.000 A 
ATOM      7  C   UNL     1       0.214   8.421  21.658  0.00  0.00    +0.000 A 
ATOM      8  C   UNL     1       0.969   9.042  20.656  0.00  0.00    +0.000 A 
ATOM      9  C   UNL     1       0.970  10.430  20.526  0.00  0.00    +0.000 A 
BRANCH   8  10
ATOM     10  C   UNL     1       1.685   8.210  19.667  0.00  0.00    +0.000 C 
ATOM     11  O   UNL     1       1.799   8.641  18.524  0.00  0.00    +0.000 OA
ATOM     12  N   UNL     1       2.099   6.976  20.120  0.00  0.00    +0.000 N 
ATOM     13  C   UNL     1       2.715   6.055  19.271  0.00  0.00    +0.000 A 
ATOM     14  C   UNL     1       3.723   6.445  18.395  0.00  0.00    +0.000 A 
ATOM     15  C   UNL     1       4.258   5.506  17.515  0.00  0.00    +0.000 A 
ATOM     16  C   UNL     1       5.357   5.874  16.567  0.00  0.00    +0.000 C 
ATOM     17  C   UNL     1       3.722   4.219  17.520  0.00  0.00    +0.000 A 
ATOM     18  C   UNL     1       2.740   3.915  18.454  0.00  0.00    +0.000 A 
ATOM     19  N   UNL     1       2.259   4.792  19.361  0.00  0.00    +0.000 NA
ATOM     20  H   UNL     1       1.575   6.546  20.870  0.00  0.00    +0.000 HD
ENDBRANCH   8  10
ENDBRANCH   1   4
BRANCH   1  21
ATOM     21  N   UNL     1       0.155  13.192  19.463  0.00  0.00    +0.000 N 
BRANCH  21  27
ATOM     22  C   UNL     1       0.813  15.620  19.038  0.00  0.00    +0.000 A 
ATOM     23  C   UNL     1       1.742  16.510  18.468  0.00  0.00    +0.000 A 
ATOM     24  C   UNL     1       2.899  16.042  17.845  0.00  0.00    +0.000 A 
ATOM     25  C   UNL     1       3.124  14.676  17.758  0.00  0.00    +0.000 A 
ATOM     26  C   UNL     1       2.203  13.780  18.306  0.00  0.00    +0.000 A 
ATOM     27  C   UNL     1       1.055  14.229  18.977  0.00  0.00    +0.000 A 
BRANCH  22  29
ATOM     28  C   UNL     1      -1.109  17.022  18.940  0.00  0.00    +0.000 C 
ATOM     29  O   UNL     1      -0.341  16.049  19.644  0.00  0.00    +0.000 OA
ENDBRANCH  22  29
ENDBRANCH  21  27
BRANCH  21  30
ATOM     30  C   UNL     1      -0.059  11.960  18.671  0.00  0.00    +0.000 C 
BRANCH  30  31
ATOM     31  C   UNL     1      -1.474  11.587  18.275  0.00  0.00    +0.000 A 
ATOM     32  C   UNL     1      -1.649  10.416  17.514  0.00  0.00    +0.000 A 
ATOM     33  C   UNL     1      -2.919   9.894  17.273  0.00  0.00    +0.000 A 
ATOM     34  C   UNL     1      -4.038  10.537  17.787  0.00  0.00    +0.000 A 
ATOM     35  C   UNL     1      -3.885  11.707  18.537  0.00  0.00    +0.000 A 
ATOM     36  C   UNL     1      -2.609  12.228  18.787  0.00  0.00    +0.000 A 
ENDBRANCH  30  31
ENDBRANCH  21  30
ENDBRANCH   1  21
TORSDOF 7
ENDMDL
MODEL 6
REMARK VINA RESULT:      -7.6      0.563      1.033
REMARK  Name = 
REMARK  9 active torsions:
REMARK  status: ('A' for Active; 'I' for Inactive)
REMARK    1  A    between atoms: C_1  and  O_2
REMARK    2  A    between atoms: O_2  and  C_3
REMARK    3  A    between atoms: C_8  and  N_9
REMARK    4  A    between atoms: N_9  and  C_10
REMARK    5  A    between atoms: N_9  and  S_17
REMARK    6  A    between atoms: C_10  and  C_11
REMARK    7  A    between atoms: S_17  and  C_20
REMARK    8  A    between atoms: C_24  and  C_25
REMARK    9  A    between atoms: C_30  and  C_31
REMARK                            x       y       z     vdW  Elec       q    Type
REMARK                         _______ _______ _______ _____ _____    ______ ____
ROOT
ATOM      1  S   UNL     1       0.810  12.951  20.637  0.00  0.00    +0.000 S 
ATOM      2  O   UNL     1       1.858  12.888  19.635  0.00  0.00    +0.000 OA
ATOM      3  O   UNL     1       1.010  13.749  21.837  0.00  0.00    +0.000 OA
ENDROOT
BRANCH   1   4
ATOM      4  C   UNL     1       0.517  11.287  21.192  0.00  0.00    +0.000 A 
ATOM      5  C   UNL     1      -0.402  11.025  22.215  0.00  0.00    +0.000 A 
ATOM      6  C   UNL     1      -0.678   9.705  22.576  0.00  0.00    +0.000 A 
ATOM      7  C   UNL     1      -0.007   8.658  21.944  0.00  0.00    +0.000 A 
ATOM      8  C   UNL     1       0.962   8.934  20.971  0.00  0.00    +0.000 A 
ATOM      9  C   UNL     1       1.233  10.248  20.594  0.00  0.00    +0.000 A 
BRANCH   8  10
ATOM     10  C   UNL     1       1.622   7.816  20.268  0.00  0.00    +0.000 C 
ATOM     11  O   UNL     1       2.092   8.029  19.156  0.00  0.00    +0.000 OA
ATOM     12  N   UNL     1       1.579   6.600  20.917  0.00  0.00    +0.000 N 
ATOM     13  C   UNL     1       2.092   5.441  20.332  0.00  0.00    +0.000 A 
ATOM     14  C   UNL     1       3.332   5.440  19.703  0.00  0.00    +0.000 A 
ATOM     15  C   UNL     1       3.770   4.278  19.069  0.00  0.00    +0.000 A 
ATOM     16  C   UNL     1       5.105   4.223  18.394  0.00  0.00    +0.000 C 
ATOM     17  C   UNL     1       2.918   3.174  19.055  0.00  0.00    +0.000 A 
ATOM     18  C   UNL     1       1.713   3.260  19.741  0.00  0.00    +0.000 A 
ATOM     19  N   UNL     1       1.303   4.354  20.419  0.00  0.00    +0.000 NA
ATOM     20  H   UNL     1       0.809   6.427  21.549  0.00  0.00    +0.000 HD
ENDBRANCH   8  10
ENDBRANCH   1   4
BRANCH   1  21
ATOM     21  N   UNL     1      -0.649  13.440  19.863  0.00  0.00    +0.000 N 
BRANCH  21  27
ATOM     22  C   UNL     1      -2.238  14.805  21.319  0.00  0.00    +0.000 A 
ATOM     23  C   UNL     1      -2.756  16.075  21.633  0.00  0.00    +0.000 A 
ATOM     24  C   UNL     1      -2.289  17.223  20.990  0.00  0.00    +0.000 A 
ATOM     25  C   UNL     1      -1.322  17.108  20.004  0.00  0.00    +0.000 A 
ATOM     26  C   UNL     1      -0.809  15.852  19.671  0.00  0.00    +0.000 A 
ATOM     27  C   UNL     1      -1.230  14.690  20.336  0.00  0.00    +0.000 A 
BRANCH  22  29
ATOM     28  C   UNL     1      -4.040  13.288  21.668  0.00  0.00    +0.000 C 
ATOM     29  O   UNL     1      -2.686  13.658  21.922  0.00  0.00    +0.000 OA
ENDBRANCH  22  29
ENDBRANCH  21  27
BRANCH  21  30
ATOM     30  C   UNL     1      -0.735  13.073  18.431  0.00  0.00    +0.000 C 
BRANCH  30  31
ATOM     31  C   UNL     1      -1.653  11.937  18.026  0.00  0.00    +0.000 A 
ATOM     32  C   UNL     1      -1.054  10.749  17.565  0.00  0.00    +0.000 A 
ATOM     33  C   UNL     1      -1.806   9.594  17.359  0.00  0.00    +0.000 A 
ATOM     34  C   UNL     1      -3.173   9.606  17.607  0.00  0.00    +0.000 A 
ATOM     35  C   UNL     1      -3.788  10.779  18.056  0.00  0.00    +0.000 A 
ATOM     36  C   UNL     1      -3.032  11.938  18.272  0.00  0.00    +0.000 A 
ENDBRANCH  30  31
ENDBRANCH  21  30
ENDBRANCH   1  21
TORSDOF 7
ENDMDL
MODEL 7
REMARK VINA RESULT:      -7.5      1.586      2.360
REMARK  Name = 
REMARK  9 active torsions:
REMARK  status: ('A' for Active; 'I' for Inactive)
REMARK    1  A    between atoms: C_1  and  O_2
REMARK    2  A    between atoms: O_2  and  C_3
REMARK    3  A    between atoms: C_8  and  N_9
REMARK    4  A    between atoms: N_9  and  C_10
REMARK    5  A    between atoms: N_9  and  S_17
REMARK    6  A    between atoms: C_10  and  C_11
REMARK    7  A    between atoms: S_17  and  C_20
REMARK    8  A    between atoms: C_24  and  C_25
REMARK    9  A    between atoms: C_30  and  C_31
REMARK                            x       y       z     vdW  Elec       q    Type
REMARK                         _______ _______ _______ _____ _____    ______ ____
ROOT
ATOM      1  S   UNL     1       1.116  12.355  20.175  0.00  0.00    +0.000 S 
ATOM      2  O   UNL     1       1.903  12.141  18.974  0.00  0.00    +0.000 OA
ATOM      3  O   UNL     1       1.654  13.175  21.250  0.00  0.00    +0.000 OA
ENDROOT
BRANCH   1   4
ATOM      4  C   UNL     1       0.797  10.757  20.884  0.00  0.00    +0.000 A 
ATOM      5  C   UNL     1      -0.067  10.616  21.976  0.00  0.00    +0.000 A 
ATOM      6  C   UNL     1      -0.368   9.344  22.463  0.00  0.00    +0.000 A 
ATOM      7  C   UNL     1       0.226   8.222  21.884  0.00  0.00    +0.000 A 
ATOM      8  C   UNL     1       1.143   8.377  20.837  0.00  0.00    +0.000 A 
ATOM      9  C   UNL     1       1.438   9.644  20.335  0.00  0.00    +0.000 A 
BRANCH   8  10
ATOM     10  C   UNL     1       1.719   7.178  20.194  0.00  0.00    +0.000 C 
ATOM     11  O   UNL     1       1.759   6.138  20.843  0.00  0.00    +0.000 OA
ATOM     12  N   UNL     1       2.229   7.372  18.929  0.00  0.00    +0.000 N 
ATOM     13  C   UNL     1       2.875   6.347  18.236  0.00  0.00    +0.000 A 
ATOM     14  C   UNL     1       2.342   5.063  18.188  0.00  0.00    +0.000 A 
ATOM     15  C   UNL     1       3.059   4.054  17.547  0.00  0.00    +0.000 A 
ATOM     16  C   UNL     1       2.518   2.661  17.454  0.00  0.00    +0.000 C 
ATOM     17  C   UNL     1       4.310   4.370  17.018  0.00  0.00    +0.000 A 
ATOM     18  C   UNL     1       4.742   5.687  17.084  0.00  0.00    +0.000 A 
ATOM     19  N   UNL     1       4.031   6.692  17.640  0.00  0.00    +0.000 NA
ATOM     20  H   UNL     1       2.565   8.296  18.689  0.00  0.00    +0.000 HD
ENDBRANCH   8  10
ENDBRANCH   1   4
BRANCH   1  21
ATOM     21  N   UNL     1      -0.426  12.967  19.709  0.00  0.00    +0.000 N 
BRANCH  21  27
ATOM     22  C   UNL     1      -0.271  15.511  19.804  0.00  0.00    +0.000 A 
ATOM     23  C   UNL     1      -0.650  16.694  20.465  0.00  0.00    +0.000 A 
ATOM     24  C   UNL     1      -1.524  16.663  21.552  0.00  0.00    +0.000 A 
ATOM     25  C   UNL     1      -2.002  15.445  22.011  0.00  0.00    +0.000 A 
ATOM     26  C   UNL     1      -1.622  14.261  21.374  0.00  0.00    +0.000 A 
ATOM     27  C   UNL     1      -0.781  14.271  20.250  0.00  0.00    +0.000 A 
BRANCH  22  29
ATOM     28  C   UNL     1       1.547  16.570  18.689  0.00  0.00    +0.000 C 
ATOM     29  O   UNL     1       0.597  15.508  18.742  0.00  0.00    +0.000 OA
ENDBRANCH  22  29
ENDBRANCH  21  27
BRANCH  21  30
ATOM     30  C   UNL     1      -0.846  12.587  18.341  0.00  0.00    +0.000 C 
BRANCH  30  31
ATOM     31  C   UNL     1      -2.046  11.676  18.176  0.00  0.00    +0.000 A 
ATOM     32  C   UNL     1      -3.233  12.037  18.840  0.00  0.00    +0.000 A 
ATOM     33  C   UNL     1      -4.432  11.371  18.591  0.00  0.00    +0.000 A 
ATOM     34  C   UNL     1      -4.464  10.328  17.673  0.00  0.00    +0.000 A 
ATOM     35  C   UNL     1      -3.293   9.949  17.011  0.00  0.00    +0.000 A 
ATOM     36  C   UNL     1      -2.090  10.622  17.254  0.00  0.00    +0.000 A 
ENDBRANCH  30  31
ENDBRANCH  21  30
ENDBRANCH   1  21
TORSDOF 7
ENDMDL
MODEL 8
REMARK VINA RESULT:      -7.5      1.372      1.746
REMARK  Name = 
REMARK  9 active torsions:
REMARK  status: ('A' for Active; 'I' for Inactive)
REMARK    1  A    between atoms: C_1  and  O_2
REMARK    2  A    between atoms: O_2  and  C_3
REMARK    3  A    between atoms: C_8  and  N_9
REMARK    4  A    between atoms: N_9  and  C_10
REMARK    5  A    between atoms: N_9  and  S_17
REMARK    6  A    between atoms: C_10  and  C_11
REMARK    7  A    between atoms: S_17  and  C_20
REMARK    8  A    between atoms: C_24  and  C_25
REMARK    9  A    between atoms: C_30  and  C_31
REMARK                            x       y       z     vdW  Elec       q    Type
REMARK                         _______ _______ _______ _____ _____    ______ ____
ROOT
ATOM      1  S   UNL     1       0.161  12.827  21.627  0.00  0.00    +0.000 S 
ATOM      2  O   UNL     1       1.433  13.266  21.084  0.00  0.00    +0.000 OA
ATOM      3  O   UNL     1      -0.243  13.266  22.955  0.00  0.00    +0.000 OA
ENDROOT
BRANCH   1   4
ATOM      4  C   UNL     1       0.201  11.051  21.684  0.00  0.00    +0.000 A 
ATOM      5  C   UNL     1      -0.504  10.349  22.669  0.00  0.00    +0.000 A 
ATOM      6  C   UNL     1      -0.526   8.954  22.644  0.00  0.00    +0.000 A 
ATOM      7  C   UNL     1       0.187   8.267  21.662  0.00  0.00    +0.000 A 
ATOM      8  C   UNL     1       0.946   8.976  20.723  0.00  0.00    +0.000 A 
ATOM      9  C   UNL     1       0.962  10.370  20.732  0.00  0.00    +0.000 A 
BRANCH   8  10
ATOM     10  C   UNL     1       1.649   8.239  19.653  0.00  0.00    +0.000 C 
ATOM     11  O   UNL     1       1.572   8.671  18.507  0.00  0.00    +0.000 OA
ATOM     12  N   UNL     1       2.273   7.075  20.047  0.00  0.00    +0.000 N 
ATOM     13  C   UNL     1       2.905   6.237  19.126  0.00  0.00    +0.000 A 
ATOM     14  C   UNL     1       3.745   6.751  18.143  0.00  0.00    +0.000 A 
ATOM     15  C   UNL     1       4.296   5.884  17.201  0.00  0.00    +0.000 A 
ATOM     16  C   UNL     1       5.220   6.387  16.136  0.00  0.00    +0.000 C 
ATOM     17  C   UNL     1       3.941   4.537  17.259  0.00  0.00    +0.000 A 
ATOM     18  C   UNL     1       3.123   4.112  18.297  0.00  0.00    +0.000 A 
ATOM     19  N   UNL     1       2.635   4.925  19.260  0.00  0.00    +0.000 NA
ATOM     20  H   UNL     1       1.900   6.585  20.849  0.00  0.00    +0.000 HD
ENDBRANCH   8  10
ENDBRANCH   1   4
BRANCH   1  21
ATOM     21  N   UNL     1      -1.077  13.222  20.495  0.00  0.00    +0.000 N 
BRANCH  21  27
ATOM     22  C   UNL     1      -2.122  15.544  20.659  0.00  0.00    +0.000 A 
ATOM     23  C   UNL     1      -2.152  16.863  20.170  0.00  0.00    +0.000 A 
ATOM     24  C   UNL     1      -1.267  17.283  19.177  0.00  0.00    +0.000 A 
ATOM     25  C   UNL     1      -0.363  16.380  18.640  0.00  0.00    +0.000 A 
ATOM     26  C   UNL     1      -0.330  15.063  19.105  0.00  0.00    +0.000 A 
ATOM     27  C   UNL     1      -1.180  14.630  20.134  0.00  0.00    +0.000 A 
BRANCH  22  29
ATOM     28  C   UNL     1      -2.830  15.644  22.930  0.00  0.00    +0.000 C 
ATOM     29  O   UNL     1      -2.988  15.096  21.623  0.00  0.00    +0.000 OA
ENDBRANCH  22  29
ENDBRANCH  21  27
BRANCH  21  30
ATOM     30  C   UNL     1      -1.340  12.172  19.485  0.00  0.00    +0.000 C 
BRANCH  30  31
ATOM     31  C   UNL     1      -2.726  12.077  18.880  0.00  0.00    +0.000 A 
ATOM     32  C   UNL     1      -2.831  11.565  17.573  0.00  0.00    +0.000 A 
ATOM     33  C   UNL     1      -4.071  11.261  17.014  0.00  0.00    +0.000 A 
ATOM     34  C   UNL     1      -5.230  11.466  17.753  0.00  0.00    +0.000 A 
ATOM     35  C   UNL     1      -5.146  11.983  19.049  0.00  0.00    +0.000 A 
ATOM     36  C   UNL     1      -3.901  12.282  19.615  0.00  0.00    +0.000 A 
ENDBRANCH  30  31
ENDBRANCH  21  30
ENDBRANCH   1  21
TORSDOF 7
ENDMDL
MODEL 9
REMARK VINA RESULT:      -7.4      1.534      1.943
REMARK  Name = 
REMARK  9 active torsions:
REMARK  status: ('A' for Active; 'I' for Inactive)
REMARK    1  A    between atoms: C_1  and  O_2
REMARK    2  A    between atoms: O_2  and  C_3
REMARK    3  A    between atoms: C_8  and  N_9
REMARK    4  A    between atoms: N_9  and  C_10
REMARK    5  A    between atoms: N_9  and  S_17
REMARK    6  A    between atoms: C_10  and  C_11
REMARK    7  A    between atoms: S_17  and  C_20
REMARK    8  A    between atoms: C_24  and  C_25
REMARK    9  A    between atoms: C_30  and  C_31
REMARK                            x       y       z     vdW  Elec       q    Type
REMARK                         _______ _______ _______ _____ _____    ______ ____
ROOT
ATOM      1  S   UNL     1       1.177  12.146  19.777  0.00  0.00    +0.000 S 
ATOM      2  O   UNL     1       1.905  11.834  18.561  0.00  0.00    +0.000 OA
ATOM      3  O   UNL     1       1.775  13.030  20.765  0.00  0.00    +0.000 OA
ENDROOT
BRANCH   1   4
ATOM      4  C   UNL     1       0.869  10.607  20.612  0.00  0.00    +0.000 A 
ATOM      5  C   UNL     1       0.047  10.558  21.744  0.00  0.00    +0.000 A 
ATOM      6  C   UNL     1      -0.249   9.328  22.333  0.00  0.00    +0.000 A 
ATOM      7  C   UNL     1       0.308   8.159  21.814  0.00  0.00    +0.000 A 
ATOM      8  C   UNL     1       1.186   8.226  20.724  0.00  0.00    +0.000 A 
ATOM      9  C   UNL     1       1.475   9.449  20.121  0.00  0.00    +0.000 A 
BRANCH   8  10
ATOM     10  C   UNL     1       1.722   6.976  20.148  0.00  0.00    +0.000 C 
ATOM     11  O   UNL     1       1.687   5.961  20.836  0.00  0.00    +0.000 OA
ATOM     12  N   UNL     1       2.284   7.094  18.896  0.00  0.00    +0.000 N 
ATOM     13  C   UNL     1       2.902   6.012  18.266  0.00  0.00    +0.000 A 
ATOM     14  C   UNL     1       2.306   4.755  18.247  0.00  0.00    +0.000 A 
ATOM     15  C   UNL     1       2.993   3.688  17.671  0.00  0.00    +0.000 A 
ATOM     16  C   UNL     1       2.386   2.320  17.611  0.00  0.00    +0.000 C 
ATOM     17  C   UNL     1       4.275   3.921  17.176  0.00  0.00    +0.000 A 
ATOM     18  C   UNL     1       4.772   5.217  17.208  0.00  0.00    +0.000 A 
ATOM     19  N   UNL     1       4.093   6.277  17.700  0.00  0.00    +0.000 NA
ATOM     20  H   UNL     1       2.674   7.990  18.634  0.00  0.00    +0.000 HD
ENDBRANCH   8  10
ENDBRANCH   1   4
BRANCH   1  21
ATOM     21  N   UNL     1      -0.376  12.749  19.338  0.00  0.00    +0.000 N 
BRANCH  21  27
ATOM     22  C   UNL     1      -1.213  14.728  20.713  0.00  0.00    +0.000 A 
ATOM     23  C   UNL     1      -1.420  16.118  20.779  0.00  0.00    +0.000 A 
ATOM     24  C   UNL     1      -1.022  16.955  19.736  0.00  0.00    +0.000 A 
ATOM     25  C   UNL     1      -0.441  16.407  18.602  0.00  0.00    +0.000 A 
ATOM     26  C   UNL     1      -0.243  15.027  18.516  0.00  0.00    +0.000 A 
ATOM     27  C   UNL     1      -0.594  14.170  19.572  0.00  0.00    +0.000 A 
BRANCH  22  29
ATOM     28  C   UNL     1      -0.906  13.980  22.953  0.00  0.00    +0.000 C 
ATOM     29  O   UNL     1      -1.606  13.878  21.715  0.00  0.00    +0.000 OA
ENDBRANCH  22  29
ENDBRANCH  21  27
BRANCH  21  30
ATOM     30  C   UNL     1      -0.979  12.087  18.159  0.00  0.00    +0.000 C 
BRANCH  30  31
ATOM     31  C   UNL     1      -2.466  11.795  18.170  0.00  0.00    +0.000 A 
ATOM     32  C   UNL     1      -3.175  12.080  19.353  0.00  0.00    +0.000 A 
ATOM     33  C   UNL     1      -4.568  12.028  19.390  0.00  0.00    +0.000 A 
ATOM     34  C   UNL     1      -5.276  11.688  18.245  0.00  0.00    +0.000 A 
ATOM     35  C   UNL     1      -4.589  11.392  17.064  0.00  0.00    +0.000 A 
ATOM     36  C   UNL     1      -3.191  11.451  17.022  0.00  0.00    +0.000 A 
ENDBRANCH  30  31
ENDBRANCH  21  30
ENDBRANCH   1  21
TORSDOF 7
ENDMDL
