MODEL 1
REMARK VINA RESULT:      -7.5      0.000      0.000
REMARK  Name = 
REMARK  6 active torsions:
REMARK  status: ('A' for Active; 'I' for Inactive)
REMARK    1  A    between atoms: C_1  and  N_2
REMARK    2  A    between atoms: N_2  and  C_3
REMARK    3  A    between atoms: N_2  and  C_14
REMARK    4  A    between atoms: C_3  and  C_4
REMARK    5  A    between atoms: N_6  and  C_7
REMARK    6  A    between atoms: C_14  and  C_15
REMARK                            x       y       z     vdW  Elec       q    Type
REMARK                         _______ _______ _______ _____ _____    ______ ____
ROOT
ATOM      1  C   UNL     1       2.352   4.344  21.510  0.00  0.00    +0.000 C 
ATOM      2  N   UNL     1       2.278   5.186  20.311  0.00  0.00    +0.000 NA
ENDROOT
BRANCH   2   3
ATOM      3  C   UNL     1       1.548   4.458  19.249  0.00  0.00    +0.000 C 
BRANCH   3   4
ATOM      4  C   UNL     1       2.362   4.299  17.953  0.00  0.00    +0.000 C 
ATOM      5  O   UNL     1       1.881   3.687  17.001  0.00  0.00    +0.000 OA
ATOM      6  N   UNL     1       3.642   4.820  18.010  0.00  0.00    +0.000 N 
ATOM      7  H   UNL     1       3.944   5.144  18.926  0.00  0.00    +0.000 HD
BRANCH   6   8
ATOM      8  C   UNL     1       4.562   4.883  16.941  0.00  0.00    +0.000 A 
ATOM      9  C   UNL     1       4.856   6.072  16.264  0.00  0.00    +0.000 A 
ATOM     10  C   UNL     1       5.716   6.082  15.163  0.00  0.00    +0.000 A 
ATOM     11  C   UNL     1       6.302   4.896  14.738  0.00  0.00    +0.000 A 
ATOM     12 CL   UNL     1       7.312   4.897  13.345  0.00  0.00    +0.000 Cl
ATOM     13  C   UNL     1       6.066   3.711  15.431  0.00  0.00    +0.000 A 
ATOM     14  C   UNL     1       5.208   3.707  16.540  0.00  0.00    +0.000 A 
ENDBRANCH   6   8
ENDBRANCH   3   4
ENDBRANCH   2   3
BRANCH   2  15
ATOM     15  C   UNL     1       1.695   6.521  20.625  0.00  0.00    +0.000 C 
BRANCH  15  16
ATOM     16  C   UNL     1       1.927   7.655  19.623  0.00  0.00    +0.000 C 
ATOM     17  O   UNL     1       2.593   7.497  18.594  0.00  0.00    +0.000 OA
ATOM     18  N   UNL     1       1.343   8.885  19.883  0.00  0.00    +0.000 N 
ATOM     19  C   UNL     1       1.400   9.922  18.844  0.00  0.00    +0.000 C 
ATOM     20  C   UNL     1       0.790  11.197  19.421  0.00  0.00    +0.000 C 
ATOM     21  C   UNL     1       0.234  10.708  20.720  0.00  0.00    +0.000 A 
ATOM     22  C   UNL     1      -0.509  11.454  21.625  0.00  0.00    +0.000 A 
ATOM     23  C   UNL     1      -0.885  10.858  22.826  0.00  0.00    +0.000 A 
ATOM     24  C   UNL     1      -0.505   9.542  23.105  0.00  0.00    +0.000 A 
ATOM     25  C   UNL     1       0.244   8.799  22.181  0.00  0.00    +0.000 A 
ATOM     26  C   UNL     1       0.605   9.382  20.978  0.00  0.00    +0.000 A 
ENDBRANCH  15  16
ENDBRANCH   2  15
TORSDOF 5
ENDMDL
MODEL 2
REMARK VINA RESULT:      -7.5      2.913      7.199
REMARK  Name = 
REMARK  6 active torsions:
REMARK  status: ('A' for Active; 'I' for Inactive)
REMARK    1  A    between atoms: C_1  and  N_2
REMARK    2  A    between atoms: N_2  and  C_3
REMARK    3  A    between atoms: N_2  and  C_14
REMARK    4  A    between atoms: C_3  and  C_4
REMARK    5  A    between atoms: N_6  and  C_7
REMARK    6  A    between atoms: C_14  and  C_15
REMARK                            x       y       z     vdW  Elec       q    Type
REMARK                         _______ _______ _______ _____ _____    ______ ____
ROOT
ATOM      1  C   UNL     1       1.686   2.567  21.253  0.00  0.00    +0.000 C 
ATOM      2  N   UNL     1       2.295   3.471  20.271  0.00  0.00    +0.000 NA
ENDROOT
BRANCH   2   3
ATOM      3  C   UNL     1       2.564   4.777  20.913  0.00  0.00    +0.000 C 
BRANCH   3   4
ATOM      4  C   UNL     1       2.194   5.978  20.024  0.00  0.00    +0.000 C 
ATOM      5  O   UNL     1       2.218   5.861  18.800  0.00  0.00    +0.000 OA
ATOM      6  N   UNL     1       1.928   7.146  20.716  0.00  0.00    +0.000 N 
ATOM      7  H   UNL     1       2.116   7.116  21.715  0.00  0.00    +0.000 HD
BRANCH   6   8
ATOM      8  C   UNL     1       1.485   8.362  20.153  0.00  0.00    +0.000 A 
ATOM      9  C   UNL     1       1.822   8.762  18.854  0.00  0.00    +0.000 A 
ATOM     10  C   UNL     1       1.426  10.006  18.358  0.00  0.00    +0.000 A 
ATOM     11  C   UNL     1       0.675  10.859  19.157  0.00  0.00    +0.000 A 
ATOM     12 CL   UNL     1       0.240  12.416  18.568  0.00  0.00    +0.000 Cl
ATOM     13  C   UNL     1       0.284  10.458  20.432  0.00  0.00    +0.000 A 
ATOM     14  C   UNL     1       0.676   9.205  20.925  0.00  0.00    +0.000 A 
ENDBRANCH   6   8
ENDBRANCH   3   4
ENDBRANCH   2   3
BRANCH   2  15
ATOM     15  C   UNL     1       3.500   2.856  19.647  0.00  0.00    +0.000 C 
BRANCH  15  16
ATOM     16  C   UNL     1       3.569   2.812  18.118  0.00  0.00    +0.000 C 
ATOM     17  O   UNL     1       2.819   2.095  17.447  0.00  0.00    +0.000 OA
ATOM     18  N   UNL     1       4.492   3.627  17.482  0.00  0.00    +0.000 N 
ATOM     19  C   UNL     1       4.442   3.735  16.018  0.00  0.00    +0.000 C 
ATOM     20  C   UNL     1       5.621   4.595  15.571  0.00  0.00    +0.000 C 
ATOM     21  C   UNL     1       6.151   5.089  16.879  0.00  0.00    +0.000 A 
ATOM     22  C   UNL     1       7.193   5.990  17.052  0.00  0.00    +0.000 A 
ATOM     23  C   UNL     1       7.608   6.285  18.348  0.00  0.00    +0.000 A 
ATOM     24  C   UNL     1       6.987   5.670  19.440  0.00  0.00    +0.000 A 
ATOM     25  C   UNL     1       5.934   4.764  19.251  0.00  0.00    +0.000 A 
ATOM     26  C   UNL     1       5.506   4.482  17.963  0.00  0.00    +0.000 A 
ENDBRANCH  15  16
ENDBRANCH   2  15
TORSDOF 5
ENDMDL
MODEL 3
REMARK VINA RESULT:      -7.3      5.234      7.433
REMARK  Name = 
REMARK  6 active torsions:
REMARK  status: ('A' for Active; 'I' for Inactive)
REMARK    1  A    between atoms: C_1  and  N_2
REMARK    2  A    between atoms: N_2  and  C_3
REMARK    3  A    between atoms: N_2  and  C_14
REMARK    4  A    between atoms: C_3  and  C_4
REMARK    5  A    between atoms: N_6  and  C_7
REMARK    6  A    between atoms: C_14  and  C_15
REMARK                            x       y       z     vdW  Elec       q    Type
REMARK                         _______ _______ _______ _____ _____    ______ ____
ROOT
ATOM      1  C   UNL     1       6.634   5.242  19.329  0.00  0.00    +0.000 C 
ATOM      2  N   UNL     1       6.416   6.474  18.563  0.00  0.00    +0.000 NA
ENDROOT
BRANCH   2   3
ATOM      3  C   UNL     1       7.681   6.868  17.903  0.00  0.00    +0.000 C 
BRANCH   3   4
ATOM      4  C   UNL     1       7.939   8.384  17.941  0.00  0.00    +0.000 C 
ATOM      5  O   UNL     1       7.346   9.124  17.158  0.00  0.00    +0.000 OA
ATOM      6  N   UNL     1       8.910   8.780  18.843  0.00  0.00    +0.000 N 
ATOM      7  H   UNL     1       9.423   8.027  19.294  0.00  0.00    +0.000 HD
BRANCH   6   8
ATOM      8  C   UNL     1       9.277  10.111  19.137  0.00  0.00    +0.000 A 
ATOM      9  C   UNL     1       9.680  11.020  18.152  0.00  0.00    +0.000 A 
ATOM     10  C   UNL     1      10.107  12.307  18.490  0.00  0.00    +0.000 A 
ATOM     11  C   UNL     1      10.122  12.700  19.822  0.00  0.00    +0.000 A 
ATOM     12 CL   UNL     1      10.706  14.262  20.243  0.00  0.00    +0.000 Cl
ATOM     13  C   UNL     1       9.674  11.829  20.812  0.00  0.00    +0.000 A 
ATOM     14  C   UNL     1       9.239  10.541  20.470  0.00  0.00    +0.000 A 
ENDBRANCH   6   8
ENDBRANCH   3   4
ENDBRANCH   2   3
BRANCH   2  15
ATOM     15  C   UNL     1       5.275   6.326  17.616  0.00  0.00    +0.000 C 
BRANCH  15  16
ATOM     16  C   UNL     1       5.002   4.934  17.038  0.00  0.00    +0.000 C 
ATOM     17  O   UNL     1       5.644   4.483  16.083  0.00  0.00    +0.000 OA
ATOM     18  N   UNL     1       4.018   4.162  17.633  0.00  0.00    +0.000 N 
ATOM     19  C   UNL     1       3.875   2.761  17.212  0.00  0.00    +0.000 C 
ATOM     20  C   UNL     1       2.662   2.178  17.932  0.00  0.00    +0.000 C 
ATOM     21  C   UNL     1       2.319   3.273  18.890  0.00  0.00    +0.000 A 
ATOM     22  C   UNL     1       1.325   3.232  19.858  0.00  0.00    +0.000 A 
ATOM     23  C   UNL     1       1.092   4.375  20.619  0.00  0.00    +0.000 A 
ATOM     24  C   UNL     1       1.842   5.534  20.392  0.00  0.00    +0.000 A 
ATOM     25  C   UNL     1       2.844   5.560  19.412  0.00  0.00    +0.000 A 
ATOM     26  C   UNL     1       3.091   4.420  18.665  0.00  0.00    +0.000 A 
ENDBRANCH  15  16
ENDBRANCH   2  15
TORSDOF 5
ENDMDL
MODEL 4
REMARK VINA RESULT:      -7.2      2.959      6.702
REMARK  Name = 
REMARK  6 active torsions:
REMARK  status: ('A' for Active; 'I' for Inactive)
REMARK    1  A    between atoms: C_1  and  N_2
REMARK    2  A    between atoms: N_2  and  C_3
REMARK    3  A    between atoms: N_2  and  C_14
REMARK    4  A    between atoms: C_3  and  C_4
REMARK    5  A    between atoms: N_6  and  C_7
REMARK    6  A    between atoms: C_14  and  C_15
REMARK                            x       y       z     vdW  Elec       q    Type
REMARK                         _______ _______ _______ _____ _____    ______ ____
ROOT
ATOM      1  C   UNL     1       4.201   1.506  21.222  0.00  0.00    +0.000 C 
ATOM      2  N   UNL     1       3.565   2.522  20.375  0.00  0.00    +0.000 NA
ENDROOT
BRANCH   2   3
ATOM      3  C   UNL     1       2.691   3.376  21.210  0.00  0.00    +0.000 C 
BRANCH   3   4
ATOM      4  C   UNL     1       2.010   4.506  20.418  0.00  0.00    +0.000 C 
ATOM      5  O   UNL     1       1.046   4.252  19.699  0.00  0.00    +0.000 OA
ATOM      6  N   UNL     1       2.620   5.742  20.540  0.00  0.00    +0.000 N 
ATOM      7  H   UNL     1       3.506   5.747  21.040  0.00  0.00    +0.000 HD
BRANCH   6   8
ATOM      8  C   UNL     1       2.154   6.956  19.991  0.00  0.00    +0.000 A 
ATOM      9  C   UNL     1       2.321   7.289  18.642  0.00  0.00    +0.000 A 
ATOM     10  C   UNL     1       1.911   8.532  18.150  0.00  0.00    +0.000 A 
ATOM     11  C   UNL     1       1.317   9.449  19.007  0.00  0.00    +0.000 A 
ATOM     12 CL   UNL     1       0.870  11.001  18.416  0.00  0.00    +0.000 Cl
ATOM     13  C   UNL     1       1.092   9.116  20.341  0.00  0.00    +0.000 A 
ATOM     14  C   UNL     1       1.497   7.865  20.830  0.00  0.00    +0.000 A 
ENDBRANCH   6   8
ENDBRANCH   3   4
ENDBRANCH   2   3
BRANCH   2  15
ATOM     15  C   UNL     1       4.580   3.290  19.600  0.00  0.00    +0.000 C 
BRANCH  15  16
ATOM     16  C   UNL     1       4.298   3.554  18.118  0.00  0.00    +0.000 C 
ATOM     17  O   UNL     1       3.447   2.917  17.488  0.00  0.00    +0.000 OA
ATOM     18  N   UNL     1       5.011   4.560  17.487  0.00  0.00    +0.000 N 
ATOM     19  C   UNL     1       4.622   4.950  16.125  0.00  0.00    +0.000 C 
ATOM     20  C   UNL     1       5.627   5.986  15.629  0.00  0.00    +0.000 C 
ATOM     21  C   UNL     1       6.419   6.260  16.866  0.00  0.00    +0.000 A 
ATOM     22  C   UNL     1       7.431   7.201  16.999  0.00  0.00    +0.000 A 
ATOM     23  C   UNL     1       8.118   7.271  18.207  0.00  0.00    +0.000 A 
ATOM     24  C   UNL     1       7.793   6.399  19.251  0.00  0.00    +0.000 A 
ATOM     25  C   UNL     1       6.767   5.455  19.105  0.00  0.00    +0.000 A 
ATOM     26  C   UNL     1       6.069   5.393  17.910  0.00  0.00    +0.000 A 
ENDBRANCH  15  16
ENDBRANCH   2  15
TORSDOF 5
ENDMDL
MODEL 5
REMARK VINA RESULT:      -7.2      2.941      7.270
REMARK  Name = 
REMARK  6 active torsions:
REMARK  status: ('A' for Active; 'I' for Inactive)
REMARK    1  A    between atoms: C_1  and  N_2
REMARK    2  A    between atoms: N_2  and  C_3
REMARK    3  A    between atoms: N_2  and  C_14
REMARK    4  A    between atoms: C_3  and  C_4
REMARK    5  A    between atoms: N_6  and  C_7
REMARK    6  A    between atoms: C_14  and  C_15
REMARK                            x       y       z     vdW  Elec       q    Type
REMARK                         _______ _______ _______ _____ _____    ______ ____
ROOT
ATOM      1  C   UNL     1       1.237   2.961  20.674  0.00  0.00    +0.000 C 
ATOM      2  N   UNL     1       2.050   3.881  19.871  0.00  0.00    +0.000 NA
ENDROOT
BRANCH   2   3
ATOM      3  C   UNL     1       2.445   5.038  20.706  0.00  0.00    +0.000 C 
BRANCH   3   4
ATOM      4  C   UNL     1       2.239   6.391  20.003  0.00  0.00    +0.000 C 
ATOM      5  O   UNL     1       2.601   6.534  18.837  0.00  0.00    +0.000 OA
ATOM      6  N   UNL     1       1.709   7.383  20.808  0.00  0.00    +0.000 N 
ATOM      7  H   UNL     1       1.622   7.148  21.794  0.00  0.00    +0.000 HD
BRANCH   6   8
ATOM      8  C   UNL     1       1.344   8.682  20.394  0.00  0.00    +0.000 A 
ATOM      9  C   UNL     1       0.898   9.664  21.288  0.00  0.00    +0.000 A 
ATOM     10  C   UNL     1       0.476  10.915  20.832  0.00  0.00    +0.000 A 
ATOM     11  C   UNL     1       0.508  11.199  19.473  0.00  0.00    +0.000 A 
ATOM     12 CL   UNL     1      -0.070  12.717  18.906  0.00  0.00    +0.000 Cl
ATOM     13  C   UNL     1       0.999  10.256  18.573  0.00  0.00    +0.000 A 
ATOM     14  C   UNL     1       1.430   9.004  19.034  0.00  0.00    +0.000 A 
ENDBRANCH   6   8
ENDBRANCH   3   4
ENDBRANCH   2   3
BRANCH   2  15
ATOM     15  C   UNL     1       3.207   3.175  19.251  0.00  0.00    +0.000 C 
BRANCH  15  16
ATOM     16  C   UNL     1       3.364   3.261  17.730  0.00  0.00    +0.000 C 
ATOM     17  O   UNL     1       2.592   2.685  16.956  0.00  0.00    +0.000 OA
ATOM     18  N   UNL     1       4.395   4.036  17.223  0.00  0.00    +0.000 N 
ATOM     19  C   UNL     1       4.444   4.279  15.775  0.00  0.00    +0.000 C 
ATOM     20  C   UNL     1       5.724   5.054  15.473  0.00  0.00    +0.000 C 
ATOM     21  C   UNL     1       6.217   5.375  16.847  0.00  0.00    +0.000 A 
ATOM     22  C   UNL     1       7.327   6.149  17.158  0.00  0.00    +0.000 A 
ATOM     23  C   UNL     1       7.688   6.284  18.496  0.00  0.00    +0.000 A 
ATOM     24  C   UNL     1       6.948   5.639  19.491  0.00  0.00    +0.000 A 
ATOM     25  C   UNL     1       5.828   4.862  19.163  0.00  0.00    +0.000 A 
ATOM     26  C   UNL     1       5.455   4.739  17.835  0.00  0.00    +0.000 A 
ENDBRANCH  15  16
ENDBRANCH   2  15
TORSDOF 5
ENDMDL
MODEL 6
REMARK VINA RESULT:      -7.1      4.944      7.020
REMARK  Name = 
REMARK  6 active torsions:
REMARK  status: ('A' for Active; 'I' for Inactive)
REMARK    1  A    between atoms: C_1  and  N_2
REMARK    2  A    between atoms: N_2  and  C_3
REMARK    3  A    between atoms: N_2  and  C_14
REMARK    4  A    between atoms: C_3  and  C_4
REMARK    5  A    between atoms: N_6  and  C_7
REMARK    6  A    between atoms: C_14  and  C_15
REMARK                            x       y       z     vdW  Elec       q    Type
REMARK                         _______ _______ _______ _____ _____    ______ ____
ROOT
ATOM      1  C   UNL     1       7.174   4.566  17.623  0.00  0.00    +0.000 C 
ATOM      2  N   UNL     1       6.472   5.849  17.733  0.00  0.00    +0.000 NA
ENDROOT
BRANCH   2   3
ATOM      3  C   UNL     1       7.243   6.890  17.017  0.00  0.00    +0.000 C 
BRANCH   3   4
ATOM      4  C   UNL     1       8.001   7.840  17.962  0.00  0.00    +0.000 C 
ATOM      5  O   UNL     1       8.560   7.390  18.960  0.00  0.00    +0.000 OA
ATOM      6  N   UNL     1       7.917   9.178  17.621  0.00  0.00    +0.000 N 
ATOM      7  H   UNL     1       7.276   9.398  16.862  0.00  0.00    +0.000 HD
BRANCH   6   8
ATOM      8  C   UNL     1       8.584  10.243  18.264  0.00  0.00    +0.000 A 
ATOM      9  C   UNL     1       8.651  11.532  17.723  0.00  0.00    +0.000 A 
ATOM     10  C   UNL     1       9.383  12.542  18.353  0.00  0.00    +0.000 A 
ATOM     11  C   UNL     1      10.047  12.270  19.542  0.00  0.00    +0.000 A 
ATOM     12 CL   UNL     1      10.998  13.496  20.285  0.00  0.00    +0.000 Cl
ATOM     13  C   UNL     1       9.948  11.010  20.126  0.00  0.00    +0.000 A 
ATOM     14  C   UNL     1       9.206  10.000  19.495  0.00  0.00    +0.000 A 
ENDBRANCH   6   8
ENDBRANCH   3   4
ENDBRANCH   2   3
BRANCH   2  15
ATOM     15  C   UNL     1       5.060   5.732  17.268  0.00  0.00    +0.000 C 
BRANCH  15  16
ATOM     16  C   UNL     1       4.005   6.596  17.965  0.00  0.00    +0.000 C 
ATOM     17  O   UNL     1       3.785   7.764  17.627  0.00  0.00    +0.000 OA
ATOM     18  N   UNL     1       3.265   6.024  18.988  0.00  0.00    +0.000 N 
ATOM     19  C   UNL     1       2.127   6.775  19.536  0.00  0.00    +0.000 C 
ATOM     20  C   UNL     1       1.563   5.979  20.710  0.00  0.00    +0.000 C 
ATOM     21  C   UNL     1       2.327   4.698  20.605  0.00  0.00    +0.000 A 
ATOM     22  C   UNL     1       2.147   3.571  21.395  0.00  0.00    +0.000 A 
ATOM     23  C   UNL     1       3.001   2.487  21.210  0.00  0.00    +0.000 A 
ATOM     24  C   UNL     1       4.019   2.551  20.254  0.00  0.00    +0.000 A 
ATOM     25  C   UNL     1       4.188   3.695  19.461  0.00  0.00    +0.000 A 
ATOM     26  C   UNL     1       3.330   4.769  19.630  0.00  0.00    +0.000 A 
ENDBRANCH  15  16
ENDBRANCH   2  15
TORSDOF 5
ENDMDL
MODEL 7
REMARK VINA RESULT:      -7.1      5.151      7.462
REMARK  Name = 
REMARK  6 active torsions:
REMARK  status: ('A' for Active; 'I' for Inactive)
REMARK    1  A    between atoms: C_1  and  N_2
REMARK    2  A    between atoms: N_2  and  C_3
REMARK    3  A    between atoms: N_2  and  C_14
REMARK    4  A    between atoms: C_3  and  C_4
REMARK    5  A    between atoms: N_6  and  C_7
REMARK    6  A    between atoms: C_14  and  C_15
REMARK                            x       y       z     vdW  Elec       q    Type
REMARK                         _______ _______ _______ _____ _____    ______ ____
ROOT
ATOM      1  C   UNL     1       7.233   4.938  17.706  0.00  0.00    +0.000 C 
ATOM      2  N   UNL     1       6.511   6.216  17.692  0.00  0.00    +0.000 NA
ENDROOT
BRANCH   2   3
ATOM      3  C   UNL     1       7.344   7.240  17.023  0.00  0.00    +0.000 C 
BRANCH   3   4
ATOM      4  C   UNL     1       8.126   8.125  18.010  0.00  0.00    +0.000 C 
ATOM      5  O   UNL     1       8.678   7.615  18.983  0.00  0.00    +0.000 OA
ATOM      6  N   UNL     1       8.070   9.480  17.735  0.00  0.00    +0.000 N 
ATOM      7  H   UNL     1       7.433   9.751  16.990  0.00  0.00    +0.000 HD
BRANCH   6   8
ATOM      8  C   UNL     1       8.763  10.497  18.427  0.00  0.00    +0.000 A 
ATOM      9  C   UNL     1       9.348  10.295  19.683  0.00  0.00    +0.000 A 
ATOM     10  C   UNL     1       9.962  11.345  20.369  0.00  0.00    +0.000 A 
ATOM     11  C   UNL     1      10.006  12.609  19.796  0.00  0.00    +0.000 A 
ATOM     12 CL   UNL     1      10.707  13.916  20.668  0.00  0.00    +0.000 Cl
ATOM     13  C   UNL     1       9.479  12.819  18.524  0.00  0.00    +0.000 A 
ATOM     14  C   UNL     1       8.870  11.761  17.834  0.00  0.00    +0.000 A 
ENDBRANCH   6   8
ENDBRANCH   3   4
ENDBRANCH   2   3
BRANCH   2  15
ATOM     15  C   UNL     1       5.158   6.063  17.086  0.00  0.00    +0.000 C 
BRANCH  15  16
ATOM     16  C   UNL     1       4.714   4.656  16.676  0.00  0.00    +0.000 C 
ATOM     17  O   UNL     1       5.200   4.072  15.702  0.00  0.00    +0.000 OA
ATOM     18  N   UNL     1       3.753   4.024  17.449  0.00  0.00    +0.000 N 
ATOM     19  C   UNL     1       3.455   2.610  17.181  0.00  0.00    +0.000 C 
ATOM     20  C   UNL     1       2.297   2.196  18.085  0.00  0.00    +0.000 C 
ATOM     21  C   UNL     1       2.156   3.394  18.968  0.00  0.00    +0.000 A 
ATOM     22  C   UNL     1       1.286   3.521  20.043  0.00  0.00    +0.000 A 
ATOM     23  C   UNL     1       1.233   4.740  20.713  0.00  0.00    +0.000 A 
ATOM     24  C   UNL     1       2.035   5.806  20.295  0.00  0.00    +0.000 A 
ATOM     25  C   UNL     1       2.911   5.663  19.210  0.00  0.00    +0.000 A 
ATOM     26  C   UNL     1       2.980   4.447  18.551  0.00  0.00    +0.000 A 
ENDBRANCH  15  16
ENDBRANCH   2  15
TORSDOF 5
ENDMDL
MODEL 8
REMARK VINA RESULT:      -7.0      1.254      1.539
REMARK  Name = 
REMARK  6 active torsions:
REMARK  status: ('A' for Active; 'I' for Inactive)
REMARK    1  A    between atoms: C_1  and  N_2
REMARK    2  A    between atoms: N_2  and  C_3
REMARK    3  A    between atoms: N_2  and  C_14
REMARK    4  A    between atoms: C_3  and  C_4
REMARK    5  A    between atoms: N_6  and  C_7
REMARK    6  A    between atoms: C_14  and  C_15
REMARK                            x       y       z     vdW  Elec       q    Type
REMARK                         _______ _______ _______ _____ _____    ______ ____
ROOT
ATOM      1  C   UNL     1       1.471   4.504  18.656  0.00  0.00    +0.000 C 
ATOM      2  N   UNL     1       2.191   4.613  19.930  0.00  0.00    +0.000 NA
ENDROOT
BRANCH   2   3
ATOM      3  C   UNL     1       3.291   3.623  19.955  0.00  0.00    +0.000 C 
BRANCH   3   4
ATOM      4  C   UNL     1       3.949   3.412  18.579  0.00  0.00    +0.000 C 
ATOM      5  O   UNL     1       3.665   2.419  17.913  0.00  0.00    +0.000 OA
ATOM      6  N   UNL     1       4.892   4.366  18.240  0.00  0.00    +0.000 N 
ATOM      7  H   UNL     1       5.130   5.028  18.975  0.00  0.00    +0.000 HD
BRANCH   6   8
ATOM      8  C   UNL     1       5.577   4.456  17.009  0.00  0.00    +0.000 A 
ATOM      9  C   UNL     1       6.955   4.690  16.925  0.00  0.00    +0.000 A 
ATOM     10  C   UNL     1       7.585   4.846  15.688  0.00  0.00    +0.000 A 
ATOM     11  C   UNL     1       6.840   4.755  14.520  0.00  0.00    +0.000 A 
ATOM     12 CL   UNL     1       7.605   5.009  13.000  0.00  0.00    +0.000 Cl
ATOM     13  C   UNL     1       5.478   4.468  14.580  0.00  0.00    +0.000 A 
ATOM     14  C   UNL     1       4.850   4.305  15.823  0.00  0.00    +0.000 A 
ENDBRANCH   6   8
ENDBRANCH   3   4
ENDBRANCH   2   3
BRANCH   2  15
ATOM     15  C   UNL     1       2.645   6.011  20.174  0.00  0.00    +0.000 C 
BRANCH  15  16
ATOM     16  C   UNL     1       2.631   6.984  18.992  0.00  0.00    +0.000 C 
ATOM     17  O   UNL     1       3.216   6.737  17.932  0.00  0.00    +0.000 OA
ATOM     18  N   UNL     1       1.913   8.162  19.124  0.00  0.00    +0.000 N 
ATOM     19  C   UNL     1       1.736   9.013  17.939  0.00  0.00    +0.000 C 
ATOM     20  C   UNL     1       1.016  10.284  18.380  0.00  0.00    +0.000 C 
ATOM     21  C   UNL     1       0.651   9.955  19.791  0.00  0.00    +0.000 A 
ATOM     22  C   UNL     1      -0.100  10.748  20.649  0.00  0.00    +0.000 A 
ATOM     23  C   UNL     1      -0.282  10.318  21.961  0.00  0.00    +0.000 A 
ATOM     24  C   UNL     1       0.295   9.120  22.393  0.00  0.00    +0.000 A 
ATOM     25  C   UNL     1       1.049   8.329  21.516  0.00  0.00    +0.000 A 
ATOM     26  C   UNL     1       1.218   8.743  20.205  0.00  0.00    +0.000 A 
ENDBRANCH  15  16
ENDBRANCH   2  15
TORSDOF 5
ENDMDL
MODEL 9
REMARK VINA RESULT:      -7.0      4.174      8.641
REMARK  Name = 
REMARK  6 active torsions:
REMARK  status: ('A' for Active; 'I' for Inactive)
REMARK    1  A    between atoms: C_1  and  N_2
REMARK    2  A    between atoms: N_2  and  C_3
REMARK    3  A    between atoms: N_2  and  C_14
REMARK    4  A    between atoms: C_3  and  C_4
REMARK    5  A    between atoms: N_6  and  C_7
REMARK    6  A    between atoms: C_14  and  C_15
REMARK                            x       y       z     vdW  Elec       q    Type
REMARK                         _______ _______ _______ _____ _____    ______ ____
ROOT
ATOM      1  C   UNL     1       1.303   8.784  20.600  0.00  0.00    +0.000 C 
ATOM      2  N   UNL     1       1.534   8.356  19.216  0.00  0.00    +0.000 NA
ENDROOT
BRANCH   2   3
ATOM      3  C   UNL     1       1.631   9.550  18.346  0.00  0.00    +0.000 C 
BRANCH   3   4
ATOM      4  C   UNL     1       0.346  10.395  18.331  0.00  0.00    +0.000 C 
ATOM      5  O   UNL     1       0.328  11.489  18.892  0.00  0.00    +0.000 OA
ATOM      6  N   UNL     1      -0.737   9.786  17.722  0.00  0.00    +0.000 N 
ATOM      7  H   UNL     1      -0.601   8.813  17.457  0.00  0.00    +0.000 HD
BRANCH   6   8
ATOM      8  C   UNL     1      -2.002  10.371  17.499  0.00  0.00    +0.000 A 
ATOM      9  C   UNL     1      -2.636  10.348  16.251  0.00  0.00    +0.000 A 
ATOM     10  C   UNL     1      -3.855  11.001  16.050  0.00  0.00    +0.000 A 
ATOM     11  C   UNL     1      -4.457  11.675  17.104  0.00  0.00    +0.000 A 
ATOM     12 CL   UNL     1      -5.925  12.531  16.841  0.00  0.00    +0.000 Cl
ATOM     13  C   UNL     1      -3.869  11.663  18.367  0.00  0.00    +0.000 A 
ATOM     14  C   UNL     1      -2.650  11.000  18.568  0.00  0.00    +0.000 A 
ENDBRANCH   6   8
ENDBRANCH   3   4
ENDBRANCH   2   3
BRANCH   2  15
ATOM     15  C   UNL     1       2.718   7.455  19.121  0.00  0.00    +0.000 C 
BRANCH  15  16
ATOM     16  C   UNL     1       2.493   5.956  19.338  0.00  0.00    +0.000 C 
ATOM     17  O   UNL     1       1.779   5.524  20.249  0.00  0.00    +0.000 OA
ATOM     18  N   UNL     1       3.098   5.072  18.459  0.00  0.00    +0.000 N 
ATOM     19  C   UNL     1       2.743   3.648  18.539  0.00  0.00    +0.000 C 
ATOM     20  C   UNL     1       3.624   2.889  17.550  0.00  0.00    +0.000 C 
ATOM     21  C   UNL     1       4.294   4.007  16.818  0.00  0.00    +0.000 A 
ATOM     22  C   UNL     1       5.156   3.877  15.738  0.00  0.00    +0.000 A 
ATOM     23  C   UNL     1       5.752   5.025  15.222  0.00  0.00    +0.000 A 
ATOM     24  C   UNL     1       5.486   6.272  15.797  0.00  0.00    +0.000 A 
ATOM     25  C   UNL     1       4.612   6.389  16.886  0.00  0.00    +0.000 A 
ATOM     26  C   UNL     1       4.004   5.251  17.392  0.00  0.00    +0.000 A 
ENDBRANCH  15  16
ENDBRANCH   2  15
TORSDOF 5
ENDMDL
