MODEL 1
REMARK VINA RESULT:      -7.2      0.000      0.000
REMARK  Name = 
REMARK  8 active torsions:
REMARK  status: ('A' for Active; 'I' for Inactive)
REMARK    1  A    between atoms: C_1  and  C_2
REMARK    2  A    between atoms: C_5  and  C_6
REMARK    3  A    between atoms: C_6  and  N_7
REMARK    4  A    between atoms: N_7  and  C_8
REMARK    5  A    between atoms: C_8  and  C_9
REMARK    6  A    between atoms: C_9  and  C_10
REMARK    7  A    between atoms: C_13  and  N_14
REMARK    8  A    between atoms: C_22  and  C_23
REMARK                            x       y       z     vdW  Elec       q    Type
REMARK                         _______ _______ _______ _____ _____    ______ ____
ROOT
ATOM      1  C   UNL     1       0.140  11.117  19.977  0.00  0.00    +0.000 C 
ENDROOT
BRANCH   1   2
ATOM      2  N   UNL     1      -1.121  11.740  20.416  0.00  0.00    +0.000 NA
ATOM      3  H   UNL     1      -1.767  11.004  20.716  0.00  0.00    +0.000 HD
BRANCH   2   4
ATOM      4  C   UNL     1      -1.760  12.495  19.336  0.00  0.00    +0.000 C 
BRANCH   4   9
ATOM      5  C   UNL     1      -7.455  13.248  20.182  0.00  0.00    +0.000 C 
ATOM      6  C   UNL     1      -6.302  12.562  19.537  0.00  0.00    +0.000 A 
ATOM      7  C   UNL     1      -4.985  12.794  19.712  0.00  0.00    +0.000 A 
ATOM      8  N   UNL     1      -4.208  11.945  18.952  0.00  0.00    +0.000 N 
ATOM      9  C   UNL     1      -2.869  11.708  18.724  0.00  0.00    +0.000 A 
ATOM     10  C   UNL     1      -2.874  10.655  17.801  0.00  0.00    +0.000 A 
ATOM     11  C   UNL     1      -1.752   9.954  17.133  0.00  0.00    +0.000 C 
ATOM     12  N   UNL     1      -4.161  10.255  17.487  0.00  0.00    +0.000 NA
ATOM     13  C   UNL     1      -4.906  11.053  18.192  0.00  0.00    +0.000 A 
ATOM     14  S   UNL     1      -6.616  11.240  18.384  0.00  0.00    +0.000 S 
ENDBRANCH   4   9
ENDBRANCH   2   4
ENDBRANCH   1   2
BRANCH   1  15
ATOM     15  C   UNL     1       0.304   9.730  20.626  0.00  0.00    +0.000 C 
BRANCH  15  16
ATOM     16  C   UNL     1       1.205   8.793  19.850  0.00  0.00    +0.000 A 
ATOM     17  C   UNL     1       1.615   9.118  18.556  0.00  0.00    +0.000 A 
ATOM     18  C   UNL     1       2.456   8.258  17.841  0.00  0.00    +0.000 A 
ATOM     19  C   UNL     1       2.918   7.043  18.377  0.00  0.00    +0.000 A 
ATOM     20  C   UNL     1       2.523   6.742  19.684  0.00  0.00    +0.000 A 
ATOM     21  C   UNL     1       1.671   7.597  20.408  0.00  0.00    +0.000 A 
BRANCH  19  22
ATOM     22  N   UNL     1       3.758   6.243  17.609  0.00  0.00    +0.000 N 
ATOM     23  C   UNL     1       4.950   6.789  16.956  0.00  0.00    +0.000 C 
ATOM     24  C   UNL     1       5.236   5.952  15.703  0.00  0.00    +0.000 C 
ATOM     25  C   UNL     1       5.332   4.455  16.014  0.00  0.00    +0.000 C 
ATOM     26  C   UNL     1       4.135   3.972  16.833  0.00  0.00    +0.000 C 
ATOM     27  C   UNL     1       3.914   4.852  18.060  0.00  0.00    +0.000 C 
ENDBRANCH  19  22
ENDBRANCH  15  16
ENDBRANCH   1  15
TORSDOF 6
ENDMDL
MODEL 2
REMARK VINA RESULT:      -7.2      7.715     10.001
REMARK  Name = 
REMARK  8 active torsions:
REMARK  status: ('A' for Active; 'I' for Inactive)
REMARK    1  A    between atoms: C_1  and  C_2
REMARK    2  A    between atoms: C_5  and  C_6
REMARK    3  A    between atoms: C_6  and  N_7
REMARK    4  A    between atoms: N_7  and  C_8
REMARK    5  A    between atoms: C_8  and  C_9
REMARK    6  A    between atoms: C_9  and  C_10
REMARK    7  A    between atoms: C_13  and  N_14
REMARK    8  A    between atoms: C_22  and  C_23
REMARK                            x       y       z     vdW  Elec       q    Type
REMARK                         _______ _______ _______ _____ _____    ______ ____
ROOT
ATOM      1  C   UNL     1       8.502   8.470  18.537  0.00  0.00    +0.000 C 
ENDROOT
BRANCH   1   2
ATOM      2  N   UNL     1       8.589   9.938  18.461  0.00  0.00    +0.000 NA
ATOM      3  H   UNL     1       8.729  10.212  17.484  0.00  0.00    +0.000 HD
BRANCH   2   4
ATOM      4  C   UNL     1       9.711  10.459  19.245  0.00  0.00    +0.000 C 
BRANCH   4   9
ATOM      5  C   UNL     1       7.828  12.578  24.313  0.00  0.00    +0.000 C 
ATOM      6  C   UNL     1       8.319  12.750  22.918  0.00  0.00    +0.000 A 
ATOM      7  C   UNL     1       8.663  11.796  22.028  0.00  0.00    +0.000 A 
ATOM      8  N   UNL     1       9.059  12.338  20.822  0.00  0.00    +0.000 N 
ATOM      9  C   UNL     1       9.493  11.893  19.592  0.00  0.00    +0.000 A 
ATOM     10  C   UNL     1       9.699  13.075  18.869  0.00  0.00    +0.000 A 
ATOM     11  C   UNL     1      10.192  13.286  17.488  0.00  0.00    +0.000 C 
ATOM     12  N   UNL     1       9.390  14.195  19.621  0.00  0.00    +0.000 NA
ATOM     13  C   UNL     1       9.022  13.699  20.764  0.00  0.00    +0.000 A 
ATOM     14  S   UNL     1       8.487  14.395  22.256  0.00  0.00    +0.000 S 
ENDBRANCH   4   9
ENDBRANCH   2   4
ENDBRANCH   1   2
BRANCH   1  15
ATOM     15  C   UNL     1       7.767   7.915  17.302  0.00  0.00    +0.000 C 
BRANCH  15  16
ATOM     16  C   UNL     1       6.708   6.883  17.631  0.00  0.00    +0.000 A 
ATOM     17  C   UNL     1       5.536   6.810  16.877  0.00  0.00    +0.000 A 
ATOM     18  C   UNL     1       4.561   5.850  17.173  0.00  0.00    +0.000 A 
ATOM     19  C   UNL     1       4.707   4.931  18.228  0.00  0.00    +0.000 A 
ATOM     20  C   UNL     1       5.899   4.996  18.957  0.00  0.00    +0.000 A 
ATOM     21  C   UNL     1       6.881   5.964  18.672  0.00  0.00    +0.000 A 
BRANCH  19  22
ATOM     22  N   UNL     1       3.699   4.001  18.457  0.00  0.00    +0.000 N 
ATOM     23  C   UNL     1       3.982   2.698  19.063  0.00  0.00    +0.000 C 
ATOM     24  C   UNL     1       2.933   1.698  18.559  0.00  0.00    +0.000 C 
ATOM     25  C   UNL     1       1.502   2.191  18.791  0.00  0.00    +0.000 C 
ATOM     26  C   UNL     1       1.307   3.617  18.278  0.00  0.00    +0.000 C 
ATOM     27  C   UNL     1       2.385   4.552  18.820  0.00  0.00    +0.000 C 
ENDBRANCH  19  22
ENDBRANCH  15  16
ENDBRANCH   1  15
TORSDOF 6
ENDMDL
MODEL 3
REMARK VINA RESULT:      -7.2      7.719     10.340
REMARK  Name = 
REMARK  8 active torsions:
REMARK  status: ('A' for Active; 'I' for Inactive)
REMARK    1  A    between atoms: C_1  and  C_2
REMARK    2  A    between atoms: C_5  and  C_6
REMARK    3  A    between atoms: C_6  and  N_7
REMARK    4  A    between atoms: N_7  and  C_8
REMARK    5  A    between atoms: C_8  and  C_9
REMARK    6  A    between atoms: C_9  and  C_10
REMARK    7  A    between atoms: C_13  and  N_14
REMARK    8  A    between atoms: C_22  and  C_23
REMARK                            x       y       z     vdW  Elec       q    Type
REMARK                         _______ _______ _______ _____ _____    ______ ____
ROOT
ATOM      1  C   UNL     1       7.670   9.158  17.850  0.00  0.00    +0.000 C 
ENDROOT
BRANCH   1   2
ATOM      2  N   UNL     1       8.917   9.928  17.994  0.00  0.00    +0.000 NA
ATOM      3  H   UNL     1       9.677   9.418  17.535  0.00  0.00    +0.000 HD
BRANCH   2   4
ATOM      4  C   UNL     1       9.281  10.119  19.400  0.00  0.00    +0.000 C 
BRANCH   4   9
ATOM      5  C   UNL     1       8.081  13.403  24.035  0.00  0.00    +0.000 C 
ATOM      6  C   UNL     1       8.742  13.178  22.721  0.00  0.00    +0.000 A 
ATOM      7  C   UNL     1       8.691  12.082  21.935  0.00  0.00    +0.000 A 
ATOM      8  N   UNL     1       9.422  12.246  20.776  0.00  0.00    +0.000 N 
ATOM      9  C   UNL     1       9.727  11.521  19.645  0.00  0.00    +0.000 A 
ATOM     10  C   UNL     1      10.540  12.390  18.907  0.00  0.00    +0.000 A 
ATOM     11  C   UNL     1      11.220  12.199  17.604  0.00  0.00    +0.000 C 
ATOM     12  N   UNL     1      10.715  13.601  19.553  0.00  0.00    +0.000 NA
ATOM     13  C   UNL     1      10.036  13.457  20.652  0.00  0.00    +0.000 A 
ATOM     14  S   UNL     1       9.734  14.479  22.016  0.00  0.00    +0.000 S 
ENDBRANCH   4   9
ENDBRANCH   2   4
ENDBRANCH   1   2
BRANCH   1  15
ATOM     15  C   UNL     1       7.987   7.669  17.611  0.00  0.00    +0.000 C 
BRANCH  15  16
ATOM     16  C   UNL     1       6.806   6.748  17.833  0.00  0.00    +0.000 A 
ATOM     17  C   UNL     1       6.856   5.762  18.820  0.00  0.00    +0.000 A 
ATOM     18  C   UNL     1       5.762   4.916  19.034  0.00  0.00    +0.000 A 
ATOM     19  C   UNL     1       4.581   5.010  18.277  0.00  0.00    +0.000 A 
ATOM     20  C   UNL     1       4.532   6.020  17.311  0.00  0.00    +0.000 A 
ATOM     21  C   UNL     1       5.631   6.870  17.083  0.00  0.00    +0.000 A 
BRANCH  19  22
ATOM     22  N   UNL     1       3.532   4.138  18.552  0.00  0.00    +0.000 N 
ATOM     23  C   UNL     1       3.610   2.716  18.214  0.00  0.00    +0.000 C 
ATOM     24  C   UNL     1       2.185   2.203  17.967  0.00  0.00    +0.000 C 
ATOM     25  C   UNL     1       1.247   2.511  19.137  0.00  0.00    +0.000 C 
ATOM     26  C   UNL     1       1.323   3.980  19.550  0.00  0.00    +0.000 C 
ATOM     27  C   UNL     1       2.768   4.416  19.777  0.00  0.00    +0.000 C 
ENDBRANCH  19  22
ENDBRANCH  15  16
ENDBRANCH   1  15
TORSDOF 6
ENDMDL
MODEL 4
REMARK VINA RESULT:      -7.2      7.735     10.082
REMARK  Name = 
REMARK  8 active torsions:
REMARK  status: ('A' for Active; 'I' for Inactive)
REMARK    1  A    between atoms: C_1  and  C_2
REMARK    2  A    between atoms: C_5  and  C_6
REMARK    3  A    between atoms: C_6  and  N_7
REMARK    4  A    between atoms: N_7  and  C_8
REMARK    5  A    between atoms: C_8  and  C_9
REMARK    6  A    between atoms: C_9  and  C_10
REMARK    7  A    between atoms: C_13  and  N_14
REMARK    8  A    between atoms: C_22  and  C_23
REMARK                            x       y       z     vdW  Elec       q    Type
REMARK                         _______ _______ _______ _____ _____    ______ ____
ROOT
ATOM      1  C   UNL     1       7.851   9.296  17.995  0.00  0.00    +0.000 C 
ENDROOT
BRANCH   1   2
ATOM      2  N   UNL     1       8.991   9.851  18.745  0.00  0.00    +0.000 NA
ATOM      3  H   UNL     1       8.635  10.377  19.548  0.00  0.00    +0.000 HD
BRANCH   2   4
ATOM      4  C   UNL     1       9.792  10.760  17.924  0.00  0.00    +0.000 C 
BRANCH   4   9
ATOM      5  C   UNL     1       6.230  15.344  18.033  0.00  0.00    +0.000 C 
ATOM      6  C   UNL     1       7.480  14.642  18.433  0.00  0.00    +0.000 A 
ATOM      7  C   UNL     1       7.900  13.410  18.076  0.00  0.00    +0.000 A 
ATOM      8  N   UNL     1       9.124  13.103  18.634  0.00  0.00    +0.000 N 
ATOM      9  C   UNL     1      10.017  12.053  18.632  0.00  0.00    +0.000 A 
ATOM     10  C   UNL     1      11.057  12.505  19.454  0.00  0.00    +0.000 A 
ATOM     11  C   UNL     1      12.308  11.835  19.880  0.00  0.00    +0.000 C 
ATOM     12  N   UNL     1      10.817  13.782  19.929  0.00  0.00    +0.000 NA
ATOM     13  C   UNL     1       9.661  14.083  19.416  0.00  0.00    +0.000 A 
ATOM     14  S   UNL     1       8.633  15.473  19.507  0.00  0.00    +0.000 S 
ENDBRANCH   4   9
ENDBRANCH   2   4
ENDBRANCH   1   2
BRANCH   1  15
ATOM     15  C   UNL     1       8.117   7.823  17.631  0.00  0.00    +0.000 C 
BRANCH  15  16
ATOM     16  C   UNL     1       6.953   6.900  17.918  0.00  0.00    +0.000 A 
ATOM     17  C   UNL     1       5.749   7.046  17.226  0.00  0.00    +0.000 A 
ATOM     18  C   UNL     1       4.674   6.186  17.482  0.00  0.00    +0.000 A 
ATOM     19  C   UNL     1       4.749   5.154  18.434  0.00  0.00    +0.000 A 
ATOM     20  C   UNL     1       5.969   5.000  19.100  0.00  0.00    +0.000 A 
ATOM     21  C   UNL     1       7.052   5.865  18.855  0.00  0.00    +0.000 A 
BRANCH  19  22
ATOM     22  N   UNL     1       3.641   4.335  18.629  0.00  0.00    +0.000 N 
ATOM     23  C   UNL     1       2.801   3.906  17.509  0.00  0.00    +0.000 C 
ATOM     24  C   UNL     1       1.382   3.663  18.041  0.00  0.00    +0.000 C 
ATOM     25  C   UNL     1       1.366   2.701  19.232  0.00  0.00    +0.000 C 
ATOM     26  C   UNL     1       2.376   3.111  20.302  0.00  0.00    +0.000 C 
ATOM     27  C   UNL     1       3.761   3.334  19.699  0.00  0.00    +0.000 C 
ENDBRANCH  19  22
ENDBRANCH  15  16
ENDBRANCH   1  15
TORSDOF 6
ENDMDL
MODEL 5
REMARK VINA RESULT:      -7.2      7.903     10.966
REMARK  Name = 
REMARK  8 active torsions:
REMARK  status: ('A' for Active; 'I' for Inactive)
REMARK    1  A    between atoms: C_1  and  C_2
REMARK    2  A    between atoms: C_5  and  C_6
REMARK    3  A    between atoms: C_6  and  N_7
REMARK    4  A    between atoms: N_7  and  C_8
REMARK    5  A    between atoms: C_8  and  C_9
REMARK    6  A    between atoms: C_9  and  C_10
REMARK    7  A    between atoms: C_13  and  N_14
REMARK    8  A    between atoms: C_22  and  C_23
REMARK                            x       y       z     vdW  Elec       q    Type
REMARK                         _______ _______ _______ _____ _____    ______ ____
ROOT
ATOM      1  C   UNL     1       8.013   9.305  17.889  0.00  0.00    +0.000 C 
ENDROOT
BRANCH   1   2
ATOM      2  N   UNL     1       9.118  10.151  18.375  0.00  0.00    +0.000 NA
ATOM      3  H   UNL     1       9.230  10.004  19.382  0.00  0.00    +0.000 HD
BRANCH   2   4
ATOM      4  C   UNL     1       8.855  11.574  18.149  0.00  0.00    +0.000 C 
BRANCH   4   9
ATOM      5  C   UNL     1      12.321  16.126  17.165  0.00  0.00    +0.000 C 
ATOM      6  C   UNL     1      11.613  15.188  18.078  0.00  0.00    +0.000 A 
ATOM      7  C   UNL     1      10.822  14.143  17.755  0.00  0.00    +0.000 A 
ATOM      8  N   UNL     1      10.350  13.491  18.876  0.00  0.00    +0.000 N 
ATOM      9  C   UNL     1       9.550  12.409  19.171  0.00  0.00    +0.000 A 
ATOM     10  C   UNL     1       9.546  12.375  20.571  0.00  0.00    +0.000 A 
ATOM     11  C   UNL     1       8.849  11.465  21.511  0.00  0.00    +0.000 C 
ATOM     12  N   UNL     1      10.322  13.385  21.110  0.00  0.00    +0.000 NA
ATOM     13  C   UNL     1      10.769  14.014  20.063  0.00  0.00    +0.000 A 
ATOM     14  S   UNL     1      11.792  15.392  19.838  0.00  0.00    +0.000 S 
ENDBRANCH   4   9
ENDBRANCH   2   4
ENDBRANCH   1   2
BRANCH   1  15
ATOM     15  C   UNL     1       8.384   7.816  18.019  0.00  0.00    +0.000 C 
BRANCH  15  16
ATOM     16  C   UNL     1       7.189   6.888  18.068  0.00  0.00    +0.000 A 
ATOM     17  C   UNL     1       7.169   5.809  18.953  0.00  0.00    +0.000 A 
ATOM     18  C   UNL     1       6.061   4.956  19.007  0.00  0.00    +0.000 A 
ATOM     19  C   UNL     1       4.934   5.136  18.185  0.00  0.00    +0.000 A 
ATOM     20  C   UNL     1       4.954   6.238  17.324  0.00  0.00    +0.000 A 
ATOM     21  C   UNL     1       6.068   7.096  17.256  0.00  0.00    +0.000 A 
BRANCH  19  22
ATOM     22  N   UNL     1       3.867   4.252  18.301  0.00  0.00    +0.000 N 
ATOM     23  C   UNL     1       4.017   2.953  18.960  0.00  0.00    +0.000 C 
ATOM     24  C   UNL     1       2.999   1.983  18.345  0.00  0.00    +0.000 C 
ATOM     25  C   UNL     1       1.572   2.537  18.386  0.00  0.00    +0.000 C 
ATOM     26  C   UNL     1       1.502   3.958  17.828  0.00  0.00    +0.000 C 
ATOM     27  C   UNL     1       2.542   4.862  18.486  0.00  0.00    +0.000 C 
ENDBRANCH  19  22
ENDBRANCH  15  16
ENDBRANCH   1  15
TORSDOF 6
ENDMDL
MODEL 6
REMARK VINA RESULT:      -7.1      3.904      9.704
REMARK  Name = 
REMARK  8 active torsions:
REMARK  status: ('A' for Active; 'I' for Inactive)
REMARK    1  A    between atoms: C_1  and  C_2
REMARK    2  A    between atoms: C_5  and  C_6
REMARK    3  A    between atoms: C_6  and  N_7
REMARK    4  A    between atoms: N_7  and  C_8
REMARK    5  A    between atoms: C_8  and  C_9
REMARK    6  A    between atoms: C_9  and  C_10
REMARK    7  A    between atoms: C_13  and  N_14
REMARK    8  A    between atoms: C_22  and  C_23
REMARK                            x       y       z     vdW  Elec       q    Type
REMARK                         _______ _______ _______ _____ _____    ______ ____
ROOT
ATOM      1  C   UNL     1       2.393   7.698  18.081  0.00  0.00    +0.000 C 
ENDROOT
BRANCH   1   2
ATOM      2  N   UNL     1       3.819   7.855  17.745  0.00  0.00    +0.000 NA
ATOM      3  H   UNL     1       3.934   8.698  17.176  0.00  0.00    +0.000 HD
BRANCH   2   4
ATOM      4  C   UNL     1       4.327   6.715  16.979  0.00  0.00    +0.000 C 
BRANCH   4   9
ATOM      5  C   UNL     1       1.326   2.158  18.963  0.00  0.00    +0.000 C 
ATOM      6  C   UNL     1       2.575   2.960  18.851  0.00  0.00    +0.000 A 
ATOM      7  C   UNL     1       2.773   4.111  18.175  0.00  0.00    +0.000 A 
ATOM      8  N   UNL     1       4.065   4.574  18.315  0.00  0.00    +0.000 N 
ATOM      9  C   UNL     1       4.823   5.644  17.890  0.00  0.00    +0.000 A 
ATOM     10  C   UNL     1       6.077   5.408  18.468  0.00  0.00    +0.000 A 
ATOM     11  C   UNL     1       7.340   6.177  18.373  0.00  0.00    +0.000 C 
ATOM     12  N   UNL     1       6.083   4.251  19.226  0.00  0.00    +0.000 NA
ATOM     13  C   UNL     1       4.870   3.799  19.096  0.00  0.00    +0.000 A 
ATOM     14  S   UNL     1       4.038   2.408  19.703  0.00  0.00    +0.000 S 
ENDBRANCH   4   9
ENDBRANCH   2   4
ENDBRANCH   1   2
BRANCH   1  15
ATOM     15  C   UNL     1       2.219   7.537  19.603  0.00  0.00    +0.000 C 
BRANCH  15  16
ATOM     16  C   UNL     1       1.333   8.590  20.233  0.00  0.00    +0.000 A 
ATOM     17  C   UNL     1       0.905   9.691  19.489  0.00  0.00    +0.000 A 
ATOM     18  C   UNL     1       0.077  10.660  20.067  0.00  0.00    +0.000 A 
ATOM     19  C   UNL     1      -0.354  10.580  21.403  0.00  0.00    +0.000 A 
ATOM     20  C   UNL     1       0.058   9.458  22.130  0.00  0.00    +0.000 A 
ATOM     21  C   UNL     1       0.898   8.483  21.559  0.00  0.00    +0.000 A 
BRANCH  19  22
ATOM     22  N   UNL     1      -1.183  11.578  21.905  0.00  0.00    +0.000 N 
ATOM     23  C   UNL     1      -1.766  11.485  23.245  0.00  0.00    +0.000 C 
ATOM     24  C   UNL     1      -3.088  12.264  23.246  0.00  0.00    +0.000 C 
ATOM     25  C   UNL     1      -2.916  13.700  22.743  0.00  0.00    +0.000 C 
ATOM     26  C   UNL     1      -2.161  13.746  21.416  0.00  0.00    +0.000 C 
ATOM     27  C   UNL     1      -0.861  12.951  21.492  0.00  0.00    +0.000 C 
ENDBRANCH  19  22
ENDBRANCH  15  16
ENDBRANCH   1  15
TORSDOF 6
ENDMDL
MODEL 7
REMARK VINA RESULT:      -7.1      8.135     10.466
REMARK  Name = 
REMARK  8 active torsions:
REMARK  status: ('A' for Active; 'I' for Inactive)
REMARK    1  A    between atoms: C_1  and  C_2
REMARK    2  A    between atoms: C_5  and  C_6
REMARK    3  A    between atoms: C_6  and  N_7
REMARK    4  A    between atoms: N_7  and  C_8
REMARK    5  A    between atoms: C_8  and  C_9
REMARK    6  A    between atoms: C_9  and  C_10
REMARK    7  A    between atoms: C_13  and  N_14
REMARK    8  A    between atoms: C_22  and  C_23
REMARK                            x       y       z     vdW  Elec       q    Type
REMARK                         _______ _______ _______ _____ _____    ______ ____
ROOT
ATOM      1  C   UNL     1       8.608   8.562  18.690  0.00  0.00    +0.000 C 
ENDROOT
BRANCH   1   2
ATOM      2  N   UNL     1       8.818  10.020  18.688  0.00  0.00    +0.000 NA
ATOM      3  H   UNL     1       9.201  10.299  17.780  0.00  0.00    +0.000 HD
BRANCH   2   4
ATOM      4  C   UNL     1       9.762  10.436  19.728  0.00  0.00    +0.000 C 
BRANCH   4   9
ATOM      5  C   UNL     1      11.061  15.325  16.877  0.00  0.00    +0.000 C 
ATOM      6  C   UNL     1      10.463  14.595  18.029  0.00  0.00    +0.000 A 
ATOM      7  C   UNL     1      10.427  13.264  18.249  0.00  0.00    +0.000 A 
ATOM      8  N   UNL     1       9.800  12.957  19.439  0.00  0.00    +0.000 N 
ATOM      9  C   UNL     1       9.481  11.833  20.169  0.00  0.00    +0.000 A 
ATOM     10  C   UNL     1       8.834  12.348  21.299  0.00  0.00    +0.000 A 
ATOM     11  C   UNL     1       8.223  11.655  22.458  0.00  0.00    +0.000 C 
ATOM     12  N   UNL     1       8.772  13.730  21.269  0.00  0.00    +0.000 NA
ATOM     13  C   UNL     1       9.354  14.033  20.147  0.00  0.00    +0.000 A 
ATOM     14  S   UNL     1       9.692  15.525  19.337  0.00  0.00    +0.000 S 
ENDBRANCH   4   9
ENDBRANCH   2   4
ENDBRANCH   1   2
BRANCH   1  15
ATOM     15  C   UNL     1       7.844   8.132  17.424  0.00  0.00    +0.000 C 
BRANCH  15  16
ATOM     16  C   UNL     1       6.799   7.065  17.671  0.00  0.00    +0.000 A 
ATOM     17  C   UNL     1       7.054   6.019  18.560  0.00  0.00    +0.000 A 
ATOM     18  C   UNL     1       6.086   5.038  18.798  0.00  0.00    +0.000 A 
ATOM     19  C   UNL     1       4.832   5.050  18.163  0.00  0.00    +0.000 A 
ATOM     20  C   UNL     1       4.577   6.118  17.296  0.00  0.00    +0.000 A 
ATOM     21  C   UNL     1       5.548   7.105  17.044  0.00  0.00    +0.000 A 
BRANCH  19  22
ATOM     22  N   UNL     1       3.917   4.044  18.456  0.00  0.00    +0.000 N 
ATOM     23  C   UNL     1       3.089   3.435  17.412  0.00  0.00    +0.000 C 
ATOM     24  C   UNL     1       1.787   2.945  18.060  0.00  0.00    +0.000 C 
ATOM     25  C   UNL     1       2.043   2.030  19.260  0.00  0.00    +0.000 C 
ATOM     26  C   UNL     1       3.037   2.651  20.241  0.00  0.00    +0.000 C 
ATOM     27  C   UNL     1       4.304   3.113  19.525  0.00  0.00    +0.000 C 
ENDBRANCH  19  22
ENDBRANCH  15  16
ENDBRANCH   1  15
TORSDOF 6
ENDMDL
MODEL 8
REMARK VINA RESULT:      -7.1      4.174     10.325
REMARK  Name = 
REMARK  8 active torsions:
REMARK  status: ('A' for Active; 'I' for Inactive)
REMARK    1  A    between atoms: C_1  and  C_2
REMARK    2  A    between atoms: C_5  and  C_6
REMARK    3  A    between atoms: C_6  and  N_7
REMARK    4  A    between atoms: N_7  and  C_8
REMARK    5  A    between atoms: C_8  and  C_9
REMARK    6  A    between atoms: C_9  and  C_10
REMARK    7  A    between atoms: C_13  and  N_14
REMARK    8  A    between atoms: C_22  and  C_23
REMARK                            x       y       z     vdW  Elec       q    Type
REMARK                         _______ _______ _______ _____ _____    ______ ____
ROOT
ATOM      1  C   UNL     1       3.176   5.542  17.782  0.00  0.00    +0.000 C 
ENDROOT
BRANCH   1   2
ATOM      2  N   UNL     1       3.406   4.087  17.775  0.00  0.00    +0.000 NA
ATOM      3  H   UNL     1       2.676   3.633  18.333  0.00  0.00    +0.000 HD
BRANCH   2   4
ATOM      4  C   UNL     1       4.705   3.737  18.353  0.00  0.00    +0.000 C 
BRANCH   4   9
ATOM      5  C   UNL     1       5.599   3.466  12.623  0.00  0.00    +0.000 C 
ATOM      6  C   UNL     1       5.954   3.947  13.987  0.00  0.00    +0.000 A 
ATOM      7  C   UNL     1       5.338   3.675  15.156  0.00  0.00    +0.000 A 
ATOM      8  N   UNL     1       5.965   4.290  16.221  0.00  0.00    +0.000 N 
ATOM      9  C   UNL     1       5.814   4.377  17.588  0.00  0.00    +0.000 A 
ATOM     10  C   UNL     1       6.872   5.205  17.984  0.00  0.00    +0.000 A 
ATOM     11  C   UNL     1       7.251   5.709  19.325  0.00  0.00    +0.000 C 
ATOM     12  N   UNL     1       7.646   5.597  16.906  0.00  0.00    +0.000 NA
ATOM     13  C   UNL     1       7.062   5.030  15.893  0.00  0.00    +0.000 A 
ATOM     14  S   UNL     1       7.371   5.007  14.190  0.00  0.00    +0.000 S 
ENDBRANCH   4   9
ENDBRANCH   2   4
ENDBRANCH   1   2
BRANCH   1  15
ATOM     15  C   UNL     1       3.016   6.050  19.228  0.00  0.00    +0.000 C 
BRANCH  15  16
ATOM     16  C   UNL     1       2.266   7.361  19.338  0.00  0.00    +0.000 A 
ATOM     17  C   UNL     1       1.676   7.737  20.545  0.00  0.00    +0.000 A 
ATOM     18  C   UNL     1       0.992   8.953  20.652  0.00  0.00    +0.000 A 
ATOM     19  C   UNL     1       0.862   9.839  19.568  0.00  0.00    +0.000 A 
ATOM     20  C   UNL     1       1.482   9.465  18.372  0.00  0.00    +0.000 A 
ATOM     21  C   UNL     1       2.165   8.239  18.253  0.00  0.00    +0.000 A 
BRANCH  19  22
ATOM     22  N   UNL     1       0.173  11.034  19.752  0.00  0.00    +0.000 N 
ATOM     23  C   UNL     1      -0.226  11.490  21.085  0.00  0.00    +0.000 C 
ATOM     24  C   UNL     1      -1.485  12.355  20.938  0.00  0.00    +0.000 C 
ATOM     25  C   UNL     1      -1.295  13.489  19.927  0.00  0.00    +0.000 C 
ATOM     26  C   UNL     1      -0.727  12.976  18.605  0.00  0.00    +0.000 C 
ATOM     27  C   UNL     1       0.520  12.126  18.831  0.00  0.00    +0.000 C 
ENDBRANCH  19  22
ENDBRANCH  15  16
ENDBRANCH   1  15
TORSDOF 6
ENDMDL
MODEL 9
REMARK VINA RESULT:      -7.1      1.323      2.534
REMARK  Name = 
REMARK  8 active torsions:
REMARK  status: ('A' for Active; 'I' for Inactive)
REMARK    1  A    between atoms: C_1  and  C_2
REMARK    2  A    between atoms: C_5  and  C_6
REMARK    3  A    between atoms: C_6  and  N_7
REMARK    4  A    between atoms: N_7  and  C_8
REMARK    5  A    between atoms: C_8  and  C_9
REMARK    6  A    between atoms: C_9  and  C_10
REMARK    7  A    between atoms: C_13  and  N_14
REMARK    8  A    between atoms: C_22  and  C_23
REMARK                            x       y       z     vdW  Elec       q    Type
REMARK                         _______ _______ _______ _____ _____    ______ ____
ROOT
ATOM      1  C   UNL     1      -0.271  10.460  21.486  0.00  0.00    +0.000 C 
ENDROOT
BRANCH   1   2
ATOM      2  N   UNL     1      -1.279  11.503  21.744  0.00  0.00    +0.000 NA
ATOM      3  H   UNL     1      -2.179  11.055  21.936  0.00  0.00    +0.000 HD
BRANCH   2   4
ATOM      4  C   UNL     1      -1.449  12.393  20.594  0.00  0.00    +0.000 C 
BRANCH   4   9
ATOM      5  C   UNL     1      -3.263  10.802  15.313  0.00  0.00    +0.000 C 
ATOM      6  C   UNL     1      -3.517  11.264  16.705  0.00  0.00    +0.000 A 
ATOM      7  C   UNL     1      -2.618  11.531  17.675  0.00  0.00    +0.000 A 
ATOM      8  N   UNL     1      -3.228  11.954  18.838  0.00  0.00    +0.000 N 
ATOM      9  C   UNL     1      -2.856  12.358  20.102  0.00  0.00    +0.000 A 
ATOM     10  C   UNL     1      -4.077  12.639  20.729  0.00  0.00    +0.000 A 
ATOM     11  C   UNL     1      -4.369  13.092  22.110  0.00  0.00    +0.000 C 
ATOM     12  N   UNL     1      -5.149  12.430  19.880  0.00  0.00    +0.000 NA
ATOM     13  C   UNL     1      -4.589  12.023  18.780  0.00  0.00    +0.000 A 
ATOM     14  S   UNL     1      -5.196  11.539  17.233  0.00  0.00    +0.000 S 
ENDBRANCH   4   9
ENDBRANCH   2   4
ENDBRANCH   1   2
BRANCH   1  15
ATOM     15  C   UNL     1       0.425  10.713  20.136  0.00  0.00    +0.000 C 
BRANCH  15  16
ATOM     16  C   UNL     1       1.157   9.507  19.588  0.00  0.00    +0.000 A 
ATOM     17  C   UNL     1       1.644   9.510  18.280  0.00  0.00    +0.000 A 
ATOM     18  C   UNL     1       2.331   8.400  17.775  0.00  0.00    +0.000 A 
ATOM     19  C   UNL     1       2.557   7.244  18.543  0.00  0.00    +0.000 A 
ATOM     20  C   UNL     1       2.089   7.263  19.861  0.00  0.00    +0.000 A 
ATOM     21  C   UNL     1       1.390   8.372  20.374  0.00  0.00    +0.000 A 
BRANCH  19  22
ATOM     22  N   UNL     1       3.254   6.182  17.975  0.00  0.00    +0.000 N 
ATOM     23  C   UNL     1       4.636   6.333  17.515  0.00  0.00    +0.000 C 
ATOM     24  C   UNL     1       4.873   5.334  16.375  0.00  0.00    +0.000 C 
ATOM     25  C   UNL     1       4.505   3.901  16.773  0.00  0.00    +0.000 C 
ATOM     26  C   UNL     1       3.110   3.829  17.392  0.00  0.00    +0.000 C 
ATOM     27  C   UNL     1       2.950   4.849  18.515  0.00  0.00    +0.000 C 
ENDBRANCH  19  22
ENDBRANCH  15  16
ENDBRANCH   1  15
TORSDOF 6
ENDMDL
