MODEL 1
REMARK VINA RESULT:      -8.6      0.000      0.000
REMARK  Name = 
REMARK  11 active torsions:
REMARK  status: ('A' for Active; 'I' for Inactive)
REMARK    1  A    between atoms: C_1  and  C_2
REMARK    2  A    between atoms: C_2  and  O_3
REMARK    3  A    between atoms: O_3  and  C_4
REMARK    4  A    between atoms: N_6  and  C_7
REMARK    5  A    between atoms: C_7  and  C_8
REMARK    6  A    between atoms: N_10  and  C_11
REMARK    7  A    between atoms: C_14  and  N_15
REMARK    8  A    between atoms: N_15  and  C_16
REMARK    9  A    between atoms: N_15  and  C_18
REMARK   10  A    between atoms: C_16  and  C_17
REMARK   11  A    between atoms: C_18  and  C_19
REMARK                            x       y       z     vdW  Elec       q    Type
REMARK                         _______ _______ _______ _____ _____    ______ ____
ROOT
ATOM      1  C   UNL     1       4.588   4.824  17.189  0.00  0.00    +0.000 C 
ATOM      2  C   UNL     1       5.543   4.006  18.071  0.00  0.00    +0.000 C 
ATOM      3  C   UNL     1       4.980   3.640  19.444  0.00  0.00    +0.000 C 
ATOM      4  C   UNL     1       3.505   3.338  19.473  0.00  0.00    +0.000 A 
ATOM      5  C   UNL     1       2.935   2.878  20.669  0.00  0.00    +0.000 A 
ATOM      6  C   UNL     1       1.559   2.657  20.766  0.00  0.00    +0.000 A 
ATOM      7  C   UNL     1       0.742   2.906  19.666  0.00  0.00    +0.000 A 
ATOM      8  C   UNL     1       1.298   3.352  18.470  0.00  0.00    +0.000 A 
ATOM      9  C   UNL     1       2.682   3.571  18.362  0.00  0.00    +0.000 A 
ATOM     10  C   UNL     1       3.271   4.007  17.043  0.00  0.00    +0.000 C 
ENDROOT
BRANCH   1  13
ATOM     11  C   UNL     1       6.493   5.054  15.567  0.00  0.00    +0.000 C 
ATOM     12  O   UNL     1       7.386   4.844  16.372  0.00  0.00    +0.000 OA
ATOM     13  N   UNL     1       5.162   5.004  15.838  0.00  0.00    +0.000 N 
ATOM     14  H   UNL     1       4.570   5.340  15.090  0.00  0.00    +0.000 HD
BRANCH  11  15
ATOM     15  O   UNL     1       6.645   5.469  14.285  0.00  0.00    +0.000 OA
BRANCH  15  17
ATOM     16  C   UNL     1       6.121   3.590  12.824  0.00  0.00    +0.000 C 
ATOM     17  C   UNL     1       7.193   4.516  13.364  0.00  0.00    +0.000 C 
ENDBRANCH  15  17
ENDBRANCH  11  15
ENDBRANCH   1  13
BRANCH   1  18
ATOM     18  C   UNL     1       4.158   6.244  17.699  0.00  0.00    +0.000 C 
ATOM     19  O   UNL     1       4.975   7.171  17.683  0.00  0.00    +0.000 OA
ATOM     20  N   UNL     1       2.915   6.339  18.306  0.00  0.00    +0.000 N 
ATOM     21  H   UNL     1       2.545   5.487  18.718  0.00  0.00    +0.000 HD
BRANCH  20  22
ATOM     22  C   UNL     1       2.276   7.558  18.651  0.00  0.00    +0.000 A 
ATOM     23  C   UNL     1       1.994   8.551  17.715  0.00  0.00    +0.000 A 
ATOM     24  C   UNL     1       1.374   9.749  18.093  0.00  0.00    +0.000 A 
ATOM     25  C   UNL     1       0.978  10.001  19.409  0.00  0.00    +0.000 A 
ATOM     26  C   UNL     1       1.226   8.974  20.334  0.00  0.00    +0.000 A 
ATOM     27  C   UNL     1       1.871   7.775  19.969  0.00  0.00    +0.000 A 
BRANCH  25  28
ATOM     28  N   UNL     1       0.406  11.209  19.783  0.00  0.00    +0.000 N 
BRANCH  28  29
ATOM     29  C   UNL     1      -0.804  11.219  20.617  0.00  0.00    +0.000 C 
ATOM     30  C   UNL     1      -0.506  11.797  21.991  0.00  0.00    +0.000 C 
ENDBRANCH  28  29
BRANCH  28  31
ATOM     31  C   UNL     1       0.771  12.463  19.117  0.00  0.00    +0.000 C 
ATOM     32  C   UNL     1      -0.432  13.058  18.397  0.00  0.00    +0.000 C 
ENDBRANCH  28  31
ENDBRANCH  25  28
ENDBRANCH  20  22
ENDBRANCH   1  18
TORSDOF 8
ENDMDL
MODEL 2
REMARK VINA RESULT:      -8.5      0.722      1.057
REMARK  Name = 
REMARK  11 active torsions:
REMARK  status: ('A' for Active; 'I' for Inactive)
REMARK    1  A    between atoms: C_1  and  C_2
REMARK    2  A    between atoms: C_2  and  O_3
REMARK    3  A    between atoms: O_3  and  C_4
REMARK    4  A    between atoms: N_6  and  C_7
REMARK    5  A    between atoms: C_7  and  C_8
REMARK    6  A    between atoms: N_10  and  C_11
REMARK    7  A    between atoms: C_14  and  N_15
REMARK    8  A    between atoms: N_15  and  C_16
REMARK    9  A    between atoms: N_15  and  C_18
REMARK   10  A    between atoms: C_16  and  C_17
REMARK   11  A    between atoms: C_18  and  C_19
REMARK                            x       y       z     vdW  Elec       q    Type
REMARK                         _______ _______ _______ _____ _____    ______ ____
ROOT
ATOM      1  C   UNL     1       4.552   4.483  17.311  0.00  0.00    +0.000 C 
ATOM      2  C   UNL     1       5.459   3.718  18.286  0.00  0.00    +0.000 C 
ATOM      3  C   UNL     1       4.862   3.515  19.679  0.00  0.00    +0.000 C 
ATOM      4  C   UNL     1       3.375   3.277  19.711  0.00  0.00    +0.000 A 
ATOM      5  C   UNL     1       2.770   2.961  20.936  0.00  0.00    +0.000 A 
ATOM      6  C   UNL     1       1.385   2.807  21.030  0.00  0.00    +0.000 A 
ATOM      7  C   UNL     1       0.594   2.979  19.897  0.00  0.00    +0.000 A 
ATOM      8  C   UNL     1       1.185   3.280  18.672  0.00  0.00    +0.000 A 
ATOM      9  C   UNL     1       2.579   3.431  18.568  0.00  0.00    +0.000 A 
ATOM     10  C   UNL     1       3.204   3.709  17.223  0.00  0.00    +0.000 C 
ENDROOT
BRANCH   1  13
ATOM     11  C   UNL     1       6.481   4.630  15.708  0.00  0.00    +0.000 C 
ATOM     12  O   UNL     1       7.362   4.627  16.552  0.00  0.00    +0.000 OA
ATOM     13  N   UNL     1       5.151   4.504  15.959  0.00  0.00    +0.000 N 
ATOM     14  H   UNL     1       4.557   4.667  15.157  0.00  0.00    +0.000 HD
BRANCH  11  15
ATOM     15  O   UNL     1       6.638   4.856  14.381  0.00  0.00    +0.000 OA
BRANCH  15  17
ATOM     16  C   UNL     1       6.774   3.765  12.205  0.00  0.00    +0.000 C 
ATOM     17  C   UNL     1       5.992   3.933  13.493  0.00  0.00    +0.000 C 
ENDBRANCH  15  17
ENDBRANCH  11  15
ENDBRANCH   1  13
BRANCH   1  18
ATOM     18  C   UNL     1       4.174   5.963  17.669  0.00  0.00    +0.000 C 
ATOM     19  O   UNL     1       4.996   6.865  17.476  0.00  0.00    +0.000 OA
ATOM     20  N   UNL     1       2.983   6.155  18.353  0.00  0.00    +0.000 N 
ATOM     21  H   UNL     1       2.639   5.368  18.895  0.00  0.00    +0.000 HD
BRANCH  20  22
ATOM     22  C   UNL     1       2.383   7.419  18.589  0.00  0.00    +0.000 A 
ATOM     23  C   UNL     1       2.218   8.373  17.588  0.00  0.00    +0.000 A 
ATOM     24  C   UNL     1       1.633   9.617  17.859  0.00  0.00    +0.000 A 
ATOM     25  C   UNL     1       1.159   9.957  19.129  0.00  0.00    +0.000 A 
ATOM     26  C   UNL     1       1.289   8.969  20.120  0.00  0.00    +0.000 A 
ATOM     27  C   UNL     1       1.898   7.724  19.862  0.00  0.00    +0.000 A 
BRANCH  25  28
ATOM     28  N   UNL     1       0.623  11.208  19.401  0.00  0.00    +0.000 N 
BRANCH  28  29
ATOM     29  C   UNL     1      -0.502  11.712  18.601  0.00  0.00    +0.000 C 
ATOM     30  C   UNL     1      -1.689  10.768  18.686  0.00  0.00    +0.000 C 
ENDBRANCH  28  29
BRANCH  28  31
ATOM     31  C   UNL     1       1.337  12.176  20.239  0.00  0.00    +0.000 C 
ATOM     32  C   UNL     1       0.378  12.856  21.207  0.00  0.00    +0.000 C 
ENDBRANCH  28  31
ENDBRANCH  25  28
ENDBRANCH  20  22
ENDBRANCH   1  18
TORSDOF 8
ENDMDL
MODEL 3
REMARK VINA RESULT:      -8.5      0.463      1.001
REMARK  Name = 
REMARK  11 active torsions:
REMARK  status: ('A' for Active; 'I' for Inactive)
REMARK    1  A    between atoms: C_1  and  C_2
REMARK    2  A    between atoms: C_2  and  O_3
REMARK    3  A    between atoms: O_3  and  C_4
REMARK    4  A    between atoms: N_6  and  C_7
REMARK    5  A    between atoms: C_7  and  C_8
REMARK    6  A    between atoms: N_10  and  C_11
REMARK    7  A    between atoms: C_14  and  N_15
REMARK    8  A    between atoms: N_15  and  C_16
REMARK    9  A    between atoms: N_15  and  C_18
REMARK   10  A    between atoms: C_16  and  C_17
REMARK   11  A    between atoms: C_18  and  C_19
REMARK                            x       y       z     vdW  Elec       q    Type
REMARK                         _______ _______ _______ _____ _____    ______ ____
ROOT
ATOM      1  C   UNL     1       4.592   4.828  17.213  0.00  0.00    +0.000 C 
ATOM      2  C   UNL     1       5.545   4.019  18.107  0.00  0.00    +0.000 C 
ATOM      3  C   UNL     1       4.965   3.642  19.471  0.00  0.00    +0.000 C 
ATOM      4  C   UNL     1       3.494   3.321  19.477  0.00  0.00    +0.000 A 
ATOM      5  C   UNL     1       2.912   2.849  20.663  0.00  0.00    +0.000 A 
ATOM      6  C   UNL     1       1.538   2.611  20.738  0.00  0.00    +0.000 A 
ATOM      7  C   UNL     1       0.734   2.853  19.627  0.00  0.00    +0.000 A 
ATOM      8  C   UNL     1       1.303   3.309  18.440  0.00  0.00    +0.000 A 
ATOM      9  C   UNL     1       2.685   3.547  18.354  0.00  0.00    +0.000 A 
ATOM     10  C   UNL     1       3.288   3.994  17.045  0.00  0.00    +0.000 C 
ENDROOT
BRANCH   1  13
ATOM     11  C   UNL     1       6.517   5.097  15.622  0.00  0.00    +0.000 C 
ATOM     12  O   UNL     1       7.402   4.908  16.442  0.00  0.00    +0.000 OA
ATOM     13  N   UNL     1       5.184   5.019  15.872  0.00  0.00    +0.000 N 
ATOM     14  H   UNL     1       4.597   5.342  15.114  0.00  0.00    +0.000 HD
BRANCH  11  15
ATOM     15  O   UNL     1       6.682   5.515  14.343  0.00  0.00    +0.000 OA
BRANCH  15  17
ATOM     16  C   UNL     1       6.145   3.642  12.879  0.00  0.00    +0.000 C 
ATOM     17  C   UNL     1       7.223   4.559  13.421  0.00  0.00    +0.000 C 
ENDBRANCH  15  17
ENDBRANCH  11  15
ENDBRANCH   1  13
BRANCH   1  18
ATOM     18  C   UNL     1       4.136   6.240  17.720  0.00  0.00    +0.000 C 
ATOM     19  O   UNL     1       4.910   7.200  17.630  0.00  0.00    +0.000 OA
ATOM     20  N   UNL     1       2.933   6.298  18.408  0.00  0.00    +0.000 N 
ATOM     21  H   UNL     1       2.628   5.442  18.862  0.00  0.00    +0.000 HD
BRANCH  20  22
ATOM     22  C   UNL     1       2.266   7.498  18.769  0.00  0.00    +0.000 A 
ATOM     23  C   UNL     1       1.874   7.778  20.075  0.00  0.00    +0.000 A 
ATOM     24  C   UNL     1       1.205   8.967  20.394  0.00  0.00    +0.000 A 
ATOM     25  C   UNL     1       0.924   9.943  19.435  0.00  0.00    +0.000 A 
ATOM     26  C   UNL     1       1.366   9.671  18.130  0.00  0.00    +0.000 A 
ATOM     27  C   UNL     1       2.018   8.467  17.795  0.00  0.00    +0.000 A 
BRANCH  25  28
ATOM     28  N   UNL     1       0.221  11.098  19.750  0.00  0.00    +0.000 N 
BRANCH  28  29
ATOM     29  C   UNL     1       0.558  11.854  20.964  0.00  0.00    +0.000 C 
ATOM     30  C   UNL     1      -0.591  11.820  21.956  0.00  0.00    +0.000 C 
ENDBRANCH  28  29
BRANCH  28  31
ATOM     31  C   UNL     1      -1.051  11.417  19.093  0.00  0.00    +0.000 C 
ATOM     32  C   UNL     1      -0.918  12.679  18.252  0.00  0.00    +0.000 C 
ENDBRANCH  28  31
ENDBRANCH  25  28
ENDBRANCH  20  22
ENDBRANCH   1  18
TORSDOF 8
ENDMDL
MODEL 4
REMARK VINA RESULT:      -8.4      0.759      1.325
REMARK  Name = 
REMARK  11 active torsions:
REMARK  status: ('A' for Active; 'I' for Inactive)
REMARK    1  A    between atoms: C_1  and  C_2
REMARK    2  A    between atoms: C_2  and  O_3
REMARK    3  A    between atoms: O_3  and  C_4
REMARK    4  A    between atoms: N_6  and  C_7
REMARK    5  A    between atoms: C_7  and  C_8
REMARK    6  A    between atoms: N_10  and  C_11
REMARK    7  A    between atoms: C_14  and  N_15
REMARK    8  A    between atoms: N_15  and  C_16
REMARK    9  A    between atoms: N_15  and  C_18
REMARK   10  A    between atoms: C_16  and  C_17
REMARK   11  A    between atoms: C_18  and  C_19
REMARK                            x       y       z     vdW  Elec       q    Type
REMARK                         _______ _______ _______ _____ _____    ______ ____
ROOT
ATOM      1  C   UNL     1       4.628   4.513  17.204  0.00  0.00    +0.000 C 
ATOM      2  C   UNL     1       5.527   3.889  18.282  0.00  0.00    +0.000 C 
ATOM      3  C   UNL     1       4.864   3.743  19.652  0.00  0.00    +0.000 C 
ATOM      4  C   UNL     1       3.398   3.400  19.623  0.00  0.00    +0.000 A 
ATOM      5  C   UNL     1       2.745   3.130  20.834  0.00  0.00    +0.000 A 
ATOM      6  C   UNL     1       1.371   2.882  20.864  0.00  0.00    +0.000 A 
ATOM      7  C   UNL     1       0.638   2.913  19.680  0.00  0.00    +0.000 A 
ATOM      8  C   UNL     1       1.278   3.168  18.469  0.00  0.00    +0.000 A 
ATOM      9  C   UNL     1       2.661   3.413  18.429  0.00  0.00    +0.000 A 
ATOM     10  C   UNL     1       3.344   3.638  17.102  0.00  0.00    +0.000 C 
ENDROOT
BRANCH   1  13
ATOM     11  C   UNL     1       6.646   4.586  15.710  0.00  0.00    +0.000 C 
ATOM     12  O   UNL     1       7.479   4.605  16.603  0.00  0.00    +0.000 OA
ATOM     13  N   UNL     1       5.304   4.481  15.889  0.00  0.00    +0.000 N 
ATOM     14  H   UNL     1       4.758   4.621  15.049  0.00  0.00    +0.000 HD
BRANCH  11  15
ATOM     15  O   UNL     1       6.882   4.763  14.387  0.00  0.00    +0.000 OA
BRANCH  15  17
ATOM     16  C   UNL     1       6.855   3.856  12.125  0.00  0.00    +0.000 C 
ATOM     17  C   UNL     1       6.198   3.876  13.490  0.00  0.00    +0.000 C 
ENDBRANCH  15  17
ENDBRANCH  11  15
ENDBRANCH   1  13
BRANCH   1  18
ATOM     18  C   UNL     1       4.129   5.983  17.429  0.00  0.00    +0.000 C 
ATOM     19  O   UNL     1       4.662   6.910  16.807  0.00  0.00    +0.000 OA
ATOM     20  N   UNL     1       3.218   6.183  18.455  0.00  0.00    +0.000 N 
ATOM     21  H   UNL     1       3.222   5.499  19.206  0.00  0.00    +0.000 HD
BRANCH  20  22
ATOM     22  C   UNL     1       2.511   7.393  18.683  0.00  0.00    +0.000 A 
ATOM     23  C   UNL     1       1.942   7.712  19.913  0.00  0.00    +0.000 A 
ATOM     24  C   UNL     1       1.239   8.910  20.099  0.00  0.00    +0.000 A 
ATOM     25  C   UNL     1       1.097   9.856  19.081  0.00  0.00    +0.000 A 
ATOM     26  C   UNL     1       1.715   9.544  17.858  0.00  0.00    +0.000 A 
ATOM     27  C   UNL     1       2.404   8.331  17.654  0.00  0.00    +0.000 A 
BRANCH  25  28
ATOM     28  N   UNL     1       0.361  11.020  19.259  0.00  0.00    +0.000 N 
BRANCH  28  29
ATOM     29  C   UNL     1      -1.082  10.940  19.527  0.00  0.00    +0.000 C 
ATOM     30  C   UNL     1      -1.830  10.438  18.304  0.00  0.00    +0.000 C 
ENDBRANCH  28  29
BRANCH  28  31
ATOM     31  C   UNL     1       0.900  12.328  18.875  0.00  0.00    +0.000 C 
ATOM     32  C   UNL     1       0.993  13.246  20.087  0.00  0.00    +0.000 C 
ENDBRANCH  28  31
ENDBRANCH  25  28
ENDBRANCH  20  22
ENDBRANCH   1  18
TORSDOF 8
ENDMDL
MODEL 5
REMARK VINA RESULT:      -8.4      2.335      4.826
REMARK  Name = 
REMARK  11 active torsions:
REMARK  status: ('A' for Active; 'I' for Inactive)
REMARK    1  A    between atoms: C_1  and  C_2
REMARK    2  A    between atoms: C_2  and  O_3
REMARK    3  A    between atoms: O_3  and  C_4
REMARK    4  A    between atoms: N_6  and  C_7
REMARK    5  A    between atoms: C_7  and  C_8
REMARK    6  A    between atoms: N_10  and  C_11
REMARK    7  A    between atoms: C_14  and  N_15
REMARK    8  A    between atoms: N_15  and  C_16
REMARK    9  A    between atoms: N_15  and  C_18
REMARK   10  A    between atoms: C_16  and  C_17
REMARK   11  A    between atoms: C_18  and  C_19
REMARK                            x       y       z     vdW  Elec       q    Type
REMARK                         _______ _______ _______ _____ _____    ______ ____
ROOT
ATOM      1  C   UNL     1       4.169   4.717  17.977  0.00  0.00    +0.000 C 
ATOM      2  C   UNL     1       4.381   5.132  16.513  0.00  0.00    +0.000 C 
ATOM      3  C   UNL     1       5.243   6.381  16.328  0.00  0.00    +0.000 C 
ATOM      4  C   UNL     1       6.374   6.531  17.310  0.00  0.00    +0.000 A 
ATOM      5  C   UNL     1       7.284   7.584  17.135  0.00  0.00    +0.000 A 
ATOM      6  C   UNL     1       8.304   7.809  18.062  0.00  0.00    +0.000 A 
ATOM      7  C   UNL     1       8.414   6.985  19.179  0.00  0.00    +0.000 A 
ATOM      8  C   UNL     1       7.524   5.929  19.358  0.00  0.00    +0.000 A 
ATOM      9  C   UNL     1       6.498   5.692  18.427  0.00  0.00    +0.000 A 
ATOM     10  C   UNL     1       5.575   4.513  18.613  0.00  0.00    +0.000 C 
ENDROOT
BRANCH   1  13
ATOM     11  C   UNL     1       2.142   3.256  17.715  0.00  0.00    +0.000 C 
ATOM     12  O   UNL     1       1.423   4.105  17.212  0.00  0.00    +0.000 OA
ATOM     13  N   UNL     1       3.449   3.428  18.046  0.00  0.00    +0.000 N 
ATOM     14  H   UNL     1       3.848   2.666  18.579  0.00  0.00    +0.000 HD
BRANCH  11  15
ATOM     15  O   UNL     1       1.761   2.023  18.131  0.00  0.00    +0.000 OA
BRANCH  15  17
ATOM     16  C   UNL     1       1.093   2.815  20.337  0.00  0.00    +0.000 C 
ATOM     17  C   UNL     1       0.733   1.973  19.129  0.00  0.00    +0.000 C 
ENDBRANCH  15  17
ENDBRANCH  11  15
ENDBRANCH   1  13
BRANCH   1  18
ATOM     18  C   UNL     1       3.413   5.718  18.919  0.00  0.00    +0.000 C 
ATOM     19  O   UNL     1       3.429   5.534  20.142  0.00  0.00    +0.000 OA
ATOM     20  N   UNL     1       2.615   6.671  18.306  0.00  0.00    +0.000 N 
ATOM     21  H   UNL     1       2.269   6.444  17.378  0.00  0.00    +0.000 HD
BRANCH  20  22
ATOM     22  C   UNL     1       2.015   7.771  18.972  0.00  0.00    +0.000 A 
ATOM     23  C   UNL     1       1.747   7.769  20.338  0.00  0.00    +0.000 A 
ATOM     24  C   UNL     1       1.142   8.869  20.962  0.00  0.00    +0.000 A 
ATOM     25  C   UNL     1       0.804  10.029  20.261  0.00  0.00    +0.000 A 
ATOM     26  C   UNL     1       1.122  10.038  18.893  0.00  0.00    +0.000 A 
ATOM     27  C   UNL     1       1.709   8.928  18.252  0.00  0.00    +0.000 A 
BRANCH  25  28
ATOM     28  N   UNL     1       0.164  11.096  20.876  0.00  0.00    +0.000 N 
BRANCH  28  29
ATOM     29  C   UNL     1       0.297  12.450  20.321  0.00  0.00    +0.000 C 
ATOM     30  C   UNL     1       1.598  13.091  20.773  0.00  0.00    +0.000 C 
ENDBRANCH  28  29
BRANCH  28  31
ATOM     31  C   UNL     1      -0.376  10.978  22.235  0.00  0.00    +0.000 C 
ATOM     32  C   UNL     1      -1.593  11.878  22.407  0.00  0.00    +0.000 C 
ENDBRANCH  28  31
ENDBRANCH  25  28
ENDBRANCH  20  22
ENDBRANCH   1  18
TORSDOF 8
ENDMDL
MODEL 6
REMARK VINA RESULT:      -8.4      2.359      4.635
REMARK  Name = 
REMARK  11 active torsions:
REMARK  status: ('A' for Active; 'I' for Inactive)
REMARK    1  A    between atoms: C_1  and  C_2
REMARK    2  A    between atoms: C_2  and  O_3
REMARK    3  A    between atoms: O_3  and  C_4
REMARK    4  A    between atoms: N_6  and  C_7
REMARK    5  A    between atoms: C_7  and  C_8
REMARK    6  A    between atoms: N_10  and  C_11
REMARK    7  A    between atoms: C_14  and  N_15
REMARK    8  A    between atoms: N_15  and  C_16
REMARK    9  A    between atoms: N_15  and  C_18
REMARK   10  A    between atoms: C_16  and  C_17
REMARK   11  A    between atoms: C_18  and  C_19
REMARK                            x       y       z     vdW  Elec       q    Type
REMARK                         _______ _______ _______ _____ _____    ______ ____
ROOT
ATOM      1  C   UNL     1       3.969   4.694  18.123  0.00  0.00    +0.000 C 
ATOM      2  C   UNL     1       4.185   5.006  16.635  0.00  0.00    +0.000 C 
ATOM      3  C   UNL     1       5.099   6.202  16.365  0.00  0.00    +0.000 C 
ATOM      4  C   UNL     1       6.244   6.365  17.329  0.00  0.00    +0.000 A 
ATOM      5  C   UNL     1       7.197   7.364  17.081  0.00  0.00    +0.000 A 
ATOM      6  C   UNL     1       8.233   7.602  17.986  0.00  0.00    +0.000 A 
ATOM      7  C   UNL     1       8.318   6.847  19.153  0.00  0.00    +0.000 A 
ATOM      8  C   UNL     1       7.385   5.843  19.404  0.00  0.00    +0.000 A 
ATOM      9  C   UNL     1       6.342   5.593  18.496  0.00  0.00    +0.000 A 
ATOM     10  C   UNL     1       5.371   4.469  18.762  0.00  0.00    +0.000 C 
ENDROOT
BRANCH   1  13
ATOM     11  C   UNL     1       1.891   3.295  17.923  0.00  0.00    +0.000 C 
ATOM     12  O   UNL     1       1.223   4.125  17.328  0.00  0.00    +0.000 OA
ATOM     13  N   UNL     1       3.194   3.444  18.279  0.00  0.00    +0.000 N 
ATOM     14  H   UNL     1       3.547   2.716  18.887  0.00  0.00    +0.000 HD
BRANCH  11  15
ATOM     15  O   UNL     1       1.449   2.118  18.429  0.00  0.00    +0.000 OA
BRANCH  15  17
ATOM     16  C   UNL     1       1.103   2.900  20.712  0.00  0.00    +0.000 C 
ATOM     17  C   UNL     1       1.743   1.864  19.810  0.00  0.00    +0.000 C 
ENDBRANCH  15  17
ENDBRANCH  11  15
ENDBRANCH   1  13
BRANCH   1  18
ATOM     18  C   UNL     1       3.265   5.784  19.005  0.00  0.00    +0.000 C 
ATOM     19  O   UNL     1       3.271   5.670  20.236  0.00  0.00    +0.000 OA
ATOM     20  N   UNL     1       2.517   6.741  18.335  0.00  0.00    +0.000 N 
ATOM     21  H   UNL     1       2.160   6.480  17.420  0.00  0.00    +0.000 HD
BRANCH  20  22
ATOM     22  C   UNL     1       1.975   7.907  18.936  0.00  0.00    +0.000 A 
ATOM     23  C   UNL     1       1.717   9.073  18.219  0.00  0.00    +0.000 A 
ATOM     24  C   UNL     1       1.194  10.211  18.846  0.00  0.00    +0.000 A 
ATOM     25  C   UNL     1       0.875  10.231  20.207  0.00  0.00    +0.000 A 
ATOM     26  C   UNL     1       1.096   9.035  20.909  0.00  0.00    +0.000 A 
ATOM     27  C   UNL     1       1.645   7.893  20.292  0.00  0.00    +0.000 A 
BRANCH  25  28
ATOM     28  N   UNL     1       0.400  11.376  20.831  0.00  0.00    +0.000 N 
BRANCH  28  29
ATOM     29  C   UNL     1      -0.980  11.418  21.334  0.00  0.00    +0.000 C 
ATOM     30  C   UNL     1      -1.007  11.265  22.845  0.00  0.00    +0.000 C 
ENDBRANCH  28  29
BRANCH  28  31
ATOM     31  C   UNL     1       1.113  12.653  20.722  0.00  0.00    +0.000 C 
ATOM     32  C   UNL     1       0.161  13.763  20.293  0.00  0.00    +0.000 C 
ENDBRANCH  28  31
ENDBRANCH  25  28
ENDBRANCH  20  22
ENDBRANCH   1  18
TORSDOF 8
ENDMDL
MODEL 7
REMARK VINA RESULT:      -8.4      2.321      4.744
REMARK  Name = 
REMARK  11 active torsions:
REMARK  status: ('A' for Active; 'I' for Inactive)
REMARK    1  A    between atoms: C_1  and  C_2
REMARK    2  A    between atoms: C_2  and  O_3
REMARK    3  A    between atoms: O_3  and  C_4
REMARK    4  A    between atoms: N_6  and  C_7
REMARK    5  A    between atoms: C_7  and  C_8
REMARK    6  A    between atoms: N_10  and  C_11
REMARK    7  A    between atoms: C_14  and  N_15
REMARK    8  A    between atoms: N_15  and  C_16
REMARK    9  A    between atoms: N_15  and  C_18
REMARK   10  A    between atoms: C_16  and  C_17
REMARK   11  A    between atoms: C_18  and  C_19
REMARK                            x       y       z     vdW  Elec       q    Type
REMARK                         _______ _______ _______ _____ _____    ______ ____
ROOT
ATOM      1  C   UNL     1       3.931   4.653  18.139  0.00  0.00    +0.000 C 
ATOM      2  C   UNL     1       4.179   4.888  16.642  0.00  0.00    +0.000 C 
ATOM      3  C   UNL     1       5.110   6.060  16.331  0.00  0.00    +0.000 C 
ATOM      4  C   UNL     1       6.239   6.260  17.308  0.00  0.00    +0.000 A 
ATOM      5  C   UNL     1       7.206   7.236  17.029  0.00  0.00    +0.000 A 
ATOM      6  C   UNL     1       8.228   7.509  17.941  0.00  0.00    +0.000 A 
ATOM      7  C   UNL     1       8.282   6.812  19.146  0.00  0.00    +0.000 A 
ATOM      8  C   UNL     1       7.334   5.831  19.428  0.00  0.00    +0.000 A 
ATOM      9  C   UNL     1       6.306   5.546  18.513  0.00  0.00    +0.000 A 
ATOM     10  C   UNL     1       5.318   4.446  18.816  0.00  0.00    +0.000 C 
ENDROOT
BRANCH   1  13
ATOM     11  C   UNL     1       1.836   3.274  17.990  0.00  0.00    +0.000 C 
ATOM     12  O   UNL     1       1.178   4.089  17.363  0.00  0.00    +0.000 OA
ATOM     13  N   UNL     1       3.140   3.420  18.342  0.00  0.00    +0.000 N 
ATOM     14  H   UNL     1       3.484   2.711  18.977  0.00  0.00    +0.000 HD
BRANCH  11  15
ATOM     15  O   UNL     1       1.378   2.123  18.540  0.00  0.00    +0.000 OA
BRANCH  15  17
ATOM     16  C   UNL     1       1.128   2.903  20.836  0.00  0.00    +0.000 C 
ATOM     17  C   UNL     1       1.742   1.876  19.906  0.00  0.00    +0.000 C 
ENDBRANCH  15  17
ENDBRANCH  11  15
ENDBRANCH   1  13
BRANCH   1  18
ATOM     18  C   UNL     1       3.222   5.792  18.952  0.00  0.00    +0.000 C 
ATOM     19  O   UNL     1       3.208   5.742  20.187  0.00  0.00    +0.000 OA
ATOM     20  N   UNL     1       2.493   6.718  18.222  0.00  0.00    +0.000 N 
ATOM     21  H   UNL     1       2.149   6.413  17.316  0.00  0.00    +0.000 HD
BRANCH  20  22
ATOM     22  C   UNL     1       1.951   7.918  18.752  0.00  0.00    +0.000 A 
ATOM     23  C   UNL     1       1.588   8.053  20.090  0.00  0.00    +0.000 A 
ATOM     24  C   UNL     1       1.042   9.248  20.577  0.00  0.00    +0.000 A 
ATOM     25  C   UNL     1       0.863  10.371  19.765  0.00  0.00    +0.000 A 
ATOM     26  C   UNL     1       1.276  10.238  18.429  0.00  0.00    +0.000 A 
ATOM     27  C   UNL     1       1.803   9.032  17.924  0.00  0.00    +0.000 A 
BRANCH  25  28
ATOM     28  N   UNL     1       0.280  11.536  20.245  0.00  0.00    +0.000 N 
BRANCH  28  29
ATOM     29  C   UNL     1      -1.022  11.479  20.923  0.00  0.00    +0.000 C 
ATOM     30  C   UNL     1      -2.039  12.356  20.212  0.00  0.00    +0.000 C 
ENDBRANCH  28  29
BRANCH  28  31
ATOM     31  C   UNL     1       0.758  12.856  19.819  0.00  0.00    +0.000 C 
ATOM     32  C   UNL     1       1.586  13.506  20.920  0.00  0.00    +0.000 C 
ENDBRANCH  28  31
ENDBRANCH  25  28
ENDBRANCH  20  22
ENDBRANCH   1  18
TORSDOF 8
ENDMDL
MODEL 8
REMARK VINA RESULT:      -8.4      0.383      1.411
REMARK  Name = 
REMARK  11 active torsions:
REMARK  status: ('A' for Active; 'I' for Inactive)
REMARK    1  A    between atoms: C_1  and  C_2
REMARK    2  A    between atoms: C_2  and  O_3
REMARK    3  A    between atoms: O_3  and  C_4
REMARK    4  A    between atoms: N_6  and  C_7
REMARK    5  A    between atoms: C_7  and  C_8
REMARK    6  A    between atoms: N_10  and  C_11
REMARK    7  A    between atoms: C_14  and  N_15
REMARK    8  A    between atoms: N_15  and  C_16
REMARK    9  A    between atoms: N_15  and  C_18
REMARK   10  A    between atoms: C_16  and  C_17
REMARK   11  A    between atoms: C_18  and  C_19
REMARK                            x       y       z     vdW  Elec       q    Type
REMARK                         _______ _______ _______ _____ _____    ______ ____
ROOT
ATOM      1  C   UNL     1       4.624   4.868  17.171  0.00  0.00    +0.000 C 
ATOM      2  C   UNL     1       5.582   4.049  18.048  0.00  0.00    +0.000 C 
ATOM      3  C   UNL     1       5.010   3.651  19.409  0.00  0.00    +0.000 C 
ATOM      4  C   UNL     1       3.540   3.326  19.417  0.00  0.00    +0.000 A 
ATOM      5  C   UNL     1       2.964   2.837  20.599  0.00  0.00    +0.000 A 
ATOM      6  C   UNL     1       1.591   2.594  20.677  0.00  0.00    +0.000 A 
ATOM      7  C   UNL     1       0.781   2.850  19.573  0.00  0.00    +0.000 A 
ATOM      8  C   UNL     1       1.343   3.325  18.391  0.00  0.00    +0.000 A 
ATOM      9  C   UNL     1       2.725   3.567  18.301  0.00  0.00    +0.000 A 
ATOM     10  C   UNL     1       3.321   4.034  16.996  0.00  0.00    +0.000 C 
ENDROOT
BRANCH   1  13
ATOM     11  C   UNL     1       6.536   5.001  15.546  0.00  0.00    +0.000 C 
ATOM     12  O   UNL     1       7.403   4.637  16.324  0.00  0.00    +0.000 OA
ATOM     13  N   UNL     1       5.209   5.080  15.829  0.00  0.00    +0.000 N 
ATOM     14  H   UNL     1       4.655   5.532  15.114  0.00  0.00    +0.000 HD
BRANCH  11  15
ATOM     15  O   UNL     1       6.729   5.488  14.296  0.00  0.00    +0.000 OA
BRANCH  15  17
ATOM     16  C   UNL     1       6.116   3.574  12.917  0.00  0.00    +0.000 C 
ATOM     17  C   UNL     1       7.200   4.557  13.312  0.00  0.00    +0.000 C 
ENDBRANCH  15  17
ENDBRANCH  11  15
ENDBRANCH   1  13
BRANCH   1  18
ATOM     18  C   UNL     1       4.167   6.272  17.700  0.00  0.00    +0.000 C 
ATOM     19  O   UNL     1       4.954   7.225  17.659  0.00  0.00    +0.000 OA
ATOM     20  N   UNL     1       2.944   6.326  18.351  0.00  0.00    +0.000 N 
ATOM     21  H   UNL     1       2.615   5.462  18.773  0.00  0.00    +0.000 HD
BRANCH  20  22
ATOM     22  C   UNL     1       2.279   7.523  18.722  0.00  0.00    +0.000 A 
ATOM     23  C   UNL     1       1.892   7.796  20.032  0.00  0.00    +0.000 A 
ATOM     24  C   UNL     1       1.225   8.983  20.360  0.00  0.00    +0.000 A 
ATOM     25  C   UNL     1       0.940   9.965  19.409  0.00  0.00    +0.000 A 
ATOM     26  C   UNL     1       1.375   9.700  18.100  0.00  0.00    +0.000 A 
ATOM     27  C   UNL     1       2.026   8.498  17.755  0.00  0.00    +0.000 A 
BRANCH  25  28
ATOM     28  N   UNL     1       0.238  11.118  19.734  0.00  0.00    +0.000 N 
BRANCH  28  29
ATOM     29  C   UNL     1      -0.264  11.995  18.667  0.00  0.00    +0.000 C 
ATOM     30  C   UNL     1       0.575  13.257  18.566  0.00  0.00    +0.000 C 
ENDBRANCH  28  29
BRANCH  28  31
ATOM     31  C   UNL     1       0.256  11.662  21.096  0.00  0.00    +0.000 C 
ATOM     32  C   UNL     1      -1.163  11.866  21.609  0.00  0.00    +0.000 C 
ENDBRANCH  28  31
ENDBRANCH  25  28
ENDBRANCH  20  22
ENDBRANCH   1  18
TORSDOF 8
ENDMDL
MODEL 9
REMARK VINA RESULT:      -8.3      2.383      4.731
REMARK  Name = 
REMARK  11 active torsions:
REMARK  status: ('A' for Active; 'I' for Inactive)
REMARK    1  A    between atoms: C_1  and  C_2
REMARK    2  A    between atoms: C_2  and  O_3
REMARK    3  A    between atoms: O_3  and  C_4
REMARK    4  A    between atoms: N_6  and  C_7
REMARK    5  A    between atoms: C_7  and  C_8
REMARK    6  A    between atoms: N_10  and  C_11
REMARK    7  A    between atoms: C_14  and  N_15
REMARK    8  A    between atoms: N_15  and  C_16
REMARK    9  A    between atoms: N_15  and  C_18
REMARK   10  A    between atoms: C_16  and  C_17
REMARK   11  A    between atoms: C_18  and  C_19
REMARK                            x       y       z     vdW  Elec       q    Type
REMARK                         _______ _______ _______ _____ _____    ______ ____
ROOT
ATOM      1  C   UNL     1       3.814   4.716  18.190  0.00  0.00    +0.000 C 
ATOM      2  C   UNL     1       4.085   4.891  16.688  0.00  0.00    +0.000 C 
ATOM      3  C   UNL     1       5.066   6.015  16.349  0.00  0.00    +0.000 C 
ATOM      4  C   UNL     1       6.192   6.202  17.331  0.00  0.00    +0.000 A 
ATOM      5  C   UNL     1       7.200   7.130  17.031  0.00  0.00    +0.000 A 
ATOM      6  C   UNL     1       8.223   7.393  17.945  0.00  0.00    +0.000 A 
ATOM      7  C   UNL     1       8.237   6.735  19.172  0.00  0.00    +0.000 A 
ATOM      8  C   UNL     1       7.248   5.802  19.476  0.00  0.00    +0.000 A 
ATOM      9  C   UNL     1       6.219   5.527  18.560  0.00  0.00    +0.000 A 
ATOM     10  C   UNL     1       5.185   4.478  18.888  0.00  0.00    +0.000 C 
ENDROOT
BRANCH   1  13
ATOM     11  C   UNL     1       1.675   3.407  18.040  0.00  0.00    +0.000 C 
ATOM     12  O   UNL     1       1.066   4.214  17.357  0.00  0.00    +0.000 OA
ATOM     13  N   UNL     1       2.973   3.522  18.424  0.00  0.00    +0.000 N 
ATOM     14  H   UNL     1       3.272   2.832  19.101  0.00  0.00    +0.000 HD
BRANCH  11  15
ATOM     15  O   UNL     1       1.159   2.300  18.628  0.00  0.00    +0.000 OA
BRANCH  15  17
ATOM     16  C   UNL     1       1.173   2.860  21.000  0.00  0.00    +0.000 C 
ATOM     17  C   UNL     1       1.696   1.946  19.911  0.00  0.00    +0.000 C 
ENDBRANCH  15  17
ENDBRANCH  11  15
ENDBRANCH   1  13
BRANCH   1  18
ATOM     18  C   UNL     1       3.143   5.909  18.956  0.00  0.00    +0.000 C 
ATOM     19  O   UNL     1       3.087   5.886  20.191  0.00  0.00    +0.000 OA
ATOM     20  N   UNL     1       2.489   6.857  18.185  0.00  0.00    +0.000 N 
ATOM     21  H   UNL     1       2.157   6.552  17.274  0.00  0.00    +0.000 HD
BRANCH  20  22
ATOM     22  C   UNL     1       1.996   8.095  18.673  0.00  0.00    +0.000 A 
ATOM     23  C   UNL     1       1.986   9.257  17.906  0.00  0.00    +0.000 A 
ATOM     24  C   UNL     1       1.505  10.467  18.425  0.00  0.00    +0.000 A 
ATOM     25  C   UNL     1       0.985  10.568  19.718  0.00  0.00    +0.000 A 
ATOM     26  C   UNL     1       0.958   9.379  20.466  0.00  0.00    +0.000 A 
ATOM     27  C   UNL     1       1.462   8.163  19.961  0.00  0.00    +0.000 A 
BRANCH  25  28
ATOM     28  N   UNL     1       0.552  11.779  20.241  0.00  0.00    +0.000 N 
BRANCH  28  29
ATOM     29  C   UNL     1       1.517  12.861  20.479  0.00  0.00    +0.000 C 
ATOM     30  C   UNL     1       1.252  14.033  19.550  0.00  0.00    +0.000 C 
ENDBRANCH  28  29
BRANCH  28  31
ATOM     31  C   UNL     1      -0.770  11.910  20.863  0.00  0.00    +0.000 C 
ATOM     32  C   UNL     1      -1.857  11.980  19.799  0.00  0.00    +0.000 C 
ENDBRANCH  28  31
ENDBRANCH  25  28
ENDBRANCH  20  22
ENDBRANCH   1  18
TORSDOF 8
ENDMDL
