MODEL 1
REMARK VINA RESULT:      -7.8      0.000      0.000
REMARK  Name = 
REMARK  4 active torsions:
REMARK  status: ('A' for Active; 'I' for Inactive)
REMARK    1  A    between atoms: N_1  and  C_2
REMARK    2  A    between atoms: C_3  and  N_4
REMARK    3  A    between atoms: C_5  and  C_6
REMARK    4  A    between atoms: C_9  and  N_10
REMARK                            x       y       z     vdW  Elec       q    Type
REMARK                         _______ _______ _______ _____ _____    ______ ____
ROOT
ATOM      1  C   UNL     1       2.309   4.672  19.866  0.00  0.00    +0.000 A 
ATOM      2  C   UNL     1       2.335   6.076  19.744  0.00  0.00    +0.000 A 
ATOM      3  C   UNL     1       3.120   6.640  18.730  0.00  0.00    +0.000 A 
ATOM      4  C   UNL     1       3.892   5.855  17.853  0.00  0.00    +0.000 A 
ATOM      5  C   UNL     1       4.664   6.443  16.839  0.00  0.00    +0.000 A 
ATOM      6  C   UNL     1       5.405   5.648  15.974  0.00  0.00    +0.000 A 
ATOM      7  C   UNL     1       5.347   4.284  16.148  0.00  0.00    +0.000 A 
ATOM      8  N   UNL     1       4.624   3.687  17.119  0.00  0.00    +0.000 NA
ATOM      9  C   UNL     1       3.901   4.453  17.973  0.00  0.00    +0.000 A 
ATOM     10  C   UNL     1       3.124   3.895  19.002  0.00  0.00    +0.000 A 
ATOM     11 CL   UNL     1       3.090   2.155  19.182  0.00  0.00    +0.000 Cl
ENDROOT
BRANCH   1  12
ATOM     12  N   UNL     1       1.597   4.043  20.927  0.00  0.00    +0.000 N 
ATOM     13  H   UNL     1       1.680   4.577  21.788  0.00  0.00    +0.000 HD
ATOM     14  H   UNL     1       0.624   3.871  20.670  0.00  0.00    +0.000 HD
ENDBRANCH   1  12
BRANCH   2  15
ATOM     15  N   UNL     1       1.553   6.982  20.494  0.00  0.00    +0.000 NA
ATOM     16  C   UNL     1       1.538   8.246  20.218  0.00  0.00    +0.000 C 
BRANCH  16  17
ATOM     17  C   UNL     1       0.672   9.178  20.977  0.00  0.00    +0.000 A 
ATOM     18  C   UNL     1       0.096  10.287  20.343  0.00  0.00    +0.000 A 
ATOM     19  C   UNL     1      -0.677  11.193  21.076  0.00  0.00    +0.000 A 
ATOM     20  C   UNL     1      -0.879  10.979  22.447  0.00  0.00    +0.000 A 
ATOM     21  C   UNL     1      -0.316   9.862  23.083  0.00  0.00    +0.000 A 
ATOM     22  C   UNL     1       0.465   8.963  22.345  0.00  0.00    +0.000 A 
BRANCH  20  23
ATOM     23  N   UNL     1      -1.675  11.937  23.221  0.00  0.00    +0.000 N 
ATOM     24  O   UNL     1      -1.151  13.023  23.510  0.00  0.00    +0.000 OA
ATOM     25  O   UNL     1      -2.831  11.607  23.541  0.00  0.00    +0.000 OA
ENDBRANCH  20  23
ENDBRANCH  16  17
ENDBRANCH   2  15
TORSDOF 4
ENDMDL
MODEL 2
REMARK VINA RESULT:      -7.8      0.304      1.013
REMARK  Name = 
REMARK  4 active torsions:
REMARK  status: ('A' for Active; 'I' for Inactive)
REMARK    1  A    between atoms: N_1  and  C_2
REMARK    2  A    between atoms: C_3  and  N_4
REMARK    3  A    between atoms: C_5  and  C_6
REMARK    4  A    between atoms: C_9  and  N_10
REMARK                            x       y       z     vdW  Elec       q    Type
REMARK                         _______ _______ _______ _____ _____    ______ ____
ROOT
ATOM      1  C   UNL     1       2.399   4.813  19.720  0.00  0.00    +0.000 A 
ATOM      2  C   UNL     1       2.489   6.217  19.642  0.00  0.00    +0.000 A 
ATOM      3  C   UNL     1       3.265   6.777  18.618  0.00  0.00    +0.000 A 
ATOM      4  C   UNL     1       3.966   5.985  17.688  0.00  0.00    +0.000 A 
ATOM      5  C   UNL     1       4.729   6.569  16.665  0.00  0.00    +0.000 A 
ATOM      6  C   UNL     1       5.398   5.769  15.748  0.00  0.00    +0.000 A 
ATOM      7  C   UNL     1       5.280   4.404  15.880  0.00  0.00    +0.000 A 
ATOM      8  N   UNL     1       4.563   3.810  16.858  0.00  0.00    +0.000 NA
ATOM      9  C   UNL     1       3.909   4.581  17.762  0.00  0.00    +0.000 A 
ATOM     10  C   UNL     1       3.143   4.026  18.801  0.00  0.00    +0.000 A 
ATOM     11 CL   UNL     1       3.029   2.286  18.927  0.00  0.00    +0.000 Cl
ENDROOT
BRANCH   1  12
ATOM     12  N   UNL     1       1.694   4.183  20.786  0.00  0.00    +0.000 N 
ATOM     13  H   UNL     1       2.311   3.578  21.321  0.00  0.00    +0.000 HD
ATOM     14  H   UNL     1       1.218   4.869  21.372  0.00  0.00    +0.000 HD
ENDBRANCH   1  12
BRANCH   2  15
ATOM     15  N   UNL     1       1.781   7.134  20.449  0.00  0.00    +0.000 NA
ATOM     16  C   UNL     1       1.587   8.355  20.068  0.00  0.00    +0.000 C 
BRANCH  16  17
ATOM     17  C   UNL     1       0.795   9.292  20.899  0.00  0.00    +0.000 A 
ATOM     18  C   UNL     1       0.172   8.847  22.073  0.00  0.00    +0.000 A 
ATOM     19  C   UNL     1      -0.617   9.722  22.825  0.00  0.00    +0.000 A 
ATOM     20  C   UNL     1      -0.773  11.050  22.403  0.00  0.00    +0.000 A 
ATOM     21  C   UNL     1      -0.140  11.503  21.235  0.00  0.00    +0.000 A 
ATOM     22  C   UNL     1       0.643  10.619  20.481  0.00  0.00    +0.000 A 
BRANCH  20  23
ATOM     23  N   UNL     1      -1.614  11.965  23.181  0.00  0.00    +0.000 N 
ATOM     24  O   UNL     1      -1.128  13.058  23.510  0.00  0.00    +0.000 OA
ATOM     25  O   UNL     1      -2.767  11.594  23.465  0.00  0.00    +0.000 OA
ENDBRANCH  20  23
ENDBRANCH  16  17
ENDBRANCH   2  15
TORSDOF 4
ENDMDL
MODEL 3
REMARK VINA RESULT:      -7.6      4.893      8.742
REMARK  Name = 
REMARK  4 active torsions:
REMARK  status: ('A' for Active; 'I' for Inactive)
REMARK    1  A    between atoms: N_1  and  C_2
REMARK    2  A    between atoms: C_3  and  N_4
REMARK    3  A    between atoms: C_5  and  C_6
REMARK    4  A    between atoms: C_9  and  N_10
REMARK                            x       y       z     vdW  Elec       q    Type
REMARK                         _______ _______ _______ _____ _____    ______ ____
ROOT
ATOM      1  C   UNL     1       0.947  10.411  19.167  0.00  0.00    +0.000 A 
ATOM      2  C   UNL     1       1.060   9.342  20.079  0.00  0.00    +0.000 A 
ATOM      3  C   UNL     1       0.402   9.448  21.311  0.00  0.00    +0.000 A 
ATOM      4  C   UNL     1      -0.342  10.588  21.670  0.00  0.00    +0.000 A 
ATOM      5  C   UNL     1      -1.001  10.668  22.907  0.00  0.00    +0.000 A 
ATOM      6  C   UNL     1      -1.744  11.795  23.233  0.00  0.00    +0.000 A 
ATOM      7  C   UNL     1      -1.810  12.811  22.305  0.00  0.00    +0.000 A 
ATOM      8  N   UNL     1      -1.181  12.771  21.112  0.00  0.00    +0.000 NA
ATOM      9  C   UNL     1      -0.448  11.678  20.785  0.00  0.00    +0.000 A 
ATOM     10  C   UNL     1       0.227  11.571  19.557  0.00  0.00    +0.000 A 
ATOM     11 CL   UNL     1       0.115  12.892  18.416  0.00  0.00    +0.000 Cl
ENDROOT
BRANCH   1  12
ATOM     12  N   UNL     1       1.659  10.399  17.933  0.00  0.00    +0.000 N 
ATOM     13  H   UNL     1       2.592  10.013  18.056  0.00  0.00    +0.000 HD
ATOM     14  H   UNL     1       1.133   9.915  17.206  0.00  0.00    +0.000 HD
ENDBRANCH   1  12
BRANCH   2  15
ATOM     15  N   UNL     1       1.700   8.109  19.827  0.00  0.00    +0.000 NA
ATOM     16  C   UNL     1       1.536   7.094  20.611  0.00  0.00    +0.000 C 
BRANCH  16  17
ATOM     17  C   UNL     1       2.171   5.790  20.307  0.00  0.00    +0.000 A 
ATOM     18  C   UNL     1       1.582   4.595  20.743  0.00  0.00    +0.000 A 
ATOM     19  C   UNL     1       2.211   3.371  20.499  0.00  0.00    +0.000 A 
ATOM     20  C   UNL     1       3.430   3.346  19.806  0.00  0.00    +0.000 A 
ATOM     21  C   UNL     1       4.016   4.538  19.355  0.00  0.00    +0.000 A 
ATOM     22  C   UNL     1       3.384   5.762  19.610  0.00  0.00    +0.000 A 
BRANCH  20  23
ATOM     23  N   UNL     1       4.100   2.064  19.564  0.00  0.00    +0.000 N 
ATOM     24  O   UNL     1       3.693   1.368  18.621  0.00  0.00    +0.000 OA
ATOM     25  O   UNL     1       5.039   1.748  20.317  0.00  0.00    +0.000 OA
ENDBRANCH  20  23
ENDBRANCH  16  17
ENDBRANCH   2  15
TORSDOF 4
ENDMDL
MODEL 4
REMARK VINA RESULT:      -7.6      4.889      8.684
REMARK  Name = 
REMARK  4 active torsions:
REMARK  status: ('A' for Active; 'I' for Inactive)
REMARK    1  A    between atoms: N_1  and  C_2
REMARK    2  A    between atoms: C_3  and  N_4
REMARK    3  A    between atoms: C_5  and  C_6
REMARK    4  A    between atoms: C_9  and  N_10
REMARK                            x       y       z     vdW  Elec       q    Type
REMARK                         _______ _______ _______ _____ _____    ______ ____
ROOT
ATOM      1  C   UNL     1       0.688  10.039  19.229  0.00  0.00    +0.000 A 
ATOM      2  C   UNL     1       0.990   9.107  20.243  0.00  0.00    +0.000 A 
ATOM      3  C   UNL     1       0.416   9.292  21.507  0.00  0.00    +0.000 A 
ATOM      4  C   UNL     1      -0.428  10.381  21.797  0.00  0.00    +0.000 A 
ATOM      5  C   UNL     1      -1.000  10.539  23.070  0.00  0.00    +0.000 A 
ATOM      6  C   UNL     1      -1.843  11.612  23.329  0.00  0.00    +0.000 A 
ATOM      7  C   UNL     1      -2.095  12.494  22.302  0.00  0.00    +0.000 A 
ATOM      8  N   UNL     1      -1.554  12.376  21.071  0.00  0.00    +0.000 NA
ATOM      9  C   UNL     1      -0.724  11.337  20.807  0.00  0.00    +0.000 A 
ATOM     10  C   UNL     1      -0.132  11.154  19.546  0.00  0.00    +0.000 A 
ATOM     11 CL   UNL     1      -0.481  12.307  18.278  0.00  0.00    +0.000 Cl
ENDROOT
BRANCH   1  12
ATOM     12  N   UNL     1       1.304   9.952  17.948  0.00  0.00    +0.000 N 
ATOM     13  H   UNL     1       1.556  10.875  17.603  0.00  0.00    +0.000 HD
ATOM     14  H   UNL     1       2.099   9.313  17.962  0.00  0.00    +0.000 HD
ENDBRANCH   1  12
BRANCH   2  15
ATOM     15  N   UNL     1       1.749   7.929  20.077  0.00  0.00    +0.000 NA
ATOM     16  C   UNL     1       1.399   6.818  20.641  0.00  0.00    +0.000 C 
BRANCH  16  17
ATOM     17  C   UNL     1       2.174   5.575  20.416  0.00  0.00    +0.000 A 
ATOM     18  C   UNL     1       3.239   5.558  19.505  0.00  0.00    +0.000 A 
ATOM     19  C   UNL     1       3.933   4.370  19.257  0.00  0.00    +0.000 A 
ATOM     20  C   UNL     1       3.562   3.199  19.934  0.00  0.00    +0.000 A 
ATOM     21  C   UNL     1       2.505   3.215  20.856  0.00  0.00    +0.000 A 
ATOM     22  C   UNL     1       1.808   4.407  21.094  0.00  0.00    +0.000 A 
BRANCH  20  23
ATOM     23  N   UNL     1       4.278   1.947  19.662  0.00  0.00    +0.000 N 
ATOM     24  O   UNL     1       5.235   1.658  20.397  0.00  0.00    +0.000 OA
ATOM     25  O   UNL     1       3.883   1.247  18.713  0.00  0.00    +0.000 OA
ENDBRANCH  20  23
ENDBRANCH  16  17
ENDBRANCH   2  15
TORSDOF 4
ENDMDL
MODEL 5
REMARK VINA RESULT:      -7.5      1.145      1.715
REMARK  Name = 
REMARK  4 active torsions:
REMARK  status: ('A' for Active; 'I' for Inactive)
REMARK    1  A    between atoms: N_1  and  C_2
REMARK    2  A    between atoms: C_3  and  N_4
REMARK    3  A    between atoms: C_5  and  C_6
REMARK    4  A    between atoms: C_9  and  N_10
REMARK                            x       y       z     vdW  Elec       q    Type
REMARK                         _______ _______ _______ _____ _____    ______ ____
ROOT
ATOM      1  C   UNL     1       2.975   4.336  18.777  0.00  0.00    +0.000 A 
ATOM      2  C   UNL     1       3.096   5.739  18.732  0.00  0.00    +0.000 A 
ATOM      3  C   UNL     1       3.933   6.303  17.761  0.00  0.00    +0.000 A 
ATOM      4  C   UNL     1       4.666   5.516  16.852  0.00  0.00    +0.000 A 
ATOM      5  C   UNL     1       5.491   6.105  15.881  0.00  0.00    +0.000 A 
ATOM      6  C   UNL     1       6.191   5.310  14.983  0.00  0.00    +0.000 A 
ATOM      7  C   UNL     1       6.040   3.944  15.081  0.00  0.00    +0.000 A 
ATOM      8  N   UNL     1       5.263   3.347  16.008  0.00  0.00    +0.000 NA
ATOM      9  C   UNL     1       4.579   4.112  16.894  0.00  0.00    +0.000 A 
ATOM     10  C   UNL     1       3.750   3.553  17.881  0.00  0.00    +0.000 A 
ATOM     11 CL   UNL     1       3.596   1.813  17.965  0.00  0.00    +0.000 Cl
ENDROOT
BRANCH   1  12
ATOM     12  N   UNL     1       2.204   3.700  19.792  0.00  0.00    +0.000 N 
ATOM     13  H   UNL     1       2.212   4.246  20.650  0.00  0.00    +0.000 HD
ATOM     14  H   UNL     1       1.258   3.499  19.469  0.00  0.00    +0.000 HD
ENDBRANCH   1  12
BRANCH   2  15
ATOM     15  N   UNL     1       2.364   6.654  19.521  0.00  0.00    +0.000 NA
ATOM     16  C   UNL     1       2.107   7.849  19.099  0.00  0.00    +0.000 C 
BRANCH  16  17
ATOM     17  C   UNL     1       1.292   8.782  19.913  0.00  0.00    +0.000 A 
ATOM     18  C   UNL     1       1.144   8.578  21.292  0.00  0.00    +0.000 A 
ATOM     19  C   UNL     1       0.332   9.429  22.046  0.00  0.00    +0.000 A 
ATOM     20  C   UNL     1      -0.326  10.495  21.415  0.00  0.00    +0.000 A 
ATOM     21  C   UNL     1      -0.170  10.712  20.038  0.00  0.00    +0.000 A 
ATOM     22  C   UNL     1       0.639   9.849  19.286  0.00  0.00    +0.000 A 
BRANCH  20  23
ATOM     23  N   UNL     1      -1.192  11.380  22.202  0.00  0.00    +0.000 N 
ATOM     24  O   UNL     1      -1.958  12.136  21.585  0.00  0.00    +0.000 OA
ATOM     25  O   UNL     1      -1.111  11.320  23.442  0.00  0.00    +0.000 OA
ENDBRANCH  20  23
ENDBRANCH  16  17
ENDBRANCH   2  15
TORSDOF 4
ENDMDL
MODEL 6
REMARK VINA RESULT:      -7.5      1.154      1.406
REMARK  Name = 
REMARK  4 active torsions:
REMARK  status: ('A' for Active; 'I' for Inactive)
REMARK    1  A    between atoms: N_1  and  C_2
REMARK    2  A    between atoms: C_3  and  N_4
REMARK    3  A    between atoms: C_5  and  C_6
REMARK    4  A    between atoms: C_9  and  N_10
REMARK                            x       y       z     vdW  Elec       q    Type
REMARK                         _______ _______ _______ _____ _____    ______ ____
ROOT
ATOM      1  C   UNL     1       2.978   4.237  18.765  0.00  0.00    +0.000 A 
ATOM      2  C   UNL     1       3.042   5.644  18.699  0.00  0.00    +0.000 A 
ATOM      3  C   UNL     1       3.864   6.226  17.726  0.00  0.00    +0.000 A 
ATOM      4  C   UNL     1       4.638   5.456  16.837  0.00  0.00    +0.000 A 
ATOM      5  C   UNL     1       5.448   6.063  15.864  0.00  0.00    +0.000 A 
ATOM      6  C   UNL     1       6.189   5.284  14.986  0.00  0.00    +0.000 A 
ATOM      7  C   UNL     1       6.093   3.915  15.105  0.00  0.00    +0.000 A 
ATOM      8  N   UNL     1       5.333   3.300  16.034  0.00  0.00    +0.000 NA
ATOM      9  C   UNL     1       4.609   4.051  16.902  0.00  0.00    +0.000 A 
ATOM     10  C   UNL     1       3.794   3.473  17.889  0.00  0.00    +0.000 A 
ATOM     11 CL   UNL     1       3.712   1.729  18.000  0.00  0.00    +0.000 Cl
ENDROOT
BRANCH   1  12
ATOM     12  N   UNL     1       2.225   3.586  19.784  0.00  0.00    +0.000 N 
ATOM     13  H   UNL     1       2.834   3.060  20.406  0.00  0.00    +0.000 HD
ATOM     14  H   UNL     1       1.633   4.247  20.288  0.00  0.00    +0.000 HD
ENDBRANCH   1  12
BRANCH   2  15
ATOM     15  N   UNL     1       2.265   6.540  19.466  0.00  0.00    +0.000 NA
ATOM     16  C   UNL     1       2.156   7.786  19.137  0.00  0.00    +0.000 C 
BRANCH  16  17
ATOM     17  C   UNL     1       1.295   8.704  19.919  0.00  0.00    +0.000 A 
ATOM     18  C   UNL     1       0.713   9.824  19.308  0.00  0.00    +0.000 A 
ATOM     19  C   UNL     1      -0.055  10.716  20.062  0.00  0.00    +0.000 A 
ATOM     20  C   UNL     1      -0.248  10.477  21.431  0.00  0.00    +0.000 A 
ATOM     21  C   UNL     1       0.322   9.351  22.043  0.00  0.00    +0.000 A 
ATOM     22  C   UNL     1       1.098   8.466  21.284  0.00  0.00    +0.000 A 
BRANCH  20  23
ATOM     23  N   UNL     1      -1.039  11.422  22.227  0.00  0.00    +0.000 N 
ATOM     24  O   UNL     1      -0.995  11.314  23.462  0.00  0.00    +0.000 OA
ATOM     25  O   UNL     1      -1.707  12.277  21.618  0.00  0.00    +0.000 OA
ENDBRANCH  20  23
ENDBRANCH  16  17
ENDBRANCH   2  15
TORSDOF 4
ENDMDL
MODEL 7
REMARK VINA RESULT:      -7.4      4.961      8.788
REMARK  Name = 
REMARK  4 active torsions:
REMARK  status: ('A' for Active; 'I' for Inactive)
REMARK    1  A    between atoms: N_1  and  C_2
REMARK    2  A    between atoms: C_3  and  N_4
REMARK    3  A    between atoms: C_5  and  C_6
REMARK    4  A    between atoms: C_9  and  N_10
REMARK                            x       y       z     vdW  Elec       q    Type
REMARK                         _______ _______ _______ _____ _____    ______ ____
ROOT
ATOM      1  C   UNL     1       1.150   8.902  20.661  0.00  0.00    +0.000 A 
ATOM      2  C   UNL     1       1.424   8.974  19.280  0.00  0.00    +0.000 A 
ATOM      3  C   UNL     1       0.688   9.877  18.502  0.00  0.00    +0.000 A 
ATOM      4  C   UNL     1      -0.322  10.691  19.050  0.00  0.00    +0.000 A 
ATOM      5  C   UNL     1      -1.040  11.595  18.252  0.00  0.00    +0.000 A 
ATOM      6  C   UNL     1      -2.020  12.402  18.817  0.00  0.00    +0.000 A 
ATOM      7  C   UNL     1      -2.249  12.281  20.170  0.00  0.00    +0.000 A 
ATOM      8  N   UNL     1      -1.584  11.415  20.963  0.00  0.00    +0.000 NA
ATOM      9  C   UNL     1      -0.629  10.618  20.422  0.00  0.00    +0.000 A 
ATOM     10  C   UNL     1       0.102   9.699  21.193  0.00  0.00    +0.000 A 
ATOM     11 CL   UNL     1      -0.232   9.582  22.905  0.00  0.00    +0.000 Cl
ENDROOT
BRANCH   1  12
ATOM     12  N   UNL     1       1.806   7.947  21.488  0.00  0.00    +0.000 N 
ATOM     13  H   UNL     1       2.780   7.840  21.218  0.00  0.00    +0.000 HD
ATOM     14  H   UNL     1       1.701   8.177  22.476  0.00  0.00    +0.000 HD
ENDBRANCH   1  12
BRANCH   2  15
ATOM     15  N   UNL     1       2.457   8.282  18.609  0.00  0.00    +0.000 NA
ATOM     16  C   UNL     1       2.399   7.004  18.423  0.00  0.00    +0.000 C 
BRANCH  16  17
ATOM     17  C   UNL     1       3.463   6.298  17.670  0.00  0.00    +0.000 A 
ATOM     18  C   UNL     1       3.466   4.898  17.591  0.00  0.00    +0.000 A 
ATOM     19  C   UNL     1       4.500   4.235  16.924  0.00  0.00    +0.000 A 
ATOM     20  C   UNL     1       5.528   4.979  16.328  0.00  0.00    +0.000 A 
ATOM     21  C   UNL     1       5.522   6.380  16.393  0.00  0.00    +0.000 A 
ATOM     22  C   UNL     1       4.487   7.039  17.070  0.00  0.00    +0.000 A 
BRANCH  20  23
ATOM     23  N   UNL     1       6.624   4.284  15.643  0.00  0.00    +0.000 N 
ATOM     24  O   UNL     1       6.367   3.719  14.569  0.00  0.00    +0.000 OA
ATOM     25  O   UNL     1       7.747   4.303  16.177  0.00  0.00    +0.000 OA
ENDBRANCH  20  23
ENDBRANCH  16  17
ENDBRANCH   2  15
TORSDOF 4
ENDMDL
MODEL 8
REMARK VINA RESULT:      -7.4      4.989      8.760
REMARK  Name = 
REMARK  4 active torsions:
REMARK  status: ('A' for Active; 'I' for Inactive)
REMARK    1  A    between atoms: N_1  and  C_2
REMARK    2  A    between atoms: C_3  and  N_4
REMARK    3  A    between atoms: C_5  and  C_6
REMARK    4  A    between atoms: C_9  and  N_10
REMARK                            x       y       z     vdW  Elec       q    Type
REMARK                         _______ _______ _______ _____ _____    ______ ____
ROOT
ATOM      1  C   UNL     1       1.123   8.930  20.649  0.00  0.00    +0.000 A 
ATOM      2  C   UNL     1       1.414   8.980  19.270  0.00  0.00    +0.000 A 
ATOM      3  C   UNL     1       0.673   9.856  18.467  0.00  0.00    +0.000 A 
ATOM      4  C   UNL     1      -0.357  10.662  18.986  0.00  0.00    +0.000 A 
ATOM      5  C   UNL     1      -1.080  11.539  18.162  0.00  0.00    +0.000 A 
ATOM      6  C   UNL     1      -2.081  12.338  18.699  0.00  0.00    +0.000 A 
ATOM      7  C   UNL     1      -2.326  12.239  20.050  0.00  0.00    +0.000 A 
ATOM      8  N   UNL     1      -1.657  11.400  20.868  0.00  0.00    +0.000 NA
ATOM      9  C   UNL     1      -0.682  10.610  20.355  0.00  0.00    +0.000 A 
ATOM     10  C   UNL     1       0.055   9.718  21.152  0.00  0.00    +0.000 A 
ATOM     11 CL   UNL     1      -0.300   9.628  22.862  0.00  0.00    +0.000 Cl
ENDROOT
BRANCH   1  12
ATOM     12  N   UNL     1       1.784   8.001  21.503  0.00  0.00    +0.000 N 
ATOM     13  H   UNL     1       2.360   7.359  20.965  0.00  0.00    +0.000 HD
ATOM     14  H   UNL     1       2.315   8.480  22.231  0.00  0.00    +0.000 HD
ENDBRANCH   1  12
BRANCH   2  15
ATOM     15  N   UNL     1       2.467   8.295  18.626  0.00  0.00    +0.000 NA
ATOM     16  C   UNL     1       2.440   7.010  18.475  0.00  0.00    +0.000 C 
BRANCH  16  17
ATOM     17  C   UNL     1       3.525   6.308  17.749  0.00  0.00    +0.000 A 
ATOM     18  C   UNL     1       4.583   7.032  17.182  0.00  0.00    +0.000 A 
ATOM     19  C   UNL     1       5.576   6.370  16.454  0.00  0.00    +0.000 A 
ATOM     20  C   UNL     1       5.512   4.977  16.303  0.00  0.00    +0.000 A 
ATOM     21  C   UNL     1       4.462   4.248  16.880  0.00  0.00    +0.000 A 
ATOM     22  C   UNL     1       3.465   4.918  17.602  0.00  0.00    +0.000 A 
BRANCH  20  23
ATOM     23  N   UNL     1       6.543   4.284  15.525  0.00  0.00    +0.000 N 
ATOM     24  O   UNL     1       6.174   3.598  14.559  0.00  0.00    +0.000 OA
ATOM     25  O   UNL     1       7.728   4.425  15.876  0.00  0.00    +0.000 OA
ENDBRANCH  20  23
ENDBRANCH  16  17
ENDBRANCH   2  15
TORSDOF 4
ENDMDL
MODEL 9
REMARK VINA RESULT:      -7.4      1.949      3.087
REMARK  Name = 
REMARK  4 active torsions:
REMARK  status: ('A' for Active; 'I' for Inactive)
REMARK    1  A    between atoms: N_1  and  C_2
REMARK    2  A    between atoms: C_3  and  N_4
REMARK    3  A    between atoms: C_5  and  C_6
REMARK    4  A    between atoms: C_9  and  N_10
REMARK                            x       y       z     vdW  Elec       q    Type
REMARK                         _______ _______ _______ _____ _____    ______ ____
ROOT
ATOM      1  C   UNL     1       2.945   6.926  18.709  0.00  0.00    +0.000 A 
ATOM      2  C   UNL     1       2.080   7.183  19.792  0.00  0.00    +0.000 A 
ATOM      3  C   UNL     1       1.829   6.148  20.702  0.00  0.00    +0.000 A 
ATOM      4  C   UNL     1       2.393   4.867  20.556  0.00  0.00    +0.000 A 
ATOM      5  C   UNL     1       2.134   3.848  21.486  0.00  0.00    +0.000 A 
ATOM      6  C   UNL     1       2.715   2.596  21.332  0.00  0.00    +0.000 A 
ATOM      7  C   UNL     1       3.545   2.402  20.250  0.00  0.00    +0.000 A 
ATOM      8  N   UNL     1       3.806   3.356  19.332  0.00  0.00    +0.000 NA
ATOM      9  C   UNL     1       3.240   4.581  19.469  0.00  0.00    +0.000 A 
ATOM     10  C   UNL     1       3.475   5.619  18.552  0.00  0.00    +0.000 A 
ATOM     11 CL   UNL     1       4.533   5.318  17.192  0.00  0.00    +0.000 Cl
ENDROOT
BRANCH   1  12
ATOM     12  N   UNL     1       3.174   7.911  17.706  0.00  0.00    +0.000 N 
ATOM     13  H   UNL     1       3.165   7.495  16.779  0.00  0.00    +0.000 HD
ATOM     14  H   UNL     1       2.516   8.686  17.790  0.00  0.00    +0.000 HD
ENDBRANCH   1  12
BRANCH   2  15
ATOM     15  N   UNL     1       1.509   8.435  20.110  0.00  0.00    +0.000 NA
ATOM     16  C   UNL     1       0.868   8.619  21.218  0.00  0.00    +0.000 C 
BRANCH  16  17
ATOM     17  C   UNL     1       0.320   9.952  21.566  0.00  0.00    +0.000 A 
ATOM     18  C   UNL     1       0.709  11.089  20.845  0.00  0.00    +0.000 A 
ATOM     19  C   UNL     1       0.231  12.350  21.210  0.00  0.00    +0.000 A 
ATOM     20  C   UNL     1      -0.648  12.469  22.297  0.00  0.00    +0.000 A 
ATOM     21  C   UNL     1      -1.050  11.332  23.013  0.00  0.00    +0.000 A 
ATOM     22  C   UNL     1      -0.561  10.071  22.647  0.00  0.00    +0.000 A 
BRANCH  20  23
ATOM     23  N   UNL     1      -1.137  13.794  22.693  0.00  0.00    +0.000 N 
ATOM     24  O   UNL     1      -1.804  14.434  21.866  0.00  0.00    +0.000 OA
ATOM     25  O   UNL     1      -0.856  14.199  23.835  0.00  0.00    +0.000 OA
ENDBRANCH  20  23
ENDBRANCH  16  17
ENDBRANCH   2  15
TORSDOF 4
ENDMDL
