MODEL 1
REMARK VINA RESULT:      -5.2      0.000      0.000
REMARK  Name = 
REMARK  16 active torsions:
REMARK  status: ('A' for Active; 'I' for Inactive)
REMARK    1  A    between atoms: N_1  and  C_2
REMARK    2  A    between atoms: C_2  and  C_3
REMARK    3  A    between atoms: C_3  and  C_4
REMARK    4  A    between atoms: C_4  and  N_5
REMARK    5  A    between atoms: N_5  and  C_6
REMARK    6  A    between atoms: C_6  and  C_7
REMARK    7  A    between atoms: C_7  and  C_8
REMARK    8  A    between atoms: C_8  and  C_9
REMARK    9  A    between atoms: C_9  and  N_10
REMARK   10  A    between atoms: N_10  and  C_11
REMARK   11  A    between atoms: N_10  and  N_15
REMARK   12  A    between atoms: C_11  and  C_12
REMARK   13  A    between atoms: C_12  and  C_13
REMARK   14  A    between atoms: C_13  and  N_14
REMARK   15  A    between atoms: N_15  and  O_16
REMARK   16  A    between atoms: N_15  and  N_17
REMARK                            x       y       z     vdW  Elec       q    Type
REMARK                         _______ _______ _______ _____ _____    ______ ____
ROOT
ATOM      1  C   UNL     1       3.026   4.636  17.537  0.00  0.00    +0.000 C 
ENDROOT
BRANCH   1   2
ATOM      2  N   UNL     1       2.917   3.713  18.687  0.00  0.00    +0.000 NA
BRANCH   2   3
ATOM      3  N   UNL     1       3.937   2.685  18.583  0.00  0.00    +0.000 N 
BRANCH   3   4
ATOM      4  N   UNL     1       4.713   2.635  19.635  0.00  0.00    +0.000 NA
ATOM      5  O   UNL     1       5.159   3.747  19.919  0.00  0.00    +0.000 OA
ENDBRANCH   3   4
BRANCH   3   6
ATOM      6  O   UNL     1       4.669   2.721  17.326  0.00  0.00    +0.000 OA
ATOM      7  H   UNL     1       3.942   2.952  16.727  0.00  0.00    +0.000 HD
ENDBRANCH   3   6
ENDBRANCH   2   3
BRANCH   2   8
ATOM      8  C   UNL     1       1.605   3.048  18.807  0.00  0.00    +0.000 C 
BRANCH   8   9
ATOM      9  C   UNL     1       0.869   3.310  20.142  0.00  0.00    +0.000 C 
BRANCH   9  10
ATOM     10  C   UNL     1       1.758   3.412  21.383  0.00  0.00    +0.000 C 
BRANCH  10  11
ATOM     11  N   UNL     1       2.535   4.646  21.408  0.00  0.00    +0.000 NA
ATOM     12  H   UNL     1       3.526   4.424  21.307  0.00  0.00    +0.000 HD
ATOM     13  H   UNL     1       2.452   5.073  22.331  0.00  0.00    +0.000 HD
ENDBRANCH  10  11
ENDBRANCH   9  10
ENDBRANCH   8   9
ENDBRANCH   2   8
ENDBRANCH   1   2
BRANCH   1  14
ATOM     14  C   UNL     1       2.913   6.131  17.820  0.00  0.00    +0.000 C 
BRANCH  14  15
ATOM     15  C   UNL     1       4.183   6.943  17.570  0.00  0.00    +0.000 C 
BRANCH  15  16
ATOM     16  C   UNL     1       4.966   6.401  16.366  0.00  0.00    +0.000 C 
BRANCH  16  17
ATOM     17  N   UNL     1       6.405   6.484  16.610  0.00  0.00    +0.000 NA
ATOM     18  H   UNL     1       6.835   7.139  15.959  0.00  0.00    +0.000 HD
BRANCH  17  19
ATOM     19  C   UNL     1       7.062   5.192  16.437  0.00  0.00    +0.000 C 
BRANCH  19  20
ATOM     20  C   UNL     1       7.593   4.738  17.796  0.00  0.00    +0.000 C 
BRANCH  20  21
ATOM     21  C   UNL     1       7.739   5.926  18.739  0.00  0.00    +0.000 C 
BRANCH  21  22
ATOM     22  N   UNL     1       7.772   5.464  20.121  0.00  0.00    +0.000 NA
ATOM     23  H   UNL     1       7.353   4.537  20.180  0.00  0.00    +0.000 HD
ATOM     24  H   UNL     1       7.198   6.079  20.696  0.00  0.00    +0.000 HD
ENDBRANCH  21  22
ENDBRANCH  20  21
ENDBRANCH  19  20
ENDBRANCH  17  19
ENDBRANCH  16  17
ENDBRANCH  15  16
ENDBRANCH  14  15
ENDBRANCH   1  14
TORSDOF 16
ENDMDL
MODEL 2
REMARK VINA RESULT:      -5.1      2.974      6.162
REMARK  Name = 
REMARK  16 active torsions:
REMARK  status: ('A' for Active; 'I' for Inactive)
REMARK    1  A    between atoms: N_1  and  C_2
REMARK    2  A    between atoms: C_2  and  C_3
REMARK    3  A    between atoms: C_3  and  C_4
REMARK    4  A    between atoms: C_4  and  N_5
REMARK    5  A    between atoms: N_5  and  C_6
REMARK    6  A    between atoms: C_6  and  C_7
REMARK    7  A    between atoms: C_7  and  C_8
REMARK    8  A    between atoms: C_8  and  C_9
REMARK    9  A    between atoms: C_9  and  N_10
REMARK   10  A    between atoms: N_10  and  C_11
REMARK   11  A    between atoms: N_10  and  N_15
REMARK   12  A    between atoms: C_11  and  C_12
REMARK   13  A    between atoms: C_12  and  C_13
REMARK   14  A    between atoms: C_13  and  N_14
REMARK   15  A    between atoms: N_15  and  O_16
REMARK   16  A    between atoms: N_15  and  N_17
REMARK                            x       y       z     vdW  Elec       q    Type
REMARK                         _______ _______ _______ _____ _____    ______ ____
ROOT
ATOM      1  C   UNL     1       4.860   4.203  16.395  0.00  0.00    +0.000 C 
ENDROOT
BRANCH   1   2
ATOM      2  N   UNL     1       6.240   4.112  15.874  0.00  0.00    +0.000 NA
BRANCH   2   3
ATOM      3  N   UNL     1       7.127   4.904  16.706  0.00  0.00    +0.000 N 
BRANCH   3   4
ATOM      4  N   UNL     1       7.554   5.984  16.104  0.00  0.00    +0.000 NA
ATOM      5  O   UNL     1       7.385   6.986  16.802  0.00  0.00    +0.000 OA
ENDBRANCH   3   4
BRANCH   3   6
ATOM      6  O   UNL     1       8.191   4.127  17.323  0.00  0.00    +0.000 OA
ATOM      7  H   UNL     1       8.436   4.735  18.038  0.00  0.00    +0.000 HD
ENDBRANCH   3   6
ENDBRANCH   2   3
BRANCH   2   8
ATOM      8  C   UNL     1       6.392   4.566  14.478  0.00  0.00    +0.000 C 
BRANCH   8   9
ATOM      9  C   UNL     1       5.611   3.730  13.438  0.00  0.00    +0.000 C 
BRANCH   9  10
ATOM     10  C   UNL     1       6.397   3.311  12.195  0.00  0.00    +0.000 C 
BRANCH  10  11
ATOM     11  N   UNL     1       6.034   1.975  11.734  0.00  0.00    +0.000 NA
ATOM     12  H   UNL     1       5.059   1.788  11.974  0.00  0.00    +0.000 HD
ATOM     13  H   UNL     1       6.573   1.284  12.257  0.00  0.00    +0.000 HD
ENDBRANCH  10  11
ENDBRANCH   9  10
ENDBRANCH   8   9
ENDBRANCH   2   8
ENDBRANCH   1   2
BRANCH   1  14
ATOM     14  C   UNL     1       4.676   4.189  17.910  0.00  0.00    +0.000 C 
BRANCH  14  15
ATOM     15  C   UNL     1       4.223   5.511  18.528  0.00  0.00    +0.000 C 
BRANCH  15  16
ATOM     16  C   UNL     1       2.699   5.548  18.716  0.00  0.00    +0.000 C 
BRANCH  16  17
ATOM     17  N   UNL     1       2.355   6.171  19.992  0.00  0.00    +0.000 NA
ATOM     18  H   UNL     1       3.149   6.697  20.353  0.00  0.00    +0.000 HD
BRANCH  17  19
ATOM     19  C   UNL     1       1.985   5.181  20.999  0.00  0.00    +0.000 C 
BRANCH  19  20
ATOM     20  C   UNL     1       1.229   4.049  20.305  0.00  0.00    +0.000 C 
BRANCH  20  21
ATOM     21  C   UNL     1       1.305   2.769  21.129  0.00  0.00    +0.000 C 
BRANCH  21  22
ATOM     22  N   UNL     1       2.454   2.821  22.024  0.00  0.00    +0.000 NA
ATOM     23  H   UNL     1       2.542   1.933  22.516  0.00  0.00    +0.000 HD
ATOM     24  H   UNL     1       2.297   3.533  22.736  0.00  0.00    +0.000 HD
ENDBRANCH  21  22
ENDBRANCH  20  21
ENDBRANCH  19  20
ENDBRANCH  17  19
ENDBRANCH  16  17
ENDBRANCH  15  16
ENDBRANCH  14  15
ENDBRANCH   1  14
TORSDOF 16
ENDMDL
MODEL 3
REMARK VINA RESULT:      -5.0      2.177      5.619
REMARK  Name = 
REMARK  16 active torsions:
REMARK  status: ('A' for Active; 'I' for Inactive)
REMARK    1  A    between atoms: N_1  and  C_2
REMARK    2  A    between atoms: C_2  and  C_3
REMARK    3  A    between atoms: C_3  and  C_4
REMARK    4  A    between atoms: C_4  and  N_5
REMARK    5  A    between atoms: N_5  and  C_6
REMARK    6  A    between atoms: C_6  and  C_7
REMARK    7  A    between atoms: C_7  and  C_8
REMARK    8  A    between atoms: C_8  and  C_9
REMARK    9  A    between atoms: C_9  and  N_10
REMARK   10  A    between atoms: N_10  and  C_11
REMARK   11  A    between atoms: N_10  and  N_15
REMARK   12  A    between atoms: C_11  and  C_12
REMARK   13  A    between atoms: C_12  and  C_13
REMARK   14  A    between atoms: C_13  and  N_14
REMARK   15  A    between atoms: N_15  and  O_16
REMARK   16  A    between atoms: N_15  and  N_17
REMARK                            x       y       z     vdW  Elec       q    Type
REMARK                         _______ _______ _______ _____ _____    ______ ____
ROOT
ATOM      1  C   UNL     1       4.816   3.666  17.926  0.00  0.00    +0.000 C 
ENDROOT
BRANCH   1   2
ATOM      2  N   UNL     1       5.760   4.613  17.296  0.00  0.00    +0.000 NA
BRANCH   2   3
ATOM      3  N   UNL     1       6.539   5.278  18.325  0.00  0.00    +0.000 N 
BRANCH   3   4
ATOM      4  N   UNL     1       7.783   4.873  18.359  0.00  0.00    +0.000 NA
ATOM      5  O   UNL     1       8.062   4.191  17.372  0.00  0.00    +0.000 OA
ENDBRANCH   3   4
BRANCH   3   6
ATOM      6  O   UNL     1       5.895   5.278  19.629  0.00  0.00    +0.000 OA
ATOM      7  H   UNL     1       6.679   5.380  20.192  0.00  0.00    +0.000 HD
ENDBRANCH   3   6
ENDBRANCH   2   3
BRANCH   2   8
ATOM      8  C   UNL     1       5.116   5.649  16.465  0.00  0.00    +0.000 C 
BRANCH   8   9
ATOM      9  C   UNL     1       5.234   5.418  14.940  0.00  0.00    +0.000 C 
BRANCH   9  10
ATOM     10  C   UNL     1       6.488   4.676  14.474  0.00  0.00    +0.000 C 
BRANCH  10  11
ATOM     11  N   UNL     1       7.715   5.372  14.851  0.00  0.00    +0.000 NA
ATOM     12  H   UNL     1       7.627   5.717  15.808  0.00  0.00    +0.000 HD
ATOM     13  H   UNL     1       7.813   6.208  14.275  0.00  0.00    +0.000 HD
ENDBRANCH  10  11
ENDBRANCH   9  10
ENDBRANCH   8   9
ENDBRANCH   2   8
ENDBRANCH   1   2
BRANCH   1  14
ATOM     14  C   UNL     1       3.346   3.767  17.528  0.00  0.00    +0.000 C 
BRANCH  14  15
ATOM     15  C   UNL     1       2.582   2.444  17.500  0.00  0.00    +0.000 C 
BRANCH  15  16
ATOM     16  C   UNL     1       1.418   2.449  18.501  0.00  0.00    +0.000 C 
BRANCH  16  17
ATOM     17  N   UNL     1       1.902   2.167  19.851  0.00  0.00    +0.000 NA
ATOM     18  H   UNL     1       1.810   1.174  20.058  0.00  0.00    +0.000 HD
BRANCH  17  19
ATOM     19  C   UNL     1       1.150   2.902  20.864  0.00  0.00    +0.000 C 
BRANCH  19  20
ATOM     20  C   UNL     1       1.171   4.385  20.495  0.00  0.00    +0.000 C 
BRANCH  20  21
ATOM     21  C   UNL     1       2.470   5.033  20.958  0.00  0.00    +0.000 C 
BRANCH  21  22
ATOM     22  N   UNL     1       2.804   6.155  20.089  0.00  0.00    +0.000 NA
ATOM     23  H   UNL     1       2.878   5.829  19.126  0.00  0.00    +0.000 HD
ATOM     24  H   UNL     1       3.720   6.519  20.344  0.00  0.00    +0.000 HD
ENDBRANCH  21  22
ENDBRANCH  20  21
ENDBRANCH  19  20
ENDBRANCH  17  19
ENDBRANCH  16  17
ENDBRANCH  15  16
ENDBRANCH  14  15
ENDBRANCH   1  14
TORSDOF 16
ENDMDL
MODEL 4
REMARK VINA RESULT:      -4.9      3.022      6.297
REMARK  Name = 
REMARK  16 active torsions:
REMARK  status: ('A' for Active; 'I' for Inactive)
REMARK    1  A    between atoms: N_1  and  C_2
REMARK    2  A    between atoms: C_2  and  C_3
REMARK    3  A    between atoms: C_3  and  C_4
REMARK    4  A    between atoms: C_4  and  N_5
REMARK    5  A    between atoms: N_5  and  C_6
REMARK    6  A    between atoms: C_6  and  C_7
REMARK    7  A    between atoms: C_7  and  C_8
REMARK    8  A    between atoms: C_8  and  C_9
REMARK    9  A    between atoms: C_9  and  N_10
REMARK   10  A    between atoms: N_10  and  C_11
REMARK   11  A    between atoms: N_10  and  N_15
REMARK   12  A    between atoms: C_11  and  C_12
REMARK   13  A    between atoms: C_12  and  C_13
REMARK   14  A    between atoms: C_13  and  N_14
REMARK   15  A    between atoms: N_15  and  O_16
REMARK   16  A    between atoms: N_15  and  N_17
REMARK                            x       y       z     vdW  Elec       q    Type
REMARK                         _______ _______ _______ _____ _____    ______ ____
ROOT
ATOM      1  C   UNL     1       4.872   4.200  16.293  0.00  0.00    +0.000 C 
ENDROOT
BRANCH   1   2
ATOM      2  N   UNL     1       6.257   4.102  15.783  0.00  0.00    +0.000 NA
BRANCH   2   3
ATOM      3  N   UNL     1       7.139   4.892  16.622  0.00  0.00    +0.000 N 
BRANCH   3   4
ATOM      4  N   UNL     1       7.559   5.981  16.030  0.00  0.00    +0.000 NA
ATOM      5  O   UNL     1       7.680   6.910  16.829  0.00  0.00    +0.000 OA
ENDBRANCH   3   4
BRANCH   3   6
ATOM      6  O   UNL     1       8.209   4.115  17.229  0.00  0.00    +0.000 OA
ATOM      7  H   UNL     1       8.544   4.773  17.859  0.00  0.00    +0.000 HD
ENDBRANCH   3   6
ENDBRANCH   2   3
BRANCH   2   8
ATOM      8  C   UNL     1       6.422   4.554  14.388  0.00  0.00    +0.000 C 
BRANCH   8   9
ATOM      9  C   UNL     1       5.589   3.765  13.351  0.00  0.00    +0.000 C 
BRANCH   9  10
ATOM     10  C   UNL     1       6.368   3.202  12.161  0.00  0.00    +0.000 C 
BRANCH  10  11
ATOM     11  N   UNL     1       5.815   1.938  11.685  0.00  0.00    +0.000 NA
ATOM     12  H   UNL     1       5.499   1.386  12.482  0.00  0.00    +0.000 HD
ATOM     13  H   UNL     1       6.562   1.387  11.260  0.00  0.00    +0.000 HD
ENDBRANCH  10  11
ENDBRANCH   9  10
ENDBRANCH   8   9
ENDBRANCH   2   8
ENDBRANCH   1   2
BRANCH   1  14
ATOM     14  C   UNL     1       4.686   4.390  17.796  0.00  0.00    +0.000 C 
BRANCH  14  15
ATOM     15  C   UNL     1       4.004   5.693  18.212  0.00  0.00    +0.000 C 
BRANCH  15  16
ATOM     16  C   UNL     1       3.440   5.598  19.637  0.00  0.00    +0.000 C 
BRANCH  16  17
ATOM     17  N   UNL     1       3.235   4.202  20.016  0.00  0.00    +0.000 NA
ATOM     18  H   UNL     1       3.109   3.626  19.186  0.00  0.00    +0.000 HD
BRANCH  17  19
ATOM     19  C   UNL     1       2.053   4.033  20.856  0.00  0.00    +0.000 C 
BRANCH  19  20
ATOM     20  C   UNL     1       0.842   3.833  19.946  0.00  0.00    +0.000 C 
BRANCH  20  21
ATOM     21  C   UNL     1       1.244   3.102  18.671  0.00  0.00    +0.000 C 
BRANCH  21  22
ATOM     22  N   UNL     1       0.470   1.874  18.536  0.00  0.00    +0.000 NA
ATOM     23  H   UNL     1       0.344   1.660  17.547  0.00  0.00    +0.000 HD
ATOM     24  H   UNL     1      -0.461   2.018  18.923  0.00  0.00    +0.000 HD
ENDBRANCH  21  22
ENDBRANCH  20  21
ENDBRANCH  19  20
ENDBRANCH  17  19
ENDBRANCH  16  17
ENDBRANCH  15  16
ENDBRANCH  14  15
ENDBRANCH   1  14
TORSDOF 16
ENDMDL
MODEL 5
REMARK VINA RESULT:      -4.9      3.131      6.315
REMARK  Name = 
REMARK  16 active torsions:
REMARK  status: ('A' for Active; 'I' for Inactive)
REMARK    1  A    between atoms: N_1  and  C_2
REMARK    2  A    between atoms: C_2  and  C_3
REMARK    3  A    between atoms: C_3  and  C_4
REMARK    4  A    between atoms: C_4  and  N_5
REMARK    5  A    between atoms: N_5  and  C_6
REMARK    6  A    between atoms: C_6  and  C_7
REMARK    7  A    between atoms: C_7  and  C_8
REMARK    8  A    between atoms: C_8  and  C_9
REMARK    9  A    between atoms: C_9  and  N_10
REMARK   10  A    between atoms: N_10  and  C_11
REMARK   11  A    between atoms: N_10  and  N_15
REMARK   12  A    between atoms: C_11  and  C_12
REMARK   13  A    between atoms: C_12  and  C_13
REMARK   14  A    between atoms: C_13  and  N_14
REMARK   15  A    between atoms: N_15  and  O_16
REMARK   16  A    between atoms: N_15  and  N_17
REMARK                            x       y       z     vdW  Elec       q    Type
REMARK                         _______ _______ _______ _____ _____    ______ ____
ROOT
ATOM      1  C   UNL     1       5.334   3.324  15.740  0.00  0.00    +0.000 C 
ENDROOT
BRANCH   1   2
ATOM      2  N   UNL     1       6.608   3.907  15.270  0.00  0.00    +0.000 NA
BRANCH   2   3
ATOM      3  N   UNL     1       7.129   4.811  16.279  0.00  0.00    +0.000 N 
BRANCH   3   4
ATOM      4  N   UNL     1       7.539   5.948  15.776  0.00  0.00    +0.000 NA
ATOM      5  O   UNL     1       7.681   6.802  16.652  0.00  0.00    +0.000 OA
ENDBRANCH   3   4
BRANCH   3   6
ATOM      6  O   UNL     1       8.099   4.189  17.168  0.00  0.00    +0.000 OA
ATOM      7  H   UNL     1       7.491   3.701  17.746  0.00  0.00    +0.000 HD
ENDBRANCH   3   6
ENDBRANCH   2   3
BRANCH   2   8
ATOM      8  C   UNL     1       6.502   4.649  13.999  0.00  0.00    +0.000 C 
BRANCH   8   9
ATOM      9  C   UNL     1       6.773   3.802  12.733  0.00  0.00    +0.000 C 
BRANCH   9  10
ATOM     10  C   UNL     1       5.549   3.134  12.105  0.00  0.00    +0.000 C 
BRANCH  10  11
ATOM     11  N   UNL     1       5.852   1.807  11.579  0.00  0.00    +0.000 NA
ATOM     12  H   UNL     1       6.679   1.860  10.983  0.00  0.00    +0.000 HD
ATOM     13  H   UNL     1       5.097   1.515  10.957  0.00  0.00    +0.000 HD
ENDBRANCH  10  11
ENDBRANCH   9  10
ENDBRANCH   8   9
ENDBRANCH   2   8
ENDBRANCH   1   2
BRANCH   1  14
ATOM     14  C   UNL     1       4.312   4.271  16.365  0.00  0.00    +0.000 C 
BRANCH  14  15
ATOM     15  C   UNL     1       3.457   3.671  17.479  0.00  0.00    +0.000 C 
BRANCH  15  16
ATOM     16  C   UNL     1       4.190   3.707  18.828  0.00  0.00    +0.000 C 
BRANCH  16  17
ATOM     17  N   UNL     1       3.496   4.590  19.764  0.00  0.00    +0.000 NA
ATOM     18  H   UNL     1       3.548   4.212  20.708  0.00  0.00    +0.000 HD
BRANCH  17  19
ATOM     19  C   UNL     1       2.085   4.743  19.424  0.00  0.00    +0.000 C 
BRANCH  19  20
ATOM     20  C   UNL     1       1.254   4.426  20.667  0.00  0.00    +0.000 C 
BRANCH  20  21
ATOM     21  C   UNL     1       1.372   2.950  21.027  0.00  0.00    +0.000 C 
BRANCH  21  22
ATOM     22  N   UNL     1       2.364   2.771  22.080  0.00  0.00    +0.000 NA
ATOM     23  H   UNL     1       2.598   3.678  22.483  0.00  0.00    +0.000 HD
ATOM     24  H   UNL     1       3.223   2.403  21.675  0.00  0.00    +0.000 HD
ENDBRANCH  21  22
ENDBRANCH  20  21
ENDBRANCH  19  20
ENDBRANCH  17  19
ENDBRANCH  16  17
ENDBRANCH  15  16
ENDBRANCH  14  15
ENDBRANCH   1  14
TORSDOF 16
ENDMDL
MODEL 6
REMARK VINA RESULT:      -4.9      2.701      5.842
REMARK  Name = 
REMARK  16 active torsions:
REMARK  status: ('A' for Active; 'I' for Inactive)
REMARK    1  A    between atoms: N_1  and  C_2
REMARK    2  A    between atoms: C_2  and  C_3
REMARK    3  A    between atoms: C_3  and  C_4
REMARK    4  A    between atoms: C_4  and  N_5
REMARK    5  A    between atoms: N_5  and  C_6
REMARK    6  A    between atoms: C_6  and  C_7
REMARK    7  A    between atoms: C_7  and  C_8
REMARK    8  A    between atoms: C_8  and  C_9
REMARK    9  A    between atoms: C_9  and  N_10
REMARK   10  A    between atoms: N_10  and  C_11
REMARK   11  A    between atoms: N_10  and  N_15
REMARK   12  A    between atoms: C_11  and  C_12
REMARK   13  A    between atoms: C_12  and  C_13
REMARK   14  A    between atoms: C_13  and  N_14
REMARK   15  A    between atoms: N_15  and  O_16
REMARK   16  A    between atoms: N_15  and  N_17
REMARK                            x       y       z     vdW  Elec       q    Type
REMARK                         _______ _______ _______ _____ _____    ______ ____
ROOT
ATOM      1  C   UNL     1       5.314   3.645  16.416  0.00  0.00    +0.000 C 
ENDROOT
BRANCH   1   2
ATOM      2  N   UNL     1       6.156   4.855  16.295  0.00  0.00    +0.000 NA
BRANCH   2   3
ATOM      3  N   UNL     1       6.463   5.095  14.897  0.00  0.00    +0.000 N 
BRANCH   3   4
ATOM      4  N   UNL     1       6.122   4.095  14.126  0.00  0.00    +0.000 NA
ATOM      5  O   UNL     1       6.750   4.108  13.066  0.00  0.00    +0.000 OA
ENDBRANCH   3   4
BRANCH   3   6
ATOM      6  O   UNL     1       7.824   5.558  14.675  0.00  0.00    +0.000 OA
ATOM      7  H   UNL     1       8.296   4.718  14.786  0.00  0.00    +0.000 HD
ENDBRANCH   3   6
ENDBRANCH   2   3
BRANCH   2   8
ATOM      8  C   UNL     1       7.428   4.785  17.040  0.00  0.00    +0.000 C 
BRANCH   8   9
ATOM      9  C   UNL     1       7.438   5.567  18.375  0.00  0.00    +0.000 C 
BRANCH   9  10
ATOM     10  C   UNL     1       7.898   7.023  18.290  0.00  0.00    +0.000 C 
BRANCH  10  11
ATOM     11  N   UNL     1       7.488   7.662  17.044  0.00  0.00    +0.000 NA
ATOM     12  H   UNL     1       7.951   8.567  16.960  0.00  0.00    +0.000 HD
ATOM     13  H   UNL     1       6.492   7.877  17.092  0.00  0.00    +0.000 HD
ENDBRANCH  10  11
ENDBRANCH   9  10
ENDBRANCH   8   9
ENDBRANCH   2   8
ENDBRANCH   1   2
BRANCH   1  14
ATOM     14  C   UNL     1       3.843   3.842  16.770  0.00  0.00    +0.000 C 
BRANCH  14  15
ATOM     15  C   UNL     1       3.573   4.748  17.971  0.00  0.00    +0.000 C 
BRANCH  15  16
ATOM     16  C   UNL     1       2.099   5.173  18.031  0.00  0.00    +0.000 C 
BRANCH  16  17
ATOM     17  N   UNL     1       1.224   4.022  17.818  0.00  0.00    +0.000 NA
ATOM     18  H   UNL     1       0.254   4.324  17.749  0.00  0.00    +0.000 HD
BRANCH  17  19
ATOM     19  C   UNL     1       1.313   3.061  18.913  0.00  0.00    +0.000 C 
BRANCH  19  20
ATOM     20  C   UNL     1       0.883   3.761  20.202  0.00  0.00    +0.000 C 
BRANCH  20  21
ATOM     21  C   UNL     1       1.971   3.642  21.263  0.00  0.00    +0.000 C 
BRANCH  21  22
ATOM     22  N   UNL     1       1.641   2.572  22.197  0.00  0.00    +0.000 NA
ATOM     23  H   UNL     1       2.495   2.095  22.483  0.00  0.00    +0.000 HD
ATOM     24  H   UNL     1       1.064   1.878  21.725  0.00  0.00    +0.000 HD
ENDBRANCH  21  22
ENDBRANCH  20  21
ENDBRANCH  19  20
ENDBRANCH  17  19
ENDBRANCH  16  17
ENDBRANCH  15  16
ENDBRANCH  14  15
ENDBRANCH   1  14
TORSDOF 16
ENDMDL
MODEL 7
REMARK VINA RESULT:      -4.8      1.963      2.359
REMARK  Name = 
REMARK  16 active torsions:
REMARK  status: ('A' for Active; 'I' for Inactive)
REMARK    1  A    between atoms: N_1  and  C_2
REMARK    2  A    between atoms: C_2  and  C_3
REMARK    3  A    between atoms: C_3  and  C_4
REMARK    4  A    between atoms: C_4  and  N_5
REMARK    5  A    between atoms: N_5  and  C_6
REMARK    6  A    between atoms: C_6  and  C_7
REMARK    7  A    between atoms: C_7  and  C_8
REMARK    8  A    between atoms: C_8  and  C_9
REMARK    9  A    between atoms: C_9  and  N_10
REMARK   10  A    between atoms: N_10  and  C_11
REMARK   11  A    between atoms: N_10  and  N_15
REMARK   12  A    between atoms: C_11  and  C_12
REMARK   13  A    between atoms: C_12  and  C_13
REMARK   14  A    between atoms: C_13  and  N_14
REMARK   15  A    between atoms: N_15  and  O_16
REMARK   16  A    between atoms: N_15  and  N_17
REMARK                            x       y       z     vdW  Elec       q    Type
REMARK                         _______ _______ _______ _____ _____    ______ ____
ROOT
ATOM      1  C   UNL     1       3.517   4.801  17.674  0.00  0.00    +0.000 C 
ENDROOT
BRANCH   1   2
ATOM      2  N   UNL     1       3.396   3.934  18.865  0.00  0.00    +0.000 NA
BRANCH   2   3
ATOM      3  N   UNL     1       4.538   3.041  18.934  0.00  0.00    +0.000 N 
BRANCH   3   4
ATOM      4  N   UNL     1       4.290   1.955  19.621  0.00  0.00    +0.000 NA
ATOM      5  O   UNL     1       5.102   1.806  20.535  0.00  0.00    +0.000 OA
ENDBRANCH   3   4
BRANCH   3   6
ATOM      6  O   UNL     1       5.770   3.706  19.328  0.00  0.00    +0.000 OA
ATOM      7  H   UNL     1       6.398   2.984  19.162  0.00  0.00    +0.000 HD
ENDBRANCH   3   6
ENDBRANCH   2   3
BRANCH   2   8
ATOM      8  C   UNL     1       2.169   3.114  18.896  0.00  0.00    +0.000 C 
BRANCH   8   9
ATOM      9  C   UNL     1       1.172   3.486  20.018  0.00  0.00    +0.000 C 
BRANCH   9  10
ATOM     10  C   UNL     1       1.795   3.858  21.365  0.00  0.00    +0.000 C 
BRANCH  10  11
ATOM     11  N   UNL     1       2.542   2.752  21.954  0.00  0.00    +0.000 NA
ATOM     12  H   UNL     1       2.559   2.858  22.969  0.00  0.00    +0.000 HD
ATOM     13  H   UNL     1       3.518   2.818  21.664  0.00  0.00    +0.000 HD
ENDBRANCH  10  11
ENDBRANCH   9  10
ENDBRANCH   8   9
ENDBRANCH   2   8
ENDBRANCH   1   2
BRANCH   1  14
ATOM     14  C   UNL     1       4.328   4.270  16.495  0.00  0.00    +0.000 C 
BRANCH  14  15
ATOM     15  C   UNL     1       5.265   5.281  15.836  0.00  0.00    +0.000 C 
BRANCH  15  16
ATOM     16  C   UNL     1       5.712   6.361  16.831  0.00  0.00    +0.000 C 
BRANCH  16  17
ATOM     17  N   UNL     1       7.147   6.608  16.710  0.00  0.00    +0.000 NA
ATOM     18  H   UNL     1       7.643   5.732  16.554  0.00  0.00    +0.000 HD
BRANCH  17  19
ATOM     19  C   UNL     1       7.697   7.220  17.915  0.00  0.00    +0.000 C 
BRANCH  19  20
ATOM     20  C   UNL     1       7.861   8.719  17.661  0.00  0.00    +0.000 C 
BRANCH  20  21
ATOM     21  C   UNL     1       8.793   9.338  18.695  0.00  0.00    +0.000 C 
BRANCH  21  22
ATOM     22  N   UNL     1       9.032  10.740  18.373  0.00  0.00    +0.000 NA
ATOM     23  H   UNL     1       8.580  10.968  17.488  0.00  0.00    +0.000 HD
ATOM     24  H   UNL     1      10.031  10.890  18.237  0.00  0.00    +0.000 HD
ENDBRANCH  21  22
ENDBRANCH  20  21
ENDBRANCH  19  20
ENDBRANCH  17  19
ENDBRANCH  16  17
ENDBRANCH  15  16
ENDBRANCH  14  15
ENDBRANCH   1  14
TORSDOF 16
ENDMDL
MODEL 8
REMARK VINA RESULT:      -4.8      2.233      2.866
REMARK  Name = 
REMARK  16 active torsions:
REMARK  status: ('A' for Active; 'I' for Inactive)
REMARK    1  A    between atoms: N_1  and  C_2
REMARK    2  A    between atoms: C_2  and  C_3
REMARK    3  A    between atoms: C_3  and  C_4
REMARK    4  A    between atoms: C_4  and  N_5
REMARK    5  A    between atoms: N_5  and  C_6
REMARK    6  A    between atoms: C_6  and  C_7
REMARK    7  A    between atoms: C_7  and  C_8
REMARK    8  A    between atoms: C_8  and  C_9
REMARK    9  A    between atoms: C_9  and  N_10
REMARK   10  A    between atoms: N_10  and  C_11
REMARK   11  A    between atoms: N_10  and  N_15
REMARK   12  A    between atoms: C_11  and  C_12
REMARK   13  A    between atoms: C_12  and  C_13
REMARK   14  A    between atoms: C_13  and  N_14
REMARK   15  A    between atoms: N_15  and  O_16
REMARK   16  A    between atoms: N_15  and  N_17
REMARK                            x       y       z     vdW  Elec       q    Type
REMARK                         _______ _______ _______ _____ _____    ______ ____
ROOT
ATOM      1  C   UNL     1       4.351   3.596  17.917  0.00  0.00    +0.000 C 
ENDROOT
BRANCH   1   2
ATOM      2  N   UNL     1       3.485   4.426  18.782  0.00  0.00    +0.000 NA
BRANCH   2   3
ATOM      3  N   UNL     1       2.570   3.571  19.515  0.00  0.00    +0.000 N 
BRANCH   3   4
ATOM      4  N   UNL     1       1.315   3.833  19.254  0.00  0.00    +0.000 NA
ATOM      5  O   UNL     1       0.635   3.850  20.281  0.00  0.00    +0.000 OA
ENDBRANCH   3   4
BRANCH   3   6
ATOM      6  O   UNL     1       2.861   3.499  20.939  0.00  0.00    +0.000 OA
ATOM      7  H   UNL     1       2.033   3.099  21.249  0.00  0.00    +0.000 HD
ENDBRANCH   3   6
ENDBRANCH   2   3
BRANCH   2   8
ATOM      8  C   UNL     1       2.690   5.434  18.054  0.00  0.00    +0.000 C 
BRANCH   8   9
ATOM      9  C   UNL     1       2.973   6.898  18.464  0.00  0.00    +0.000 C 
BRANCH   9  10
ATOM     10  C   UNL     1       2.100   7.454  19.590  0.00  0.00    +0.000 C 
BRANCH  10  11
ATOM     11  N   UNL     1       2.029   6.551  20.734  0.00  0.00    +0.000 NA
ATOM     12  H   UNL     1       2.725   5.813  20.625  0.00  0.00    +0.000 HD
ATOM     13  H   UNL     1       1.129   6.071  20.723  0.00  0.00    +0.000 HD
ENDBRANCH  10  11
ENDBRANCH   9  10
ENDBRANCH   8   9
ENDBRANCH   2   8
ENDBRANCH   1   2
BRANCH   1  14
ATOM     14  C   UNL     1       4.170   3.724  16.407  0.00  0.00    +0.000 C 
BRANCH  14  15
ATOM     15  C   UNL     1       5.412   4.162  15.633  0.00  0.00    +0.000 C 
BRANCH  15  16
ATOM     16  C   UNL     1       5.468   5.689  15.483  0.00  0.00    +0.000 C 
BRANCH  16  17
ATOM     17  N   UNL     1       6.720   6.212  16.026  0.00  0.00    +0.000 NA
ATOM     18  H   UNL     1       7.349   5.447  16.261  0.00  0.00    +0.000 HD
BRANCH  17  19
ATOM     19  C   UNL     1       6.503   6.996  17.238  0.00  0.00    +0.000 C 
BRANCH  19  20
ATOM     20  C   UNL     1       7.724   6.830  18.143  0.00  0.00    +0.000 C 
BRANCH  20  21
ATOM     21  C   UNL     1       7.593   5.573  18.994  0.00  0.00    +0.000 C 
BRANCH  21  22
ATOM     22  N   UNL     1       7.882   4.393  18.189  0.00  0.00    +0.000 NA
ATOM     23  H   UNL     1       8.826   4.463  17.811  0.00  0.00    +0.000 HD
ATOM     24  H   UNL     1       7.251   4.367  17.389  0.00  0.00    +0.000 HD
ENDBRANCH  21  22
ENDBRANCH  20  21
ENDBRANCH  19  20
ENDBRANCH  17  19
ENDBRANCH  16  17
ENDBRANCH  15  16
ENDBRANCH  14  15
ENDBRANCH   1  14
TORSDOF 16
ENDMDL
MODEL 9
REMARK VINA RESULT:      -4.8      2.284      3.288
REMARK  Name = 
REMARK  16 active torsions:
REMARK  status: ('A' for Active; 'I' for Inactive)
REMARK    1  A    between atoms: N_1  and  C_2
REMARK    2  A    between atoms: C_2  and  C_3
REMARK    3  A    between atoms: C_3  and  C_4
REMARK    4  A    between atoms: C_4  and  N_5
REMARK    5  A    between atoms: N_5  and  C_6
REMARK    6  A    between atoms: C_6  and  C_7
REMARK    7  A    between atoms: C_7  and  C_8
REMARK    8  A    between atoms: C_8  and  C_9
REMARK    9  A    between atoms: C_9  and  N_10
REMARK   10  A    between atoms: N_10  and  C_11
REMARK   11  A    between atoms: N_10  and  N_15
REMARK   12  A    between atoms: C_11  and  C_12
REMARK   13  A    between atoms: C_12  and  C_13
REMARK   14  A    between atoms: C_13  and  N_14
REMARK   15  A    between atoms: N_15  and  O_16
REMARK   16  A    between atoms: N_15  and  N_17
REMARK                            x       y       z     vdW  Elec       q    Type
REMARK                         _______ _______ _______ _____ _____    ______ ____
ROOT
ATOM      1  C   UNL     1       5.046   3.718  18.695  0.00  0.00    +0.000 C 
ENDROOT
BRANCH   1   2
ATOM      2  N   UNL     1       3.885   3.139  19.404  0.00  0.00    +0.000 NA
BRANCH   2   3
ATOM      3  N   UNL     1       4.320   2.579  20.670  0.00  0.00    +0.000 N 
BRANCH   3   4
ATOM      4  N   UNL     1       5.119   1.554  20.522  0.00  0.00    +0.000 NA
ATOM      5  O   UNL     1       5.669   1.254  21.583  0.00  0.00    +0.000 OA
ENDBRANCH   3   4
BRANCH   3   6
ATOM      6  O   UNL     1       3.228   2.331  21.599  0.00  0.00    +0.000 OA
ATOM      7  H   UNL     1       2.617   1.868  21.003  0.00  0.00    +0.000 HD
ENDBRANCH   3   6
ENDBRANCH   2   3
BRANCH   2   8
ATOM      8  C   UNL     1       3.180   2.082  18.652  0.00  0.00    +0.000 C 
BRANCH   8   9
ATOM      9  C   UNL     1       1.671   2.341  18.436  0.00  0.00    +0.000 C 
BRANCH   9  10
ATOM     10  C   UNL     1       1.125   3.637  19.038  0.00  0.00    +0.000 C 
BRANCH  10  11
ATOM     11  N   UNL     1       0.731   3.476  20.434  0.00  0.00    +0.000 NA
ATOM     12  H   UNL     1       0.815   2.494  20.698  0.00  0.00    +0.000 HD
ATOM     13  H   UNL     1      -0.263   3.691  20.526  0.00  0.00    +0.000 HD
ENDBRANCH  10  11
ENDBRANCH   9  10
ENDBRANCH   8   9
ENDBRANCH   2   8
ENDBRANCH   1   2
BRANCH   1  14
ATOM     14  C   UNL     1       5.278   5.220  18.831  0.00  0.00    +0.000 C 
BRANCH  14  15
ATOM     15  C   UNL     1       6.693   5.696  18.506  0.00  0.00    +0.000 C 
BRANCH  15  16
ATOM     16  C   UNL     1       6.696   6.670  17.318  0.00  0.00    +0.000 C 
BRANCH  16  17
ATOM     17  N   UNL     1       6.183   6.014  16.117  0.00  0.00    +0.000 NA
ATOM     18  H   UNL     1       5.254   5.636  16.292  0.00  0.00    +0.000 HD
BRANCH  17  19
ATOM     19  C   UNL     1       7.038   4.911  15.691  0.00  0.00    +0.000 C 
BRANCH  19  20
ATOM     20  C   UNL     1       6.194   3.937  14.870  0.00  0.00    +0.000 C 
BRANCH  20  21
ATOM     21  C   UNL     1       6.437   4.143  13.380  0.00  0.00    +0.000 C 
BRANCH  21  22
ATOM     22  N   UNL     1       6.228   2.891  12.663  0.00  0.00    +0.000 NA
ATOM     23  H   UNL     1       6.851   2.177  13.038  0.00  0.00    +0.000 HD
ATOM     24  H   UNL     1       6.483   3.015  11.684  0.00  0.00    +0.000 HD
ENDBRANCH  21  22
ENDBRANCH  20  21
ENDBRANCH  19  20
ENDBRANCH  17  19
ENDBRANCH  16  17
ENDBRANCH  15  16
ENDBRANCH  14  15
ENDBRANCH   1  14
TORSDOF 16
ENDMDL
