MODEL 1
REMARK VINA RESULT:      -9.1      0.000      0.000
REMARK  Name = 
REMARK  4 active torsions:
REMARK  status: ('A' for Active; 'I' for Inactive)
REMARK    1  A    between atoms: C_1  and  O_2
REMARK    2  A    between atoms: O_2  and  C_3
REMARK    3  A    between atoms: C_7  and  C_8
REMARK    4  A    between atoms: C_8  and  N_9
REMARK                            x       y       z     vdW  Elec       q    Type
REMARK                         _______ _______ _______ _____ _____    ______ ____
ROOT
ATOM      1  N   UNL     1       6.001   4.773  16.885  0.00  0.00    +0.000 N 
ATOM      2  C   UNL     1       4.914   4.119  17.448  0.00  0.00    +0.000 A 
ATOM      3  O   UNL     1       4.753   2.909  17.314  0.00  0.00    +0.000 OA
ATOM      4  C   UNL     1       3.895   4.934  18.208  0.00  0.00    +0.000 A 
ATOM      5  C   UNL     1       3.954   6.289  18.127  0.00  0.00    +0.000 A 
ATOM      6  N   UNL     1       5.071   6.896  17.542  0.00  0.00    +0.000 N 
ATOM      7  N   UNL     1       5.441   8.198  17.447  0.00  0.00    +0.000 NA
ATOM      8  N   UNL     1       6.633   8.209  16.870  0.00  0.00    +0.000 NA
ATOM      9  N   UNL     1       7.044   6.943  16.560  0.00  0.00    +0.000 NA
ATOM     10  C   UNL     1       6.084   6.148  16.975  0.00  0.00    +0.000 A 
ATOM     11  C   UNL     1       2.870   7.095  18.740  0.00  0.00    +0.000 A 
ATOM     12  C   UNL     1       2.503   8.371  18.296  0.00  0.00    +0.000 A 
ATOM     13  C   UNL     1       1.622   9.159  19.042  0.00  0.00    +0.000 A 
ATOM     14  C   UNL     1       1.120   8.686  20.250  0.00  0.00    +0.000 A 
ATOM     15  C   UNL     1       1.395   7.382  20.649  0.00  0.00    +0.000 A 
ATOM     16  C   UNL     1       2.199   6.562  19.849  0.00  0.00    +0.000 A 
ATOM     17  C   UNL     1       2.385   5.111  20.186  0.00  0.00    +0.000 C 
ATOM     18  C   UNL     1       2.752   4.224  18.951  0.00  0.00    +0.000 C 
ATOM     19  C   UNL     1       1.630   4.019  17.908  0.00  0.00    +0.000 C 
ATOM     20  C   UNL     1       0.771   2.870  18.395  0.00  0.00    +0.000 C 
ATOM     21  C   UNL     1       1.683   1.994  19.233  0.00  0.00    +0.000 C 
ATOM     22  C   UNL     1       2.949   2.799  19.545  0.00  0.00    +0.000 C 
ENDROOT
BRANCH   1  23
ATOM     23  C   UNL     1       6.976   4.012  16.126  0.00  0.00    +0.000 C 
BRANCH  23  28
ATOM     24  C   UNL     1       6.003   3.483  12.480  0.00  0.00    +0.000 A 
ATOM     25  C   UNL     1       6.864   4.367  11.831  0.00  0.00    +0.000 A 
ATOM     26  C   UNL     1       7.711   5.187  12.577  0.00  0.00    +0.000 A 
ATOM     27  C   UNL     1       7.717   5.105  13.969  0.00  0.00    +0.000 A 
ATOM     28  C   UNL     1       6.858   4.217  14.630  0.00  0.00    +0.000 A 
ATOM     29  C   UNL     1       5.955   3.454  13.872  0.00  0.00    +0.000 A 
BRANCH  24  31
ATOM     30  C   UNL     1       4.057   3.247  11.239  0.00  0.00    +0.000 C 
ATOM     31  O   UNL     1       5.192   2.594  11.819  0.00  0.00    +0.000 OA
ENDBRANCH  24  31
ENDBRANCH  23  28
ENDBRANCH   1  23
TORSDOF 3
ENDMDL
MODEL 2
REMARK VINA RESULT:      -7.6      3.683      7.338
REMARK  Name = 
REMARK  4 active torsions:
REMARK  status: ('A' for Active; 'I' for Inactive)
REMARK    1  A    between atoms: C_1  and  O_2
REMARK    2  A    between atoms: O_2  and  C_3
REMARK    3  A    between atoms: C_7  and  C_8
REMARK    4  A    between atoms: C_8  and  N_9
REMARK                            x       y       z     vdW  Elec       q    Type
REMARK                         _______ _______ _______ _____ _____    ______ ____
ROOT
ATOM      1  N   UNL     1       2.067   8.848  18.780  0.00  0.00    +0.000 N 
ATOM      2  C   UNL     1       2.894   7.949  18.120  0.00  0.00    +0.000 A 
ATOM      3  O   UNL     1       3.440   8.238  17.059  0.00  0.00    +0.000 OA
ATOM      4  C   UNL     1       3.087   6.575  18.715  0.00  0.00    +0.000 A 
ATOM      5  C   UNL     1       2.281   6.191  19.741  0.00  0.00    +0.000 A 
ATOM      6  N   UNL     1       1.462   7.137  20.364  0.00  0.00    +0.000 N 
ATOM      7  N   UNL     1       0.675   7.059  21.466  0.00  0.00    +0.000 NA
ATOM      8  N   UNL     1       0.185   8.274  21.667  0.00  0.00    +0.000 NA
ATOM      9  N   UNL     1       0.615   9.144  20.704  0.00  0.00    +0.000 NA
ATOM     10  C   UNL     1       1.395   8.442  19.914  0.00  0.00    +0.000 A 
ATOM     11  C   UNL     1       2.357   4.792  20.229  0.00  0.00    +0.000 A 
ATOM     12  C   UNL     1       1.289   4.124  20.842  0.00  0.00    +0.000 A 
ATOM     13  C   UNL     1       1.486   2.889  21.465  0.00  0.00    +0.000 A 
ATOM     14  C   UNL     1       2.756   2.322  21.501  0.00  0.00    +0.000 A 
ATOM     15  C   UNL     1       3.800   2.925  20.808  0.00  0.00    +0.000 A 
ATOM     16  C   UNL     1       3.576   4.114  20.103  0.00  0.00    +0.000 A 
ATOM     17  C   UNL     1       4.649   4.698  19.230  0.00  0.00    +0.000 C 
ATOM     18  C   UNL     1       4.095   5.604  18.081  0.00  0.00    +0.000 C 
ATOM     19  C   UNL     1       3.331   4.875  16.953  0.00  0.00    +0.000 C 
ATOM     20  C   UNL     1       4.363   4.368  15.967  0.00  0.00    +0.000 C 
ATOM     21  C   UNL     1       5.544   5.314  16.077  0.00  0.00    +0.000 C 
ATOM     22  C   UNL     1       5.369   6.134  17.360  0.00  0.00    +0.000 C 
ENDROOT
BRANCH   1  23
ATOM     23  C   UNL     1       1.845  10.164  18.208  0.00  0.00    +0.000 C 
BRANCH  23  28
ATOM     24  C   UNL     1      -1.835  10.267  17.225  0.00  0.00    +0.000 A 
ATOM     25  C   UNL     1      -2.251  11.453  17.829  0.00  0.00    +0.000 A 
ATOM     26  C   UNL     1      -1.360  12.184  18.613  0.00  0.00    +0.000 A 
ATOM     27  C   UNL     1      -0.045  11.745  18.774  0.00  0.00    +0.000 A 
ATOM     28  C   UNL     1       0.383  10.557  18.168  0.00  0.00    +0.000 A 
ATOM     29  C   UNL     1      -0.545   9.789  17.446  0.00  0.00    +0.000 A 
BRANCH  24  31
ATOM     30  C   UNL     1      -3.053  10.295  15.251  0.00  0.00    +0.000 C 
ATOM     31  O   UNL     1      -2.627   9.528  16.382  0.00  0.00    +0.000 OA
ENDBRANCH  24  31
ENDBRANCH  23  28
ENDBRANCH   1  23
TORSDOF 3
ENDMDL
MODEL 3
REMARK VINA RESULT:      -7.6      6.876     10.641
REMARK  Name = 
REMARK  4 active torsions:
REMARK  status: ('A' for Active; 'I' for Inactive)
REMARK    1  A    between atoms: C_1  and  O_2
REMARK    2  A    between atoms: O_2  and  C_3
REMARK    3  A    between atoms: C_7  and  C_8
REMARK    4  A    between atoms: C_8  and  N_9
REMARK                            x       y       z     vdW  Elec       q    Type
REMARK                         _______ _______ _______ _____ _____    ______ ____
ROOT
ATOM      1  N   UNL     1      -0.965  11.859  18.667  0.00  0.00    +0.000 N 
ATOM      2  C   UNL     1      -1.279  12.554  19.826  0.00  0.00    +0.000 A 
ATOM      3  O   UNL     1      -0.407  12.939  20.601  0.00  0.00    +0.000 OA
ATOM      4  C   UNL     1      -2.733  12.802  20.148  0.00  0.00    +0.000 A 
ATOM      5  C   UNL     1      -3.680  12.153  19.419  0.00  0.00    +0.000 A 
ATOM      6  N   UNL     1      -3.306  11.462  18.263  0.00  0.00    +0.000 N 
ATOM      7  N   UNL     1      -4.043  10.850  17.302  0.00  0.00    +0.000 NA
ATOM      8  N   UNL     1      -3.188  10.426  16.384  0.00  0.00    +0.000 NA
ATOM      9  N   UNL     1      -1.901  10.725  16.733  0.00  0.00    +0.000 NA
ATOM     10  C   UNL     1      -1.982  11.358  17.881  0.00  0.00    +0.000 A 
ATOM     11  C   UNL     1      -5.103  12.268  19.825  0.00  0.00    +0.000 A 
ATOM     12  C   UNL     1      -6.069  11.291  19.556  0.00  0.00    +0.000 A 
ATOM     13  C   UNL     1      -7.425  11.550  19.777  0.00  0.00    +0.000 A 
ATOM     14  C   UNL     1      -7.827  12.797  20.245  0.00  0.00    +0.000 A 
ATOM     15  C   UNL     1      -6.870  13.738  20.612  0.00  0.00    +0.000 A 
ATOM     16  C   UNL     1      -5.509  13.437  20.481  0.00  0.00    +0.000 A 
ATOM     17  C   UNL     1      -4.465  14.378  21.010  0.00  0.00    +0.000 C 
ATOM     18  C   UNL     1      -3.109  13.678  21.353  0.00  0.00    +0.000 C 
ATOM     19  C   UNL     1      -3.126  12.733  22.576  0.00  0.00    +0.000 C 
ATOM     20  C   UNL     1      -2.921  13.590  23.807  0.00  0.00    +0.000 C 
ATOM     21  C   UNL     1      -2.124  14.797  23.347  0.00  0.00    +0.000 C 
ATOM     22  C   UNL     1      -2.182  14.840  21.816  0.00  0.00    +0.000 C 
ENDROOT
BRANCH   1  23
ATOM     23  C   UNL     1       0.426  11.584  18.355  0.00  0.00    +0.000 C 
BRANCH  23  28
ATOM     24  C   UNL     1       1.280   8.588  20.547  0.00  0.00    +0.000 A 
ATOM     25  C   UNL     1       1.972   7.775  19.650  0.00  0.00    +0.000 A 
ATOM     26  C   UNL     1       2.102   8.163  18.317  0.00  0.00    +0.000 A 
ATOM     27  C   UNL     1       1.564   9.375  17.886  0.00  0.00    +0.000 A 
ATOM     28  C   UNL     1       0.870  10.201  18.780  0.00  0.00    +0.000 A 
ATOM     29  C   UNL     1       0.679   9.762  20.100  0.00  0.00    +0.000 A 
BRANCH  24  31
ATOM     30  C   UNL     1       0.517   9.374  22.592  0.00  0.00    +0.000 C 
ATOM     31  O   UNL     1       1.170   8.313  21.888  0.00  0.00    +0.000 OA
ENDBRANCH  24  31
ENDBRANCH  23  28
ENDBRANCH   1  23
TORSDOF 3
ENDMDL
MODEL 4
REMARK VINA RESULT:      -7.5      3.418      7.445
REMARK  Name = 
REMARK  4 active torsions:
REMARK  status: ('A' for Active; 'I' for Inactive)
REMARK    1  A    between atoms: C_1  and  O_2
REMARK    2  A    between atoms: O_2  and  C_3
REMARK    3  A    between atoms: C_7  and  C_8
REMARK    4  A    between atoms: C_8  and  N_9
REMARK                            x       y       z     vdW  Elec       q    Type
REMARK                         _______ _______ _______ _____ _____    ______ ____
ROOT
ATOM      1  N   UNL     1       1.128   8.497  19.988  0.00  0.00    +0.000 N 
ATOM      2  C   UNL     1       1.219   7.150  20.309  0.00  0.00    +0.000 A 
ATOM      3  O   UNL     1       0.691   6.694  21.320  0.00  0.00    +0.000 OA
ATOM      4  C   UNL     1       2.019   6.244  19.405  0.00  0.00    +0.000 A 
ATOM      5  C   UNL     1       2.799   6.808  18.444  0.00  0.00    +0.000 A 
ATOM      6  N   UNL     1       2.672   8.173  18.167  0.00  0.00    +0.000 N 
ATOM      7  N   UNL     1       3.219   8.949  17.198  0.00  0.00    +0.000 NA
ATOM      8  N   UNL     1       2.694  10.157  17.342  0.00  0.00    +0.000 NA
ATOM      9  N   UNL     1       1.832  10.197  18.402  0.00  0.00    +0.000 NA
ATOM     10  C   UNL     1       1.824   8.982  18.899  0.00  0.00    +0.000 A 
ATOM     11  C   UNL     1       3.706   5.940  17.654  0.00  0.00    +0.000 A 
ATOM     12  C   UNL     1       4.895   6.389  17.066  0.00  0.00    +0.000 A 
ATOM     13  C   UNL     1       5.594   5.582  16.165  0.00  0.00    +0.000 A 
ATOM     14  C   UNL     1       5.096   4.328  15.825  0.00  0.00    +0.000 A 
ATOM     15  C   UNL     1       3.974   3.830  16.479  0.00  0.00    +0.000 A 
ATOM     16  C   UNL     1       3.333   4.605  17.453  0.00  0.00    +0.000 A 
ATOM     17  C   UNL     1       2.215   4.029  18.273  0.00  0.00    +0.000 C 
ATOM     18  C   UNL     1       2.031   4.729  19.660  0.00  0.00    +0.000 C 
ATOM     19  C   UNL     1       3.151   4.481  20.696  0.00  0.00    +0.000 C 
ATOM     20  C   UNL     1       2.839   3.172  21.389  0.00  0.00    +0.000 C 
ATOM     21  C   UNL     1       1.331   3.015  21.324  0.00  0.00    +0.000 C 
ATOM     22  C   UNL     1       0.800   4.016  20.292  0.00  0.00    +0.000 C 
ENDROOT
BRANCH   1  23
ATOM     23  C   UNL     1       0.388   9.390  20.861  0.00  0.00    +0.000 C 
BRANCH  23  28
ATOM     24  C   UNL     1      -2.135  10.533  18.245  0.00  0.00    +0.000 A 
ATOM     25  C   UNL     1      -2.264  11.886  18.555  0.00  0.00    +0.000 A 
ATOM     26  C   UNL     1      -1.590  12.415  19.655  0.00  0.00    +0.000 A 
ATOM     27  C   UNL     1      -0.765  11.599  20.429  0.00  0.00    +0.000 A 
ATOM     28  C   UNL     1      -0.626  10.239  20.124  0.00  0.00    +0.000 A 
ATOM     29  C   UNL     1      -1.371   9.702  19.061  0.00  0.00    +0.000 A 
BRANCH  24  31
ATOM     30  C   UNL     1      -2.664  10.822  16.005  0.00  0.00    +0.000 C 
ATOM     31  O   UNL     1      -2.707   9.952  17.141  0.00  0.00    +0.000 OA
ENDBRANCH  24  31
ENDBRANCH  23  28
ENDBRANCH   1  23
TORSDOF 3
ENDMDL
MODEL 5
REMARK VINA RESULT:      -7.5      8.057     11.711
REMARK  Name = 
REMARK  4 active torsions:
REMARK  status: ('A' for Active; 'I' for Inactive)
REMARK    1  A    between atoms: C_1  and  O_2
REMARK    2  A    between atoms: O_2  and  C_3
REMARK    3  A    between atoms: C_7  and  C_8
REMARK    4  A    between atoms: C_8  and  N_9
REMARK                            x       y       z     vdW  Elec       q    Type
REMARK                         _______ _______ _______ _____ _____    ______ ____
ROOT
ATOM      1  N   UNL     1      -1.907  12.715  20.392  0.00  0.00    +0.000 N 
ATOM      2  C   UNL     1      -3.114  12.433  19.770  0.00  0.00    +0.000 A 
ATOM      3  O   UNL     1      -3.164  12.069  18.598  0.00  0.00    +0.000 OA
ATOM      4  C   UNL     1      -4.392  12.619  20.553  0.00  0.00    +0.000 A 
ATOM      5  C   UNL     1      -4.332  13.261  21.750  0.00  0.00    +0.000 A 
ATOM      6  N   UNL     1      -3.087  13.526  22.329  0.00  0.00    +0.000 N 
ATOM      7  N   UNL     1      -2.747  14.025  23.544  0.00  0.00    +0.000 NA
ATOM      8  N   UNL     1      -1.424  13.989  23.609  0.00  0.00    +0.000 NA
ATOM      9  N   UNL     1      -0.886  13.500  22.452  0.00  0.00    +0.000 NA
ATOM     10  C   UNL     1      -1.908  13.219  21.676  0.00  0.00    +0.000 A 
ATOM     11  C   UNL     1      -5.597  13.586  22.455  0.00  0.00    +0.000 A 
ATOM     12  C   UNL     1      -5.737  14.658  23.345  0.00  0.00    +0.000 A 
ATOM     13  C   UNL     1      -6.885  14.785  24.131  0.00  0.00    +0.000 A 
ATOM     14  C   UNL     1      -7.892  13.829  24.052  0.00  0.00    +0.000 A 
ATOM     15  C   UNL     1      -7.810  12.818  23.099  0.00  0.00    +0.000 A 
ATOM     16  C   UNL     1      -6.702  12.751  22.246  0.00  0.00    +0.000 A 
ATOM     17  C   UNL     1      -6.666  11.762  21.117  0.00  0.00    +0.000 C 
ATOM     18  C   UNL     1      -5.734  12.193  19.937  0.00  0.00    +0.000 C 
ATOM     19  C   UNL     1      -6.217  13.397  19.098  0.00  0.00    +0.000 C 
ATOM     20  C   UNL     1      -7.177  12.862  18.057  0.00  0.00    +0.000 C 
ATOM     21  C   UNL     1      -6.755  11.427  17.801  0.00  0.00    +0.000 C 
ATOM     22  C   UNL     1      -5.810  11.008  18.932  0.00  0.00    +0.000 C 
ENDROOT
BRANCH   1  23
ATOM     23  C   UNL     1      -0.669  12.571  19.646  0.00  0.00    +0.000 C 
BRANCH  23  28
ATOM     24  C   UNL     1       0.834   9.409  21.148  0.00  0.00    +0.000 A 
ATOM     25  C   UNL     1       1.348   8.779  20.015  0.00  0.00    +0.000 A 
ATOM     26  C   UNL     1       1.147   9.342  18.755  0.00  0.00    +0.000 A 
ATOM     27  C   UNL     1       0.456  10.547  18.629  0.00  0.00    +0.000 A 
ATOM     28  C   UNL     1      -0.062  11.189  19.762  0.00  0.00    +0.000 A 
ATOM     29  C   UNL     1       0.080  10.572  21.016  0.00  0.00    +0.000 A 
BRANCH  24  31
ATOM     30  C   UNL     1       0.037   9.422  23.327  0.00  0.00    +0.000 C 
ATOM     31  O   UNL     1       1.049   8.958  22.427  0.00  0.00    +0.000 OA
ENDBRANCH  24  31
ENDBRANCH  23  28
ENDBRANCH   1  23
TORSDOF 3
ENDMDL
MODEL 6
REMARK VINA RESULT:      -7.4      7.479     12.071
REMARK  Name = 
REMARK  4 active torsions:
REMARK  status: ('A' for Active; 'I' for Inactive)
REMARK    1  A    between atoms: C_1  and  O_2
REMARK    2  A    between atoms: O_2  and  C_3
REMARK    3  A    between atoms: C_7  and  C_8
REMARK    4  A    between atoms: C_8  and  N_9
REMARK                            x       y       z     vdW  Elec       q    Type
REMARK                         _______ _______ _______ _____ _____    ______ ____
ROOT
ATOM      1  N   UNL     1      -3.936  11.740  18.304  0.00  0.00    +0.000 N 
ATOM      2  C   UNL     1      -3.145  12.052  19.401  0.00  0.00    +0.000 A 
ATOM      3  O   UNL     1      -3.468  12.930  20.198  0.00  0.00    +0.000 OA
ATOM      4  C   UNL     1      -1.841  11.313  19.586  0.00  0.00    +0.000 A 
ATOM      5  C   UNL     1      -1.384  10.538  18.567  0.00  0.00    +0.000 A 
ATOM      6  N   UNL     1      -2.221  10.261  17.482  0.00  0.00    +0.000 N 
ATOM      7  N   UNL     1      -2.072   9.433  16.418  0.00  0.00    +0.000 NA
ATOM      8  N   UNL     1      -3.206   9.487  15.736  0.00  0.00    +0.000 NA
ATOM      9  N   UNL     1      -4.090  10.353  16.316  0.00  0.00    +0.000 NA
ATOM     10  C   UNL     1      -3.481  10.820  17.382  0.00  0.00    +0.000 A 
ATOM     11  C   UNL     1      -0.034   9.932  18.675  0.00  0.00    +0.000 A 
ATOM     12  C   UNL     1       0.761   9.601  17.571  0.00  0.00    +0.000 A 
ATOM     13  C   UNL     1       1.926   8.847  17.732  0.00  0.00    +0.000 A 
ATOM     14  C   UNL     1       2.293   8.395  18.995  0.00  0.00    +0.000 A 
ATOM     15  C   UNL     1       1.569   8.803  20.111  0.00  0.00    +0.000 A 
ATOM     16  C   UNL     1       0.458   9.641  19.954  0.00  0.00    +0.000 A 
ATOM     17  C   UNL     1      -0.244  10.211  21.153  0.00  0.00    +0.000 C 
ATOM     18  C   UNL     1      -1.008  11.543  20.856  0.00  0.00    +0.000 C 
ATOM     19  C   UNL     1      -0.125  12.778  20.567  0.00  0.00    +0.000 C 
ATOM     20  C   UNL     1       0.261  13.375  21.904  0.00  0.00    +0.000 C 
ATOM     21  C   UNL     1      -0.855  13.007  22.864  0.00  0.00    +0.000 C 
ATOM     22  C   UNL     1      -1.692  11.904  22.206  0.00  0.00    +0.000 C 
ENDROOT
BRANCH   1  23
ATOM     23  C   UNL     1      -5.179  12.460  18.093  0.00  0.00    +0.000 C 
BRANCH  23  28
ATOM     24  C   UNL     1      -7.527  12.891  21.062  0.00  0.00    +0.000 A 
ATOM     25  C   UNL     1      -7.916  11.574  21.302  0.00  0.00    +0.000 A 
ATOM     26  C   UNL     1      -7.475  10.554  20.460  0.00  0.00    +0.000 A 
ATOM     27  C   UNL     1      -6.625  10.845  19.394  0.00  0.00    +0.000 A 
ATOM     28  C   UNL     1      -6.225  12.164  19.147  0.00  0.00    +0.000 A 
ATOM     29  C   UNL     1      -6.738  13.192  19.954  0.00  0.00    +0.000 A 
BRANCH  24  31
ATOM     30  C   UNL     1      -7.720  13.593  23.265  0.00  0.00    +0.000 C 
ATOM     31  O   UNL     1      -7.859  13.940  21.883  0.00  0.00    +0.000 OA
ENDBRANCH  24  31
ENDBRANCH  23  28
ENDBRANCH   1  23
TORSDOF 3
ENDMDL
MODEL 7
REMARK VINA RESULT:      -7.3      5.636      8.766
REMARK  Name = 
REMARK  4 active torsions:
REMARK  status: ('A' for Active; 'I' for Inactive)
REMARK    1  A    between atoms: C_1  and  O_2
REMARK    2  A    between atoms: O_2  and  C_3
REMARK    3  A    between atoms: C_7  and  C_8
REMARK    4  A    between atoms: C_8  and  N_9
REMARK                            x       y       z     vdW  Elec       q    Type
REMARK                         _______ _______ _______ _____ _____    ______ ____
ROOT
ATOM      1  N   UNL     1       0.328  10.433  19.611  0.00  0.00    +0.000 N 
ATOM      2  C   UNL     1      -0.522  10.271  18.527  0.00  0.00    +0.000 A 
ATOM      3  O   UNL     1      -0.143   9.738  17.487  0.00  0.00    +0.000 OA
ATOM      4  C   UNL     1      -1.933  10.800  18.629  0.00  0.00    +0.000 A 
ATOM      5  C   UNL     1      -2.251  11.605  19.678  0.00  0.00    +0.000 A 
ATOM      6  N   UNL     1      -1.352  11.738  20.741  0.00  0.00    +0.000 N 
ATOM      7  N   UNL     1      -1.466  12.358  21.942  0.00  0.00    +0.000 NA
ATOM      8  N   UNL     1      -0.347  12.103  22.605  0.00  0.00    +0.000 NA
ATOM      9  N   UNL     1       0.510  11.348  21.854  0.00  0.00    +0.000 NA
ATOM     10  C   UNL     1      -0.112  11.130  20.718  0.00  0.00    +0.000 A 
ATOM     11  C   UNL     1      -3.584  12.255  19.706  0.00  0.00    +0.000 A 
ATOM     12  C   UNL     1      -3.846  13.463  20.364  0.00  0.00    +0.000 A 
ATOM     13  C   UNL     1      -5.159  13.913  20.530  0.00  0.00    +0.000 A 
ATOM     14  C   UNL     1      -6.221  13.147  20.063  0.00  0.00    +0.000 A 
ATOM     15  C   UNL     1      -5.969  11.998  19.320  0.00  0.00    +0.000 A 
ATOM     16  C   UNL     1      -4.649  11.603  19.071  0.00  0.00    +0.000 A 
ATOM     17  C   UNL     1      -4.357  10.455  18.149  0.00  0.00    +0.000 C 
ATOM     18  C   UNL     1      -2.936  10.522  17.499  0.00  0.00    +0.000 C 
ATOM     19  C   UNL     1      -2.721  11.641  16.455  0.00  0.00    +0.000 C 
ATOM     20  C   UNL     1      -3.233  11.121  15.128  0.00  0.00    +0.000 C 
ATOM     21  C   UNL     1      -3.081   9.613  15.186  0.00  0.00    +0.000 C 
ATOM     22  C   UNL     1      -2.840   9.222  16.648  0.00  0.00    +0.000 C 
ENDROOT
BRANCH   1  23
ATOM     23  C   UNL     1       1.697   9.958  19.521  0.00  0.00    +0.000 C 
BRANCH  23  28
ATOM     24  C   UNL     1       2.315   6.246  18.923  0.00  0.00    +0.000 A 
ATOM     25  C   UNL     1       1.780   5.685  20.081  0.00  0.00    +0.000 A 
ATOM     26  C   UNL     1       1.282   6.510  21.089  0.00  0.00    +0.000 A 
ATOM     27  C   UNL     1       1.295   7.896  20.929  0.00  0.00    +0.000 A 
ATOM     28  C   UNL     1       1.828   8.470  19.767  0.00  0.00    +0.000 A 
ATOM     29  C   UNL     1       2.397   7.631  18.795  0.00  0.00    +0.000 A 
BRANCH  24  31
ATOM     30  C   UNL     1       2.000   4.300  17.701  0.00  0.00    +0.000 C 
ATOM     31  O   UNL     1       2.759   5.504  17.857  0.00  0.00    +0.000 OA
ENDBRANCH  24  31
ENDBRANCH  23  28
ENDBRANCH   1  23
TORSDOF 3
ENDMDL
MODEL 8
REMARK VINA RESULT:      -7.3      3.826      7.738
REMARK  Name = 
REMARK  4 active torsions:
REMARK  status: ('A' for Active; 'I' for Inactive)
REMARK    1  A    between atoms: C_1  and  O_2
REMARK    2  A    between atoms: O_2  and  C_3
REMARK    3  A    between atoms: C_7  and  C_8
REMARK    4  A    between atoms: C_8  and  N_9
REMARK                            x       y       z     vdW  Elec       q    Type
REMARK                         _______ _______ _______ _____ _____    ______ ____
ROOT
ATOM      1  N   UNL     1       2.145   8.797  18.747  0.00  0.00    +0.000 N 
ATOM      2  C   UNL     1       2.948   7.878  18.086  0.00  0.00    +0.000 A 
ATOM      3  O   UNL     1       3.485   8.147  17.015  0.00  0.00    +0.000 OA
ATOM      4  C   UNL     1       3.125   6.506  18.692  0.00  0.00    +0.000 A 
ATOM      5  C   UNL     1       2.325   6.146  19.731  0.00  0.00    +0.000 A 
ATOM      6  N   UNL     1       1.531   7.113  20.356  0.00  0.00    +0.000 N 
ATOM      7  N   UNL     1       0.757   7.059  21.469  0.00  0.00    +0.000 NA
ATOM      8  N   UNL     1       0.291   8.283  21.664  0.00  0.00    +0.000 NA
ATOM      9  N   UNL     1       0.724   9.137  20.688  0.00  0.00    +0.000 NA
ATOM     10  C   UNL     1       1.481   8.414  19.894  0.00  0.00    +0.000 A 
ATOM     11  C   UNL     1       2.383   4.751  20.233  0.00  0.00    +0.000 A 
ATOM     12  C   UNL     1       1.312   4.108  20.866  0.00  0.00    +0.000 A 
ATOM     13  C   UNL     1       1.494   2.875  21.498  0.00  0.00    +0.000 A 
ATOM     14  C   UNL     1       2.755   2.287  21.523  0.00  0.00    +0.000 A 
ATOM     15  C   UNL     1       3.801   2.864  20.811  0.00  0.00    +0.000 A 
ATOM     16  C   UNL     1       3.588   4.050  20.097  0.00  0.00    +0.000 A 
ATOM     17  C   UNL     1       4.659   4.607  19.205  0.00  0.00    +0.000 C 
ATOM     18  C   UNL     1       4.107   5.511  18.054  0.00  0.00    +0.000 C 
ATOM     19  C   UNL     1       3.316   4.785  16.943  0.00  0.00    +0.000 C 
ATOM     20  C   UNL     1       4.326   4.251  15.950  0.00  0.00    +0.000 C 
ATOM     21  C   UNL     1       5.525   5.177  16.035  0.00  0.00    +0.000 C 
ATOM     22  C   UNL     1       5.381   6.012  17.312  0.00  0.00    +0.000 C 
ENDROOT
BRANCH   1  23
ATOM     23  C   UNL     1       1.939  10.111  18.166  0.00  0.00    +0.000 C 
BRANCH  23  28
ATOM     24  C   UNL     1      -1.349  11.922  18.822  0.00  0.00    +0.000 A 
ATOM     25  C   UNL     1      -2.264  11.067  18.210  0.00  0.00    +0.000 A 
ATOM     26  C   UNL     1      -1.812   9.939  17.524  0.00  0.00    +0.000 A 
ATOM     27  C   UNL     1      -0.448   9.652  17.471  0.00  0.00    +0.000 A 
ATOM     28  C   UNL     1       0.479  10.504  18.085  0.00  0.00    +0.000 A 
ATOM     29  C   UNL     1       0.018  11.676  18.705  0.00  0.00    +0.000 A 
BRANCH  24  31
ATOM     30  C   UNL     1      -2.869  12.732  20.375  0.00  0.00    +0.000 C 
ATOM     31  O   UNL     1      -1.715  13.010  19.574  0.00  0.00    +0.000 OA
ENDBRANCH  24  31
ENDBRANCH  23  28
ENDBRANCH   1  23
TORSDOF 3
ENDMDL
MODEL 9
REMARK VINA RESULT:      -7.3      7.962     11.419
REMARK  Name = 
REMARK  4 active torsions:
REMARK  status: ('A' for Active; 'I' for Inactive)
REMARK    1  A    between atoms: C_1  and  O_2
REMARK    2  A    between atoms: O_2  and  C_3
REMARK    3  A    between atoms: C_7  and  C_8
REMARK    4  A    between atoms: C_8  and  N_9
REMARK                            x       y       z     vdW  Elec       q    Type
REMARK                         _______ _______ _______ _____ _____    ______ ____
ROOT
ATOM      1  N   UNL     1      -1.845  12.837  20.426  0.00  0.00    +0.000 N 
ATOM      2  C   UNL     1      -3.035  12.552  19.771  0.00  0.00    +0.000 A 
ATOM      3  O   UNL     1      -3.057  12.248  18.582  0.00  0.00    +0.000 OA
ATOM      4  C   UNL     1      -4.328  12.659  20.544  0.00  0.00    +0.000 A 
ATOM      5  C   UNL     1      -4.305  13.240  21.773  0.00  0.00    +0.000 A 
ATOM      6  N   UNL     1      -3.076  13.512  22.383  0.00  0.00    +0.000 N 
ATOM      7  N   UNL     1      -2.769  13.957  23.627  0.00  0.00    +0.000 NA
ATOM      8  N   UNL     1      -1.447  13.957  23.711  0.00  0.00    +0.000 NA
ATOM      9  N   UNL     1      -0.878  13.545  22.539  0.00  0.00    +0.000 NA
ATOM     10  C   UNL     1      -1.880  13.274  21.734  0.00  0.00    +0.000 A 
ATOM     11  C   UNL     1      -5.588  13.490  22.474  0.00  0.00    +0.000 A 
ATOM     12  C   UNL     1      -5.774  14.510  23.416  0.00  0.00    +0.000 A 
ATOM     13  C   UNL     1      -6.936  14.562  24.189  0.00  0.00    +0.000 A 
ATOM     14  C   UNL     1      -7.912  13.581  24.045  0.00  0.00    +0.000 A 
ATOM     15  C   UNL     1      -7.786  12.625  23.043  0.00  0.00    +0.000 A 
ATOM     16  C   UNL     1      -6.665  12.635  22.205  0.00  0.00    +0.000 A 
ATOM     17  C   UNL     1      -6.583  11.707  21.027  0.00  0.00    +0.000 C 
ATOM     18  C   UNL     1      -5.648  12.226  19.886  0.00  0.00    +0.000 C 
ATOM     19  C   UNL     1      -6.156  13.457  19.103  0.00  0.00    +0.000 C 
ATOM     20  C   UNL     1      -7.084  12.948  18.020  0.00  0.00    +0.000 C 
ATOM     21  C   UNL     1      -6.615  11.541  17.697  0.00  0.00    +0.000 C 
ATOM     22  C   UNL     1      -5.674  11.092  18.821  0.00  0.00    +0.000 C 
ENDROOT
BRANCH   1  23
ATOM     23  C   UNL     1      -0.594  12.769  19.693  0.00  0.00    +0.000 C 
BRANCH  23  28
ATOM     24  C   UNL     1       1.283   9.602  18.710  0.00  0.00    +0.000 A 
ATOM     25  C   UNL     1       1.051   8.786  19.816  0.00  0.00    +0.000 A 
ATOM     26  C   UNL     1       0.346   9.283  20.912  0.00  0.00    +0.000 A 
ATOM     27  C   UNL     1      -0.149  10.587  20.892  0.00  0.00    +0.000 A 
ATOM     28  C   UNL     1       0.076  11.414  19.784  0.00  0.00    +0.000 A 
ATOM     29  C   UNL     1       0.854  10.927  18.721  0.00  0.00    +0.000 A 
BRANCH  24  31
ATOM     30  C   UNL     1       2.793   8.076  17.830  0.00  0.00    +0.000 C 
ATOM     31  O   UNL     1       1.904   9.166  17.566  0.00  0.00    +0.000 OA
ENDBRANCH  24  31
ENDBRANCH  23  28
ENDBRANCH   1  23
TORSDOF 3
ENDMDL
