MODEL 1
REMARK VINA RESULT:      -6.9      0.000      0.000
REMARK  Name = 
REMARK  10 active torsions:
REMARK  status: ('A' for Active; 'I' for Inactive)
REMARK    1  A    between atoms: C_1  and  C_2
REMARK    2  A    between atoms: C_2  and  C_3
REMARK    3  A    between atoms: C_3  and  S_4
REMARK    4  A    between atoms: S_4  and  C_5
REMARK    5  A    between atoms: C_10  and  C_11
REMARK    6  A    between atoms: N_13  and  C_14
REMARK    7  A    between atoms: C_17  and  O_18
REMARK    8  A    between atoms: O_18  and  C_19
REMARK    9  A    between atoms: C_21  and  O_22
REMARK   10  A    between atoms: O_22  and  C_23
REMARK                            x       y       z     vdW  Elec       q    Type
REMARK                         _______ _______ _______ _____ _____    ______ ____
ROOT
ATOM      1  C   UNL     1       2.042   5.908  20.270  0.00  0.00    +0.000 C 
ATOM      2  O   UNL     1       0.898   5.500  20.447  0.00  0.00    +0.000 OA
ATOM      3  N   UNL     1       2.399   7.254  20.314  0.00  0.00    +0.000 N 
ATOM      4  H   UNL     1       3.299   7.510  19.924  0.00  0.00    +0.000 HD
ENDROOT
BRANCH   1  10
ATOM      5  C   UNL     1       5.333   4.779  19.217  0.00  0.00    +0.000 A 
ATOM      6  N   UNL     1       5.330   3.442  19.350  0.00  0.00    +0.000 NA
ATOM      7  C   UNL     1       4.183   2.886  19.786  0.00  0.00    +0.000 A 
ATOM      8  C   UNL     1       3.045   3.592  20.102  0.00  0.00    +0.000 A 
ATOM      9 CL   UNL     1       1.664   2.718  20.625  0.00  0.00    +0.000 Cl
ATOM     10  C   UNL     1       3.155   4.963  19.928  0.00  0.00    +0.000 A 
ATOM     11  N   UNL     1       4.285   5.574  19.464  0.00  0.00    +0.000 NA
BRANCH   5  12
ATOM     12  S   UNL     1       6.862   5.565  18.792  0.00  0.00    +0.000 S 
BRANCH  12  13
ATOM     13  C   UNL     1       7.279   4.631  17.286  0.00  0.00    +0.000 C 
BRANCH  13  15
ATOM     14  C   UNL     1       6.007   3.892  15.233  0.00  0.00    +0.000 C 
ATOM     15  C   UNL     1       6.334   5.053  16.160  0.00  0.00    +0.000 C 
ENDBRANCH  13  15
ENDBRANCH  12  13
ENDBRANCH   5  12
ENDBRANCH   1  10
BRANCH   3  16
ATOM     16  C   UNL     1       1.466   8.274  20.602  0.00  0.00    +0.000 A 
ATOM     17  C   UNL     1       1.025   8.438  21.921  0.00  0.00    +0.000 A 
ATOM     18  C   UNL     1       0.142   9.462  22.263  0.00  0.00    +0.000 A 
ATOM     19  C   UNL     1      -0.339  10.330  21.288  0.00  0.00    +0.000 A 
ATOM     20  C   UNL     1       0.098  10.183  19.970  0.00  0.00    +0.000 A 
ATOM     21  C   UNL     1       1.008   9.167  19.621  0.00  0.00    +0.000 A 
BRANCH  19  22
ATOM     22  O   UNL     1      -1.211  11.276  21.754  0.00  0.00    +0.000 OA
ATOM     23  C   UNL     1      -1.499  11.261  23.145  0.00  0.00    +0.000 C 
ENDBRANCH  19  22
BRANCH  21  24
ATOM     24  O   UNL     1       1.374   9.171  18.298  0.00  0.00    +0.000 OA
ATOM     25  C   UNL     1       2.086  10.319  17.848  0.00  0.00    +0.000 C 
ENDBRANCH  21  24
ENDBRANCH   3  16
TORSDOF 7
ENDMDL
MODEL 2
REMARK VINA RESULT:      -6.9      1.010      1.320
REMARK  Name = 
REMARK  10 active torsions:
REMARK  status: ('A' for Active; 'I' for Inactive)
REMARK    1  A    between atoms: C_1  and  C_2
REMARK    2  A    between atoms: C_2  and  C_3
REMARK    3  A    between atoms: C_3  and  S_4
REMARK    4  A    between atoms: S_4  and  C_5
REMARK    5  A    between atoms: C_10  and  C_11
REMARK    6  A    between atoms: N_13  and  C_14
REMARK    7  A    between atoms: C_17  and  O_18
REMARK    8  A    between atoms: O_18  and  C_19
REMARK    9  A    between atoms: C_21  and  O_22
REMARK   10  A    between atoms: O_22  and  C_23
REMARK                            x       y       z     vdW  Elec       q    Type
REMARK                         _______ _______ _______ _____ _____    ______ ____
ROOT
ATOM      1  C   UNL     1       2.003   5.868  20.211  0.00  0.00    +0.000 C 
ATOM      2  O   UNL     1       0.875   5.506  20.532  0.00  0.00    +0.000 OA
ATOM      3  N   UNL     1       2.409   7.200  20.180  0.00  0.00    +0.000 N 
ATOM      4  H   UNL     1       3.264   7.415  19.680  0.00  0.00    +0.000 HD
ENDROOT
BRANCH   1  10
ATOM      5  C   UNL     1       4.768   4.470  18.310  0.00  0.00    +0.000 A 
ATOM      6  N   UNL     1       5.030   3.271  18.857  0.00  0.00    +0.000 NA
ATOM      7  C   UNL     1       4.246   2.899  19.887  0.00  0.00    +0.000 A 
ATOM      8  C   UNL     1       3.221   3.658  20.401  0.00  0.00    +0.000 A 
ATOM      9 CL   UNL     1       2.307   3.017  21.704  0.00  0.00    +0.000 Cl
ATOM     10  C   UNL     1       3.034   4.875  19.763  0.00  0.00    +0.000 A 
ATOM     11  N   UNL     1       3.785   5.290  18.699  0.00  0.00    +0.000 NA
BRANCH   5  12
ATOM     12  S   UNL     1       5.868   5.066  17.056  0.00  0.00    +0.000 S 
BRANCH  12  13
ATOM     13  C   UNL     1       7.459   4.844  17.913  0.00  0.00    +0.000 C 
BRANCH  13  15
ATOM     14  C   UNL     1       7.712   7.357  17.914  0.00  0.00    +0.000 C 
ATOM     15  C   UNL     1       7.751   6.088  18.752  0.00  0.00    +0.000 C 
ENDBRANCH  13  15
ENDBRANCH  12  13
ENDBRANCH   5  12
ENDBRANCH   1  10
BRANCH   3  16
ATOM     16  C   UNL     1       1.554   8.260  20.552  0.00  0.00    +0.000 A 
ATOM     17  C   UNL     1       1.306   8.487  21.912  0.00  0.00    +0.000 A 
ATOM     18  C   UNL     1       0.507   9.552  22.330  0.00  0.00    +0.000 A 
ATOM     19  C   UNL     1      -0.083  10.397  21.395  0.00  0.00    +0.000 A 
ATOM     20  C   UNL     1       0.162  10.187  20.037  0.00  0.00    +0.000 A 
ATOM     21  C   UNL     1       0.987   9.130  19.608  0.00  0.00    +0.000 A 
BRANCH  19  22
ATOM     22  O   UNL     1      -0.855  11.387  21.938  0.00  0.00    +0.000 OA
ATOM     23  C   UNL     1      -1.467  11.117  23.192  0.00  0.00    +0.000 C 
ENDBRANCH  19  22
BRANCH  21  24
ATOM     24  O   UNL     1       1.163   9.071  18.248  0.00  0.00    +0.000 OA
ATOM     25  C   UNL     1       2.198   9.893  17.715  0.00  0.00    +0.000 C 
ENDBRANCH  21  24
ENDBRANCH   3  16
TORSDOF 7
ENDMDL
MODEL 3
REMARK VINA RESULT:      -6.6      1.757      2.046
REMARK  Name = 
REMARK  10 active torsions:
REMARK  status: ('A' for Active; 'I' for Inactive)
REMARK    1  A    between atoms: C_1  and  C_2
REMARK    2  A    between atoms: C_2  and  C_3
REMARK    3  A    between atoms: C_3  and  S_4
REMARK    4  A    between atoms: S_4  and  C_5
REMARK    5  A    between atoms: C_10  and  C_11
REMARK    6  A    between atoms: N_13  and  C_14
REMARK    7  A    between atoms: C_17  and  O_18
REMARK    8  A    between atoms: O_18  and  C_19
REMARK    9  A    between atoms: C_21  and  O_22
REMARK   10  A    between atoms: O_22  and  C_23
REMARK                            x       y       z     vdW  Elec       q    Type
REMARK                         _______ _______ _______ _____ _____    ______ ____
ROOT
ATOM      1  C   UNL     1       2.223   6.329  19.613  0.00  0.00    +0.000 C 
ATOM      2  O   UNL     1       1.816   5.791  20.638  0.00  0.00    +0.000 OA
ATOM      3  N   UNL     1       2.036   7.678  19.320  0.00  0.00    +0.000 N 
ATOM      4  H   UNL     1       2.189   7.972  18.363  0.00  0.00    +0.000 HD
ENDROOT
BRANCH   1  10
ATOM      5  C   UNL     1       4.698   5.470  17.093  0.00  0.00    +0.000 A 
ATOM      6  N   UNL     1       4.390   4.231  16.674  0.00  0.00    +0.000 NA
ATOM      7  C   UNL     1       3.305   3.662  17.233  0.00  0.00    +0.000 A 
ATOM      8  C   UNL     1       2.516   4.258  18.189  0.00  0.00    +0.000 A 
ATOM      9 CL   UNL     1       1.156   3.394  18.778  0.00  0.00    +0.000 Cl
ATOM     10  C   UNL     1       2.921   5.535  18.549  0.00  0.00    +0.000 A 
ATOM     11  N   UNL     1       3.997   6.168  17.995  0.00  0.00    +0.000 NA
BRANCH   5  12
ATOM     12  S   UNL     1       6.200   6.196  16.499  0.00  0.00    +0.000 S 
BRANCH  12  13
ATOM     13  C   UNL     1       7.370   5.525  17.721  0.00  0.00    +0.000 C 
BRANCH  13  15
ATOM     14  C   UNL     1       7.920   7.988  17.817  0.00  0.00    +0.000 C 
ATOM     15  C   UNL     1       7.907   6.671  18.578  0.00  0.00    +0.000 C 
ENDBRANCH  13  15
ENDBRANCH  12  13
ENDBRANCH   5  12
ENDBRANCH   1  10
BRANCH   3  16
ATOM     16  C   UNL     1       1.380   8.560  20.207  0.00  0.00    +0.000 A 
ATOM     17  C   UNL     1       1.518   8.362  21.587  0.00  0.00    +0.000 A 
ATOM     18  C   UNL     1       0.929   9.235  22.501  0.00  0.00    +0.000 A 
ATOM     19  C   UNL     1       0.167  10.311  22.056  0.00  0.00    +0.000 A 
ATOM     20  C   UNL     1       0.027  10.524  20.684  0.00  0.00    +0.000 A 
ATOM     21  C   UNL     1       0.639   9.662  19.753  0.00  0.00    +0.000 A 
BRANCH  19  22
ATOM     22  O   UNL     1      -0.368  11.076  23.056  0.00  0.00    +0.000 OA
ATOM     23  C   UNL     1      -1.357  12.026  22.686  0.00  0.00    +0.000 C 
ENDBRANCH  19  22
BRANCH  21  24
ATOM     24  O   UNL     1       0.443  10.019  18.443  0.00  0.00    +0.000 OA
ATOM     25  C   UNL     1      -0.911  10.191  18.036  0.00  0.00    +0.000 C 
ENDBRANCH  21  24
ENDBRANCH   3  16
TORSDOF 7
ENDMDL
MODEL 4
REMARK VINA RESULT:      -6.6      1.854      2.685
REMARK  Name = 
REMARK  10 active torsions:
REMARK  status: ('A' for Active; 'I' for Inactive)
REMARK    1  A    between atoms: C_1  and  C_2
REMARK    2  A    between atoms: C_2  and  C_3
REMARK    3  A    between atoms: C_3  and  S_4
REMARK    4  A    between atoms: S_4  and  C_5
REMARK    5  A    between atoms: C_10  and  C_11
REMARK    6  A    between atoms: N_13  and  C_14
REMARK    7  A    between atoms: C_17  and  O_18
REMARK    8  A    between atoms: O_18  and  C_19
REMARK    9  A    between atoms: C_21  and  O_22
REMARK   10  A    between atoms: O_22  and  C_23
REMARK                            x       y       z     vdW  Elec       q    Type
REMARK                         _______ _______ _______ _____ _____    ______ ____
ROOT
ATOM      1  C   UNL     1       2.441   6.113  18.664  0.00  0.00    +0.000 C 
ATOM      2  O   UNL     1       1.509   5.949  17.882  0.00  0.00    +0.000 OA
ATOM      3  N   UNL     1       2.659   7.294  19.371  0.00  0.00    +0.000 N 
ATOM      4  H   UNL     1       3.569   7.420  19.798  0.00  0.00    +0.000 HD
ENDROOT
BRANCH   1  10
ATOM      5  C   UNL     1       5.619   4.366  18.427  0.00  0.00    +0.000 A 
ATOM      6  N   UNL     1       5.507   3.277  19.207  0.00  0.00    +0.000 NA
ATOM      7  C   UNL     1       4.321   3.101  19.822  0.00  0.00    +0.000 A 
ATOM      8  C   UNL     1       3.248   3.953  19.705  0.00  0.00    +0.000 A 
ATOM      9 CL   UNL     1       1.803   3.563  20.545  0.00  0.00    +0.000 Cl
ATOM     10  C   UNL     1       3.470   5.043  18.877  0.00  0.00    +0.000 A 
ATOM     11  N   UNL     1       4.643   5.255  18.210  0.00  0.00    +0.000 NA
BRANCH   5  12
ATOM     12  S   UNL     1       7.205   4.718  17.722  0.00  0.00    +0.000 S 
BRANCH  12  13
ATOM     13  C   UNL     1       7.552   6.314  18.527  0.00  0.00    +0.000 C 
BRANCH  13  15
ATOM     14  C   UNL     1       8.178   8.700  17.986  0.00  0.00    +0.000 C 
ATOM     15  C   UNL     1       7.544   7.417  17.469  0.00  0.00    +0.000 C 
ENDBRANCH  13  15
ENDBRANCH  12  13
ENDBRANCH   5  12
ENDBRANCH   1  10
BRANCH   3  16
ATOM     16  C   UNL     1       1.795   8.407  19.269  0.00  0.00    +0.000 A 
ATOM     17  C   UNL     1       1.606   9.005  18.016  0.00  0.00    +0.000 A 
ATOM     18  C   UNL     1       0.725  10.075  17.856  0.00  0.00    +0.000 A 
ATOM     19  C   UNL     1       0.034  10.587  18.950  0.00  0.00    +0.000 A 
ATOM     20  C   UNL     1       0.207   9.995  20.202  0.00  0.00    +0.000 A 
ATOM     21  C   UNL     1       1.076   8.899  20.368  0.00  0.00    +0.000 A 
BRANCH  19  22
ATOM     22  O   UNL     1      -0.781  11.647  18.657  0.00  0.00    +0.000 OA
ATOM     23  C   UNL     1      -1.906  11.851  19.500  0.00  0.00    +0.000 C 
ENDBRANCH  19  22
BRANCH  21  24
ATOM     24  O   UNL     1       1.115   8.402  21.647  0.00  0.00    +0.000 OA
ATOM     25  C   UNL     1       0.607   9.256  22.667  0.00  0.00    +0.000 C 
ENDBRANCH  21  24
ENDBRANCH   3  16
TORSDOF 7
ENDMDL
MODEL 5
REMARK VINA RESULT:      -6.5      0.939      1.008
REMARK  Name = 
REMARK  10 active torsions:
REMARK  status: ('A' for Active; 'I' for Inactive)
REMARK    1  A    between atoms: C_1  and  C_2
REMARK    2  A    between atoms: C_2  and  C_3
REMARK    3  A    between atoms: C_3  and  S_4
REMARK    4  A    between atoms: S_4  and  C_5
REMARK    5  A    between atoms: C_10  and  C_11
REMARK    6  A    between atoms: N_13  and  C_14
REMARK    7  A    between atoms: C_17  and  O_18
REMARK    8  A    between atoms: O_18  and  C_19
REMARK    9  A    between atoms: C_21  and  O_22
REMARK   10  A    between atoms: O_22  and  C_23
REMARK                            x       y       z     vdW  Elec       q    Type
REMARK                         _______ _______ _______ _____ _____    ______ ____
ROOT
ATOM      1  C   UNL     1       1.875   5.715  20.406  0.00  0.00    +0.000 C 
ATOM      2  O   UNL     1       0.699   5.431  20.613  0.00  0.00    +0.000 OA
ATOM      3  N   UNL     1       2.360   7.020  20.359  0.00  0.00    +0.000 N 
ATOM      4  H   UNL     1       3.276   7.163  19.949  0.00  0.00    +0.000 HD
ENDROOT
BRANCH   1  10
ATOM      5  C   UNL     1       4.856   4.137  19.051  0.00  0.00    +0.000 A 
ATOM      6  N   UNL     1       4.890   2.896  19.567  0.00  0.00    +0.000 NA
ATOM      7  C   UNL     1       3.872   2.559  20.381  0.00  0.00    +0.000 A 
ATOM      8  C   UNL     1       2.829   3.392  20.712  0.00  0.00    +0.000 A 
ATOM      9 CL   UNL     1       1.602   2.789  21.750  0.00  0.00    +0.000 Cl
ATOM     10  C   UNL     1       2.890   4.647  20.126  0.00  0.00    +0.000 A 
ATOM     11  N   UNL     1       3.886   5.031  19.273  0.00  0.00    +0.000 NA
BRANCH   5  12
ATOM     12  S   UNL     1       6.249   4.675  18.098  0.00  0.00    +0.000 S 
BRANCH  12  13
ATOM     13  C   UNL     1       5.447   4.893  16.478  0.00  0.00    +0.000 C 
BRANCH  13  15
ATOM     14  C   UNL     1       5.921   4.229  14.089  0.00  0.00    +0.000 C 
ATOM     15  C   UNL     1       5.905   3.776  15.541  0.00  0.00    +0.000 C 
ENDBRANCH  13  15
ENDBRANCH  12  13
ENDBRANCH   5  12
ENDBRANCH   1  10
BRANCH   3  16
ATOM     16  C   UNL     1       1.531   8.143  20.579  0.00  0.00    +0.000 A 
ATOM     17  C   UNL     1       1.215   8.504  21.895  0.00  0.00    +0.000 A 
ATOM     18  C   UNL     1       0.441   9.632  22.165  0.00  0.00    +0.000 A 
ATOM     19  C   UNL     1      -0.055  10.410  21.124  0.00  0.00    +0.000 A 
ATOM     20  C   UNL     1       0.259  10.067  19.808  0.00  0.00    +0.000 A 
ATOM     21  C   UNL     1       1.060   8.943  19.527  0.00  0.00    +0.000 A 
BRANCH  19  22
ATOM     22  O   UNL     1      -0.814  11.475  21.527  0.00  0.00    +0.000 OA
ATOM     23  C   UNL     1      -1.615  12.111  20.540  0.00  0.00    +0.000 C 
ENDBRANCH  19  22
BRANCH  21  24
ATOM     24  O   UNL     1       1.313   8.753  18.192  0.00  0.00    +0.000 OA
ATOM     25  C   UNL     1       2.663   8.939  17.778  0.00  0.00    +0.000 C 
ENDBRANCH  21  24
ENDBRANCH   3  16
TORSDOF 7
ENDMDL
MODEL 6
REMARK VINA RESULT:      -6.4      0.977      1.006
REMARK  Name = 
REMARK  10 active torsions:
REMARK  status: ('A' for Active; 'I' for Inactive)
REMARK    1  A    between atoms: C_1  and  C_2
REMARK    2  A    between atoms: C_2  and  C_3
REMARK    3  A    between atoms: C_3  and  S_4
REMARK    4  A    between atoms: S_4  and  C_5
REMARK    5  A    between atoms: C_10  and  C_11
REMARK    6  A    between atoms: N_13  and  C_14
REMARK    7  A    between atoms: C_17  and  O_18
REMARK    8  A    between atoms: O_18  and  C_19
REMARK    9  A    between atoms: C_21  and  O_22
REMARK   10  A    between atoms: O_22  and  C_23
REMARK                            x       y       z     vdW  Elec       q    Type
REMARK                         _______ _______ _______ _____ _____    ______ ____
ROOT
ATOM      1  C   UNL     1       1.928   6.082  20.402  0.00  0.00    +0.000 C 
ATOM      2  O   UNL     1       0.805   5.651  20.647  0.00  0.00    +0.000 OA
ATOM      3  N   UNL     1       2.279   7.427  20.504  0.00  0.00    +0.000 N 
ATOM      4  H   UNL     1       3.142   7.718  20.057  0.00  0.00    +0.000 HD
ENDROOT
BRANCH   1  10
ATOM      5  C   UNL     1       4.919   5.017  18.632  0.00  0.00    +0.000 A 
ATOM      6  N   UNL     1       5.121   3.735  18.978  0.00  0.00    +0.000 NA
ATOM      7  C   UNL     1       4.218   3.191  19.816  0.00  0.00    +0.000 A 
ATOM      8  C   UNL     1       3.131   3.858  20.331  0.00  0.00    +0.000 A 
ATOM      9 CL   UNL     1       2.068   3.002  21.371  0.00  0.00    +0.000 Cl
ATOM     10  C   UNL     1       3.015   5.174  19.910  0.00  0.00    +0.000 A 
ATOM     11  N   UNL     1       3.888   5.766  19.041  0.00  0.00    +0.000 NA
BRANCH   5  12
ATOM     12  S   UNL     1       6.160   5.817  17.655  0.00  0.00    +0.000 S 
BRANCH  12  13
ATOM     13  C   UNL     1       5.216   6.091  16.122  0.00  0.00    +0.000 C 
BRANCH  13  15
ATOM     14  C   UNL     1       5.967   3.832  15.279  0.00  0.00    +0.000 C 
ATOM     15  C   UNL     1       5.883   5.321  14.982  0.00  0.00    +0.000 C 
ENDBRANCH  13  15
ENDBRANCH  12  13
ENDBRANCH   5  12
ENDBRANCH   1  10
BRANCH   3  16
ATOM     16  C   UNL     1       1.367   8.416  20.933  0.00  0.00    +0.000 A 
ATOM     17  C   UNL     1       1.077   8.524  22.299  0.00  0.00    +0.000 A 
ATOM     18  C   UNL     1       0.220   9.517  22.776  0.00  0.00    +0.000 A 
ATOM     19  C   UNL     1      -0.385  10.407  21.894  0.00  0.00    +0.000 A 
ATOM     20  C   UNL     1      -0.099  10.315  20.531  0.00  0.00    +0.000 A 
ATOM     21  C   UNL     1       0.784   9.331  20.043  0.00  0.00    +0.000 A 
BRANCH  19  22
ATOM     22  O   UNL     1      -1.215  11.316  22.491  0.00  0.00    +0.000 OA
ATOM     23  C   UNL     1      -1.100  12.669  22.074  0.00  0.00    +0.000 C 
ENDBRANCH  19  22
BRANCH  21  24
ATOM     24  O   UNL     1       0.995   9.388  18.689  0.00  0.00    +0.000 OA
ATOM     25  C   UNL     1      -0.062   9.942  17.912  0.00  0.00    +0.000 C 
ENDBRANCH  21  24
ENDBRANCH   3  16
TORSDOF 7
ENDMDL
MODEL 7
REMARK VINA RESULT:      -6.3      1.553      2.369
REMARK  Name = 
REMARK  10 active torsions:
REMARK  status: ('A' for Active; 'I' for Inactive)
REMARK    1  A    between atoms: C_1  and  C_2
REMARK    2  A    between atoms: C_2  and  C_3
REMARK    3  A    between atoms: C_3  and  S_4
REMARK    4  A    between atoms: S_4  and  C_5
REMARK    5  A    between atoms: C_10  and  C_11
REMARK    6  A    between atoms: N_13  and  C_14
REMARK    7  A    between atoms: C_17  and  O_18
REMARK    8  A    between atoms: O_18  and  C_19
REMARK    9  A    between atoms: C_21  and  O_22
REMARK   10  A    between atoms: O_22  and  C_23
REMARK                            x       y       z     vdW  Elec       q    Type
REMARK                         _______ _______ _______ _____ _____    ______ ____
ROOT
ATOM      1  C   UNL     1       2.437   6.124  18.628  0.00  0.00    +0.000 C 
ATOM      2  O   UNL     1       1.529   5.970  17.817  0.00  0.00    +0.000 OA
ATOM      3  N   UNL     1       2.633   7.295  19.358  0.00  0.00    +0.000 N 
ATOM      4  H   UNL     1       3.531   7.416  19.812  0.00  0.00    +0.000 HD
ENDROOT
BRANCH   1  10
ATOM      5  C   UNL     1       5.645   4.418  18.513  0.00  0.00    +0.000 A 
ATOM      6  N   UNL     1       5.494   3.289  19.227  0.00  0.00    +0.000 NA
ATOM      7  C   UNL     1       4.273   3.072  19.751  0.00  0.00    +0.000 A 
ATOM      8  C   UNL     1       3.199   3.920  19.607  0.00  0.00    +0.000 A 
ATOM      9 CL   UNL     1       1.707   3.474  20.328  0.00  0.00    +0.000 Cl
ATOM     10  C   UNL     1       3.463   5.053  18.853  0.00  0.00    +0.000 A 
ATOM     11  N   UNL     1       4.675   5.309  18.277  0.00  0.00    +0.000 NA
BRANCH   5  12
ATOM     12  S   UNL     1       7.269   4.819  17.934  0.00  0.00    +0.000 S 
BRANCH  12  13
ATOM     13  C   UNL     1       6.840   5.683  16.389  0.00  0.00    +0.000 C 
BRANCH  13  15
ATOM     14  C   UNL     1       5.599   4.331  14.655  0.00  0.00    +0.000 C 
ATOM     15  C   UNL     1       6.960   4.705  15.221  0.00  0.00    +0.000 C 
ENDBRANCH  13  15
ENDBRANCH  12  13
ENDBRANCH   5  12
ENDBRANCH   1  10
BRANCH   3  16
ATOM     16  C   UNL     1       1.770   8.407  19.247  0.00  0.00    +0.000 A 
ATOM     17  C   UNL     1       1.618   9.027  18.000  0.00  0.00    +0.000 A 
ATOM     18  C   UNL     1       0.740  10.098  17.831  0.00  0.00    +0.000 A 
ATOM     19  C   UNL     1       0.013  10.589  18.912  0.00  0.00    +0.000 A 
ATOM     20  C   UNL     1       0.149   9.975  20.158  0.00  0.00    +0.000 A 
ATOM     21  C   UNL     1       1.015   8.878  20.332  0.00  0.00    +0.000 A 
BRANCH  19  22
ATOM     22  O   UNL     1      -0.794  11.651  18.612  0.00  0.00    +0.000 OA
ATOM     23  C   UNL     1      -2.197  11.447  18.710  0.00  0.00    +0.000 C 
ENDBRANCH  19  22
BRANCH  21  24
ATOM     24  O   UNL     1       1.015   8.358  21.602  0.00  0.00    +0.000 OA
ATOM     25  C   UNL     1       0.797   9.287  22.659  0.00  0.00    +0.000 C 
ENDBRANCH  21  24
ENDBRANCH   3  16
TORSDOF 7
ENDMDL
MODEL 8
REMARK VINA RESULT:      -6.3      3.965      8.068
REMARK  Name = 
REMARK  10 active torsions:
REMARK  status: ('A' for Active; 'I' for Inactive)
REMARK    1  A    between atoms: C_1  and  C_2
REMARK    2  A    between atoms: C_2  and  C_3
REMARK    3  A    between atoms: C_3  and  S_4
REMARK    4  A    between atoms: S_4  and  C_5
REMARK    5  A    between atoms: C_10  and  C_11
REMARK    6  A    between atoms: N_13  and  C_14
REMARK    7  A    between atoms: C_17  and  O_18
REMARK    8  A    between atoms: O_18  and  C_19
REMARK    9  A    between atoms: C_21  and  O_22
REMARK   10  A    between atoms: O_22  and  C_23
REMARK                            x       y       z     vdW  Elec       q    Type
REMARK                         _______ _______ _______ _____ _____    ______ ____
ROOT
ATOM      1  C   UNL     1       1.916   8.456  18.204  0.00  0.00    +0.000 C 
ATOM      2  O   UNL     1       2.444   8.904  17.191  0.00  0.00    +0.000 OA
ATOM      3  N   UNL     1       2.124   7.162  18.677  0.00  0.00    +0.000 N 
ATOM      4  H   UNL     1       1.471   6.808  19.368  0.00  0.00    +0.000 HD
ENDROOT
BRANCH   1  10
ATOM      5  C   UNL     1      -0.817  10.753  18.884  0.00  0.00    +0.000 A 
ATOM      6  N   UNL     1      -0.976  10.761  20.219  0.00  0.00    +0.000 NA
ATOM      7  C   UNL     1      -0.129   9.990  20.927  0.00  0.00    +0.000 A 
ATOM      8  C   UNL     1       0.861   9.209  20.376  0.00  0.00    +0.000 A 
ATOM      9 CL   UNL     1       1.866   8.303  21.432  0.00  0.00    +0.000 Cl
ATOM     10  C   UNL     1       0.939   9.275  18.993  0.00  0.00    +0.000 A 
ATOM     11  N   UNL     1       0.122  10.060  18.230  0.00  0.00    +0.000 NA
BRANCH   5  12
ATOM     12  S   UNL     1      -2.003  11.632  17.905  0.00  0.00    +0.000 S 
BRANCH  12  13
ATOM     13  C   UNL     1      -2.367  10.363  16.651  0.00  0.00    +0.000 C 
BRANCH  13  15
ATOM     14  C   UNL     1      -3.466  10.012  14.405  0.00  0.00    +0.000 C 
ATOM     15  C   UNL     1      -3.010  11.032  15.437  0.00  0.00    +0.000 C 
ENDBRANCH  13  15
ENDBRANCH  12  13
ENDBRANCH   5  12
ENDBRANCH   1  10
BRANCH   3  16
ATOM     16  C   UNL     1       2.997   6.254  18.039  0.00  0.00    +0.000 A 
ATOM     17  C   UNL     1       4.259   6.703  17.628  0.00  0.00    +0.000 A 
ATOM     18  C   UNL     1       5.175   5.832  17.037  0.00  0.00    +0.000 A 
ATOM     19  C   UNL     1       4.839   4.499  16.821  0.00  0.00    +0.000 A 
ATOM     20  C   UNL     1       3.587   4.037  17.232  0.00  0.00    +0.000 A 
ATOM     21  C   UNL     1       2.666   4.904  17.851  0.00  0.00    +0.000 A 
BRANCH  19  22
ATOM     22  O   UNL     1       5.820   3.761  16.217  0.00  0.00    +0.000 OA
ATOM     23  C   UNL     1       6.144   4.090  14.874  0.00  0.00    +0.000 C 
ENDBRANCH  19  22
BRANCH  21  24
ATOM     24  O   UNL     1       1.495   4.299  18.233  0.00  0.00    +0.000 OA
ATOM     25  C   UNL     1       1.553   3.512  19.418  0.00  0.00    +0.000 C 
ENDBRANCH  21  24
ENDBRANCH   3  16
TORSDOF 7
ENDMDL
MODEL 9
REMARK VINA RESULT:      -6.3      2.537      4.105
REMARK  Name = 
REMARK  10 active torsions:
REMARK  status: ('A' for Active; 'I' for Inactive)
REMARK    1  A    between atoms: C_1  and  C_2
REMARK    2  A    between atoms: C_2  and  C_3
REMARK    3  A    between atoms: C_3  and  S_4
REMARK    4  A    between atoms: S_4  and  C_5
REMARK    5  A    between atoms: C_10  and  C_11
REMARK    6  A    between atoms: N_13  and  C_14
REMARK    7  A    between atoms: C_17  and  O_18
REMARK    8  A    between atoms: O_18  and  C_19
REMARK    9  A    between atoms: C_21  and  O_22
REMARK   10  A    between atoms: O_22  and  C_23
REMARK                            x       y       z     vdW  Elec       q    Type
REMARK                         _______ _______ _______ _____ _____    ______ ____
ROOT
ATOM      1  C   UNL     1       3.309   7.122  18.281  0.00  0.00    +0.000 C 
ATOM      2  O   UNL     1       3.328   7.766  17.236  0.00  0.00    +0.000 OA
ATOM      3  N   UNL     1       2.482   7.422  19.361  0.00  0.00    +0.000 N 
ATOM      4  H   UNL     1       2.705   6.993  20.252  0.00  0.00    +0.000 HD
ENDROOT
BRANCH   1  10
ATOM      5  C   UNL     1       4.460   3.833  19.316  0.00  0.00    +0.000 A 
ATOM      6  N   UNL     1       5.731   3.732  18.894  0.00  0.00    +0.000 NA
ATOM      7  C   UNL     1       6.238   4.805  18.257  0.00  0.00    +0.000 A 
ATOM      8  C   UNL     1       5.545   5.968  18.016  0.00  0.00    +0.000 A 
ATOM      9 CL   UNL     1       6.355   7.247  17.207  0.00  0.00    +0.000 Cl
ATOM     10  C   UNL     1       4.243   5.968  18.493  0.00  0.00    +0.000 A 
ATOM     11  N   UNL     1       3.689   4.917  19.167  0.00  0.00    +0.000 NA
BRANCH   5  12
ATOM     12  S   UNL     1       3.705   2.395  20.021  0.00  0.00    +0.000 S 
BRANCH  12  13
ATOM     13  C   UNL     1       2.095   2.445  19.172  0.00  0.00    +0.000 C 
BRANCH  13  15
ATOM     14  C   UNL     1       1.503   2.758  21.607  0.00  0.00    +0.000 C 
ATOM     15  C   UNL     1       1.019   2.873  20.170  0.00  0.00    +0.000 C 
ENDBRANCH  13  15
ENDBRANCH  12  13
ENDBRANCH   5  12
ENDBRANCH   1  10
BRANCH   3  16
ATOM     16  C   UNL     1       1.559   8.491  19.332  0.00  0.00    +0.000 A 
ATOM     17  C   UNL     1       1.127   8.981  18.093  0.00  0.00    +0.000 A 
ATOM     18  C   UNL     1       0.180  10.002  18.013  0.00  0.00    +0.000 A 
ATOM     19  C   UNL     1      -0.337  10.573  19.172  0.00  0.00    +0.000 A 
ATOM     20  C   UNL     1       0.078  10.089  20.413  0.00  0.00    +0.000 A 
ATOM     21  C   UNL     1       1.016   9.042  20.503  0.00  0.00    +0.000 A 
BRANCH  19  22
ATOM     22  O   UNL     1      -1.242  11.575  18.951  0.00  0.00    +0.000 OA
ATOM     23  C   UNL     1      -1.859  11.621  17.672  0.00  0.00    +0.000 C 
ENDBRANCH  19  22
BRANCH  21  24
ATOM     24  O   UNL     1       1.299   8.649  21.786  0.00  0.00    +0.000 OA
ATOM     25  C   UNL     1       0.576   9.313  22.819  0.00  0.00    +0.000 C 
ENDBRANCH  21  24
ENDBRANCH   3  16
TORSDOF 7
ENDMDL
