MODEL 1
REMARK VINA RESULT:      -9.6      0.000      0.000
REMARK  Name = 
REMARK  9 active torsions:
REMARK  status: ('A' for Active; 'I' for Inactive)
REMARK    1  A    between atoms: C_2  and  C_11
REMARK    2  A    between atoms: N_3  and  C_4
REMARK    3  A    between atoms: C_4  and  C_5
REMARK    4  A    between atoms: C_13  and  C_14
REMARK    5  A    between atoms: C_26  and  O_27
REMARK    6  A    between atoms: O_27  and  C_28
REMARK    7  A    between atoms: C_28  and  C_29
REMARK    8  A    between atoms: C_32  and  C_33
REMARK    9  A    between atoms: C_33  and  O_34
REMARK                            x       y       z     vdW  Elec       q    Type
REMARK                         _______ _______ _______ _____ _____    ______ ____
ROOT
ATOM      1  C   UNL     1       7.169   6.645  17.239  0.00  0.00    +0.000 C 
ATOM      2  C   UNL     1       5.841   6.550  17.438  0.00  0.00    +0.000 C 
ATOM      3  C   UNL     1       4.908   5.959  16.422  0.00  0.00    +0.000 C 
ATOM      4  C   UNL     1       5.712   5.215  15.358  0.00  0.00    +0.000 C 
ATOM      5  C   UNL     1       6.964   5.976  14.952  0.00  0.00    +0.000 C 
ATOM      6  O   UNL     1       7.809   6.217  16.088  0.00  0.00    +0.000 OA
ENDROOT
BRANCH   3   7
ATOM      7  C   UNL     1       3.823   5.078  17.007  0.00  0.00    +0.000 A 
ATOM      8  C   UNL     1       3.539   3.816  16.639  0.00  0.00    +0.000 A 
ATOM      9  O   UNL     1       2.439   3.084  17.015  0.00  0.00    +0.000 OA
ATOM     10  C   UNL     1       1.852   3.452  18.194  0.00  0.00    +0.000 A 
ATOM     11  C   UNL     1       1.060   2.505  18.830  0.00  0.00    +0.000 A 
ATOM     12  C   UNL     1       0.693   2.717  20.155  0.00  0.00    +0.000 A 
ATOM     13  C   UNL     1       1.091   3.886  20.814  0.00  0.00    +0.000 A 
ATOM     14  C   UNL     1       1.770   4.894  20.124  0.00  0.00    +0.000 A 
ATOM     15  C   UNL     1       2.133   4.674  18.799  0.00  0.00    +0.000 A 
ATOM     16  C   UNL     1       2.900   5.661  18.018  0.00  0.00    +0.000 A 
ATOM     17  O   UNL     1       2.799   6.865  18.208  0.00  0.00    +0.000 OA
ENDBRANCH   3   7
BRANCH   1  19
ATOM     18  O   UNL     1       8.432   6.687  19.281  0.00  0.00    +0.000 OA
ATOM     19  C   UNL     1       8.012   7.296  18.302  0.00  0.00    +0.000 C 
ATOM     20  N   UNL     1       8.207   8.635  18.079  0.00  0.00    +0.000 N 
ATOM     21  H   UNL     1       7.849   9.013  17.215  0.00  0.00    +0.000 HD
BRANCH  20  22
ATOM     22  C   UNL     1       8.921   9.485  19.005  0.00  0.00    +0.000 C 
BRANCH  22  23
ATOM     23  C   UNL     1       9.321  10.782  18.348  0.00  0.00    +0.000 A 
ATOM     24  C   UNL     1      10.672  11.088  18.124  0.00  0.00    +0.000 A 
ATOM     25  C   UNL     1      11.035  12.297  17.527  0.00  0.00    +0.000 A 
ATOM     26  C   UNL     1      10.054  13.213  17.153  0.00  0.00    +0.000 A 
ATOM     27  C   UNL     1       8.708  12.923  17.379  0.00  0.00    +0.000 A 
ATOM     28  C   UNL     1       8.345  11.716  17.979  0.00  0.00    +0.000 A 
ENDBRANCH  22  23
ENDBRANCH  20  22
ENDBRANCH   1  19
BRANCH   5  29
ATOM     29  O   UNL     1       7.712   5.195  14.008  0.00  0.00    +0.000 OA
BRANCH  29  30
ATOM     30  C   UNL     1       7.231   5.289  12.669  0.00  0.00    +0.000 C 
BRANCH  30  31
ATOM     31  C   UNL     1       6.840   3.920  12.182  0.00  0.00    +0.000 A 
ATOM     32  C   UNL     1       7.815   3.039  11.693  0.00  0.00    +0.000 A 
ATOM     33  C   UNL     1       7.461   1.760  11.256  0.00  0.00    +0.000 A 
ATOM     34  C   UNL     1       6.127   1.334  11.305  0.00  0.00    +0.000 A 
ATOM     35  C   UNL     1       5.154   2.224  11.782  0.00  0.00    +0.000 A 
ATOM     36  C   UNL     1       5.508   3.499  12.228  0.00  0.00    +0.000 A 
BRANCH  34  37
ATOM     37  C   UNL     1       5.754  -0.023  10.767  0.00  0.00    +0.000 C 
BRANCH  37  38
ATOM     38  O   UNL     1       6.154  -1.070  11.642  0.00  0.00    +0.000 OA
ATOM     39  H   UNL     1       6.309  -1.854  11.088  0.00  0.00    +0.000 HD
ENDBRANCH  37  38
ENDBRANCH  34  37
ENDBRANCH  30  31
ENDBRANCH  29  30
ENDBRANCH   5  29
TORSDOF 9
ENDMDL
MODEL 2
REMARK VINA RESULT:      -9.1      7.918     12.958
REMARK  Name = 
REMARK  9 active torsions:
REMARK  status: ('A' for Active; 'I' for Inactive)
REMARK    1  A    between atoms: C_2  and  C_11
REMARK    2  A    between atoms: N_3  and  C_4
REMARK    3  A    between atoms: C_4  and  C_5
REMARK    4  A    between atoms: C_13  and  C_14
REMARK    5  A    between atoms: C_26  and  O_27
REMARK    6  A    between atoms: O_27  and  C_28
REMARK    7  A    between atoms: C_28  and  C_29
REMARK    8  A    between atoms: C_32  and  C_33
REMARK    9  A    between atoms: C_33  and  O_34
REMARK                            x       y       z     vdW  Elec       q    Type
REMARK                         _______ _______ _______ _____ _____    ______ ____
ROOT
ATOM      1  C   UNL     1      -1.653  11.169  18.294  0.00  0.00    +0.000 C 
ATOM      2  C   UNL     1      -0.759  10.190  18.060  0.00  0.00    +0.000 C 
ATOM      3  C   UNL     1       0.683  10.294  18.462  0.00  0.00    +0.000 C 
ATOM      4  C   UNL     1       0.864  11.464  19.427  0.00  0.00    +0.000 C 
ATOM      5  C   UNL     1       0.057  12.682  19.006  0.00  0.00    +0.000 C 
ATOM      6  O   UNL     1      -1.341  12.366  18.917  0.00  0.00    +0.000 OA
ENDROOT
BRANCH   3   7
ATOM      7  C   UNL     1       1.268   9.018  19.030  0.00  0.00    +0.000 A 
ATOM      8  C   UNL     1       1.119   8.566  20.288  0.00  0.00    +0.000 A 
ATOM      9  O   UNL     1       1.805   7.525  20.868  0.00  0.00    +0.000 OA
ATOM     10  C   UNL     1       2.303   6.586  20.008  0.00  0.00    +0.000 A 
ATOM     11  C   UNL     1       2.587   5.333  20.534  0.00  0.00    +0.000 A 
ATOM     12  C   UNL     1       2.805   4.272  19.661  0.00  0.00    +0.000 A 
ATOM     13  C   UNL     1       2.771   4.483  18.278  0.00  0.00    +0.000 A 
ATOM     14  C   UNL     1       2.620   5.774  17.761  0.00  0.00    +0.000 A 
ATOM     15  C   UNL     1       2.404   6.829  18.641  0.00  0.00    +0.000 A 
ATOM     16  C   UNL     1       2.178   8.209  18.175  0.00  0.00    +0.000 A 
ATOM     17  O   UNL     1       2.686   8.643  17.150  0.00  0.00    +0.000 OA
ENDBRANCH   3   7
BRANCH   1  19
ATOM     18  O   UNL     1      -3.398  10.074  17.060  0.00  0.00    +0.000 OA
ATOM     19  C   UNL     1      -3.066  10.986  17.811  0.00  0.00    +0.000 C 
ATOM     20  N   UNL     1      -3.913  11.969  18.256  0.00  0.00    +0.000 N 
ATOM     21  H   UNL     1      -3.532  12.641  18.905  0.00  0.00    +0.000 HD
BRANCH  20  22
ATOM     22  C   UNL     1      -5.300  12.044  17.860  0.00  0.00    +0.000 C 
BRANCH  22  23
ATOM     23  C   UNL     1      -6.206  11.591  18.978  0.00  0.00    +0.000 A 
ATOM     24  C   UNL     1      -6.637  10.259  19.059  0.00  0.00    +0.000 A 
ATOM     25  C   UNL     1      -7.487   9.851  20.090  0.00  0.00    +0.000 A 
ATOM     26  C   UNL     1      -7.917  10.770  21.045  0.00  0.00    +0.000 A 
ATOM     27  C   UNL     1      -7.501  12.099  20.969  0.00  0.00    +0.000 A 
ATOM     28  C   UNL     1      -6.655  12.509  19.937  0.00  0.00    +0.000 A 
ENDBRANCH  22  23
ENDBRANCH  20  22
ENDBRANCH   1  19
BRANCH   5  29
ATOM     29  O   UNL     1       0.210  13.719  19.987  0.00  0.00    +0.000 OA
BRANCH  29  30
ATOM     30  C   UNL     1       0.591  13.244  21.276  0.00  0.00    +0.000 C 
BRANCH  30  31
ATOM     31  C   UNL     1      -0.636  13.073  22.128  0.00  0.00    +0.000 A 
ATOM     32  C   UNL     1      -1.386  14.191  22.521  0.00  0.00    +0.000 A 
ATOM     33  C   UNL     1      -2.537  14.037  23.297  0.00  0.00    +0.000 A 
ATOM     34  C   UNL     1      -2.965  12.763  23.692  0.00  0.00    +0.000 A 
ATOM     35  C   UNL     1      -2.204  11.649  23.309  0.00  0.00    +0.000 A 
ATOM     36  C   UNL     1      -1.059  11.801  22.525  0.00  0.00    +0.000 A 
BRANCH  34  37
ATOM     37  C   UNL     1      -4.170  12.621  24.585  0.00  0.00    +0.000 C 
BRANCH  37  38
ATOM     38  O   UNL     1      -5.185  13.563  24.263  0.00  0.00    +0.000 OA
ATOM     39  H   UNL     1      -5.295  14.134  25.042  0.00  0.00    +0.000 HD
ENDBRANCH  37  38
ENDBRANCH  34  37
ENDBRANCH  30  31
ENDBRANCH  29  30
ENDBRANCH   5  29
TORSDOF 9
ENDMDL
MODEL 3
REMARK VINA RESULT:      -9.0      7.809     12.665
REMARK  Name = 
REMARK  9 active torsions:
REMARK  status: ('A' for Active; 'I' for Inactive)
REMARK    1  A    between atoms: C_2  and  C_11
REMARK    2  A    between atoms: N_3  and  C_4
REMARK    3  A    between atoms: C_4  and  C_5
REMARK    4  A    between atoms: C_13  and  C_14
REMARK    5  A    between atoms: C_26  and  O_27
REMARK    6  A    between atoms: O_27  and  C_28
REMARK    7  A    between atoms: C_28  and  C_29
REMARK    8  A    between atoms: C_32  and  C_33
REMARK    9  A    between atoms: C_33  and  O_34
REMARK                            x       y       z     vdW  Elec       q    Type
REMARK                         _______ _______ _______ _____ _____    ______ ____
ROOT
ATOM      1  C   UNL     1      -1.335  10.874  18.018  0.00  0.00    +0.000 C 
ATOM      2  C   UNL     1      -0.442   9.881  17.850  0.00  0.00    +0.000 C 
ATOM      3  C   UNL     1       0.968   9.963  18.356  0.00  0.00    +0.000 C 
ATOM      4  C   UNL     1       1.096  11.132  19.332  0.00  0.00    +0.000 C 
ATOM      5  C   UNL     1       0.341  12.362  18.853  0.00  0.00    +0.000 C 
ATOM      6  O   UNL     1      -1.052  12.066  18.662  0.00  0.00    +0.000 OA
ENDROOT
BRANCH   3   7
ATOM      7  C   UNL     1       1.489   8.679  18.966  0.00  0.00    +0.000 A 
ATOM      8  C   UNL     1       1.292   8.260  20.229  0.00  0.00    +0.000 A 
ATOM      9  O   UNL     1       1.923   7.208  20.848  0.00  0.00    +0.000 OA
ATOM     10  C   UNL     1       2.407   6.232  20.022  0.00  0.00    +0.000 A 
ATOM     11  C   UNL     1       2.631   4.981  20.582  0.00  0.00    +0.000 A 
ATOM     12  C   UNL     1       2.831   3.894  19.737  0.00  0.00    +0.000 A 
ATOM     13  C   UNL     1       2.840   4.077  18.349  0.00  0.00    +0.000 A 
ATOM     14  C   UNL     1       2.752   5.360  17.801  0.00  0.00    +0.000 A 
ATOM     15  C   UNL     1       2.553   6.442  18.653  0.00  0.00    +0.000 A 
ATOM     16  C   UNL     1       2.391   7.819  18.153  0.00  0.00    +0.000 A 
ATOM     17  O   UNL     1       2.940   8.211  17.134  0.00  0.00    +0.000 OA
ENDBRANCH   3   7
BRANCH   1  19
ATOM     18  O   UNL     1      -3.074   9.688  16.860  0.00  0.00    +0.000 OA
ATOM     19  C   UNL     1      -2.712  10.712  17.432  0.00  0.00    +0.000 C 
ATOM     20  N   UNL     1      -3.482  11.839  17.564  0.00  0.00    +0.000 N 
ATOM     21  H   UNL     1      -3.090  12.603  18.093  0.00  0.00    +0.000 HD
BRANCH  20  22
ATOM     22  C   UNL     1      -4.813  11.945  17.010  0.00  0.00    +0.000 C 
BRANCH  22  23
ATOM     23  C   UNL     1      -5.853  11.954  18.103  0.00  0.00    +0.000 A 
ATOM     24  C   UNL     1      -6.219  10.769  18.757  0.00  0.00    +0.000 A 
ATOM     25  C   UNL     1      -7.192  10.784  19.759  0.00  0.00    +0.000 A 
ATOM     26  C   UNL     1      -7.811  11.982  20.113  0.00  0.00    +0.000 A 
ATOM     27  C   UNL     1      -7.460  13.165  19.464  0.00  0.00    +0.000 A 
ATOM     28  C   UNL     1      -6.490  13.150  18.460  0.00  0.00    +0.000 A 
ENDBRANCH  22  23
ENDBRANCH  20  22
ENDBRANCH   1  19
BRANCH   5  29
ATOM     29  O   UNL     1       0.438  13.397  19.842  0.00  0.00    +0.000 OA
BRANCH  29  30
ATOM     30  C   UNL     1       0.742  12.921  21.151  0.00  0.00    +0.000 C 
BRANCH  30  31
ATOM     31  C   UNL     1      -0.504  12.952  21.994  0.00  0.00    +0.000 A 
ATOM     32  C   UNL     1      -1.124  11.756  22.383  0.00  0.00    +0.000 A 
ATOM     33  C   UNL     1      -2.270  11.777  23.180  0.00  0.00    +0.000 A 
ATOM     34  C   UNL     1      -2.816  12.994  23.611  0.00  0.00    +0.000 A 
ATOM     35  C   UNL     1      -2.200  14.188  23.209  0.00  0.00    +0.000 A 
ATOM     36  C   UNL     1      -1.049  14.167  22.419  0.00  0.00    +0.000 A 
BRANCH  34  37
ATOM     37  C   UNL     1      -4.091  13.000  24.415  0.00  0.00    +0.000 C 
BRANCH  37  38
ATOM     38  O   UNL     1      -4.494  11.687  24.782  0.00  0.00    +0.000 OA
ATOM     39  H   UNL     1      -5.281  11.477  24.252  0.00  0.00    +0.000 HD
ENDBRANCH  37  38
ENDBRANCH  34  37
ENDBRANCH  30  31
ENDBRANCH  29  30
ENDBRANCH   5  29
TORSDOF 9
ENDMDL
MODEL 4
REMARK VINA RESULT:      -8.8      7.531     12.656
REMARK  Name = 
REMARK  9 active torsions:
REMARK  status: ('A' for Active; 'I' for Inactive)
REMARK    1  A    between atoms: C_2  and  C_11
REMARK    2  A    between atoms: N_3  and  C_4
REMARK    3  A    between atoms: C_4  and  C_5
REMARK    4  A    between atoms: C_13  and  C_14
REMARK    5  A    between atoms: C_26  and  O_27
REMARK    6  A    between atoms: O_27  and  C_28
REMARK    7  A    between atoms: C_28  and  C_29
REMARK    8  A    between atoms: C_32  and  C_33
REMARK    9  A    between atoms: C_33  and  O_34
REMARK                            x       y       z     vdW  Elec       q    Type
REMARK                         _______ _______ _______ _____ _____    ______ ____
ROOT
ATOM      1  C   UNL     1      -0.338   9.884  19.383  0.00  0.00    +0.000 C 
ATOM      2  C   UNL     1       0.603   8.970  19.080  0.00  0.00    +0.000 C 
ATOM      3  C   UNL     1       1.647   8.525  20.061  0.00  0.00    +0.000 C 
ATOM      4  C   UNL     1       1.264   8.990  21.465  0.00  0.00    +0.000 C 
ATOM      5  C   UNL     1       0.711  10.406  21.468  0.00  0.00    +0.000 C 
ATOM      6  O   UNL     1      -0.440  10.508  20.614  0.00  0.00    +0.000 OA
ENDROOT
BRANCH   3   7
ATOM      7  C   UNL     1       1.938   7.039  20.034  0.00  0.00    +0.000 A 
ATOM      8  C   UNL     1       1.645   6.153  21.003  0.00  0.00    +0.000 A 
ATOM      9  O   UNL     1       2.081   4.852  21.079  0.00  0.00    +0.000 OA
ATOM     10  C   UNL     1       2.420   4.266  19.891  0.00  0.00    +0.000 A 
ATOM     11  C   UNL     1       2.424   2.878  19.848  0.00  0.00    +0.000 A 
ATOM     12  C   UNL     1       2.465   2.245  18.609  0.00  0.00    +0.000 A 
ATOM     13  C   UNL     1       2.538   3.005  17.436  0.00  0.00    +0.000 A 
ATOM     14  C   UNL     1       2.673   4.395  17.497  0.00  0.00    +0.000 A 
ATOM     15  C   UNL     1       2.631   5.020  18.740  0.00  0.00    +0.000 A 
ATOM     16  C   UNL     1       2.708   6.484  18.888  0.00  0.00    +0.000 A 
ATOM     17  O   UNL     1       3.338   7.187  18.110  0.00  0.00    +0.000 OA
ENDBRANCH   3   7
BRANCH   1  19
ATOM     18  O   UNL     1      -1.242   9.888  17.157  0.00  0.00    +0.000 OA
ATOM     19  C   UNL     1      -1.313  10.295  18.313  0.00  0.00    +0.000 C 
ATOM     20  N   UNL     1      -2.240  11.203  18.759  0.00  0.00    +0.000 N 
ATOM     21  H   UNL     1      -2.225  11.428  19.742  0.00  0.00    +0.000 HD
BRANCH  20  22
ATOM     22  C   UNL     1      -3.230  11.799  17.891  0.00  0.00    +0.000 C 
BRANCH  22  23
ATOM     23  C   UNL     1      -4.594  11.777  18.533  0.00  0.00    +0.000 A 
ATOM     24  C   UNL     1      -4.824  12.425  19.756  0.00  0.00    +0.000 A 
ATOM     25  C   UNL     1      -6.087  12.388  20.351  0.00  0.00    +0.000 A 
ATOM     26  C   UNL     1      -7.130  11.701  19.733  0.00  0.00    +0.000 A 
ATOM     27  C   UNL     1      -6.911  11.046  18.521  0.00  0.00    +0.000 A 
ATOM     28  C   UNL     1      -5.648  11.079  17.927  0.00  0.00    +0.000 A 
ENDBRANCH  22  23
ENDBRANCH  20  22
ENDBRANCH   1  19
BRANCH   5  29
ATOM     29  O   UNL     1       0.302  10.756  22.798  0.00  0.00    +0.000 OA
BRANCH  29  30
ATOM     30  C   UNL     1      -1.089  10.572  23.044  0.00  0.00    +0.000 C 
BRANCH  30  31
ATOM     31  C   UNL     1      -1.744  11.913  23.235  0.00  0.00    +0.000 A 
ATOM     32  C   UNL     1      -3.085  11.995  23.634  0.00  0.00    +0.000 A 
ATOM     33  C   UNL     1      -3.694  13.236  23.830  0.00  0.00    +0.000 A 
ATOM     34  C   UNL     1      -2.973  14.422  23.636  0.00  0.00    +0.000 A 
ATOM     35  C   UNL     1      -1.636  14.336  23.223  0.00  0.00    +0.000 A 
ATOM     36  C   UNL     1      -1.024  13.095  23.036  0.00  0.00    +0.000 A 
BRANCH  34  37
ATOM     37  C   UNL     1      -3.664  15.752  23.786  0.00  0.00    +0.000 C 
BRANCH  37  38
ATOM     38  O   UNL     1      -4.694  15.709  24.767  0.00  0.00    +0.000 OA
ATOM     39  H   UNL     1      -5.351  16.378  24.512  0.00  0.00    +0.000 HD
ENDBRANCH  37  38
ENDBRANCH  34  37
ENDBRANCH  30  31
ENDBRANCH  29  30
ENDBRANCH   5  29
TORSDOF 9
ENDMDL
MODEL 5
REMARK VINA RESULT:      -8.7      7.595     11.874
REMARK  Name = 
REMARK  9 active torsions:
REMARK  status: ('A' for Active; 'I' for Inactive)
REMARK    1  A    between atoms: C_2  and  C_11
REMARK    2  A    between atoms: N_3  and  C_4
REMARK    3  A    between atoms: C_4  and  C_5
REMARK    4  A    between atoms: C_13  and  C_14
REMARK    5  A    between atoms: C_26  and  O_27
REMARK    6  A    between atoms: O_27  and  C_28
REMARK    7  A    between atoms: C_28  and  C_29
REMARK    8  A    between atoms: C_32  and  C_33
REMARK    9  A    between atoms: C_33  and  O_34
REMARK                            x       y       z     vdW  Elec       q    Type
REMARK                         _______ _______ _______ _____ _____    ______ ____
ROOT
ATOM      1  C   UNL     1      -1.421  10.670  18.040  0.00  0.00    +0.000 C 
ATOM      2  C   UNL     1      -1.001  11.786  18.664  0.00  0.00    +0.000 C 
ATOM      3  C   UNL     1       0.439  12.030  19.008  0.00  0.00    +0.000 C 
ATOM      4  C   UNL     1       1.322  11.030  18.264  0.00  0.00    +0.000 C 
ATOM      5  C   UNL     1       0.723   9.633  18.258  0.00  0.00    +0.000 C 
ATOM      6  O   UNL     1      -0.583   9.637  17.658  0.00  0.00    +0.000 OA
ENDROOT
BRANCH   3   7
ATOM      7  C   UNL     1       0.905  13.453  18.778  0.00  0.00    +0.000 A 
ATOM      8  C   UNL     1       2.099  13.828  18.284  0.00  0.00    +0.000 A 
ATOM      9  O   UNL     1       2.607  15.105  18.260  0.00  0.00    +0.000 OA
ATOM     10  C   UNL     1       1.686  16.115  18.282  0.00  0.00    +0.000 A 
ATOM     11  C   UNL     1       2.095  17.356  17.814  0.00  0.00    +0.000 A 
ATOM     12  C   UNL     1       1.131  18.320  17.537  0.00  0.00    +0.000 A 
ATOM     13  C   UNL     1      -0.223  18.045  17.764  0.00  0.00    +0.000 A 
ATOM     14  C   UNL     1      -0.611  16.843  18.365  0.00  0.00    +0.000 A 
ATOM     15  C   UNL     1       0.359  15.885  18.639  0.00  0.00    +0.000 A 
ATOM     16  C   UNL     1       0.027  14.571  19.217  0.00  0.00    +0.000 A 
ATOM     17  O   UNL     1      -0.915  14.413  19.981  0.00  0.00    +0.000 OA
ENDBRANCH   3   7
BRANCH   1  19
ATOM     18  O   UNL     1      -3.403   9.413  17.530  0.00  0.00    +0.000 OA
ATOM     19  C   UNL     1      -2.894  10.501  17.780  0.00  0.00    +0.000 C 
ATOM     20  N   UNL     1      -3.578  11.690  17.801  0.00  0.00    +0.000 N 
ATOM     21  H   UNL     1      -3.056  12.513  18.062  0.00  0.00    +0.000 HD
BRANCH  20  22
ATOM     22  C   UNL     1      -4.989  11.786  17.503  0.00  0.00    +0.000 C 
BRANCH  22  23
ATOM     23  C   UNL     1      -5.814  11.693  18.762  0.00  0.00    +0.000 A 
ATOM     24  C   UNL     1      -6.778  10.686  18.918  0.00  0.00    +0.000 A 
ATOM     25  C   UNL     1      -7.547  10.616  20.082  0.00  0.00    +0.000 A 
ATOM     26  C   UNL     1      -7.363  11.553  21.097  0.00  0.00    +0.000 A 
ATOM     27  C   UNL     1      -6.413  12.564  20.950  0.00  0.00    +0.000 A 
ATOM     28  C   UNL     1      -5.647  12.637  19.785  0.00  0.00    +0.000 A 
ENDBRANCH  22  23
ENDBRANCH  20  22
ENDBRANCH   1  19
BRANCH   5  29
ATOM     29  O   UNL     1       1.558   8.759  17.485  0.00  0.00    +0.000 OA
BRANCH  29  30
ATOM     30  C   UNL     1       2.730   8.323  18.168  0.00  0.00    +0.000 C 
BRANCH  30  31
ATOM     31  C   UNL     1       2.504   6.940  18.715  0.00  0.00    +0.000 A 
ATOM     32  C   UNL     1       2.635   5.820  17.882  0.00  0.00    +0.000 A 
ATOM     33  C   UNL     1       2.443   4.532  18.388  0.00  0.00    +0.000 A 
ATOM     34  C   UNL     1       2.123   4.337  19.738  0.00  0.00    +0.000 A 
ATOM     35  C   UNL     1       1.979   5.460  20.564  0.00  0.00    +0.000 A 
ATOM     36  C   UNL     1       2.179   6.748  20.062  0.00  0.00    +0.000 A 
BRANCH  34  37
ATOM     37  C   UNL     1       1.854   2.946  20.250  0.00  0.00    +0.000 C 
BRANCH  37  38
ATOM     38  O   UNL     1       0.645   2.879  20.996  0.00  0.00    +0.000 OA
ATOM     39  H   UNL     1       0.807   2.272  21.738  0.00  0.00    +0.000 HD
ENDBRANCH  37  38
ENDBRANCH  34  37
ENDBRANCH  30  31
ENDBRANCH  29  30
ENDBRANCH   5  29
TORSDOF 9
ENDMDL
MODEL 6
REMARK VINA RESULT:      -8.7      8.180     13.057
REMARK  Name = 
REMARK  9 active torsions:
REMARK  status: ('A' for Active; 'I' for Inactive)
REMARK    1  A    between atoms: C_2  and  C_11
REMARK    2  A    between atoms: N_3  and  C_4
REMARK    3  A    between atoms: C_4  and  C_5
REMARK    4  A    between atoms: C_13  and  C_14
REMARK    5  A    between atoms: C_26  and  O_27
REMARK    6  A    between atoms: O_27  and  C_28
REMARK    7  A    between atoms: C_28  and  C_29
REMARK    8  A    between atoms: C_32  and  C_33
REMARK    9  A    between atoms: C_33  and  O_34
REMARK                            x       y       z     vdW  Elec       q    Type
REMARK                         _______ _______ _______ _____ _____    ______ ____
ROOT
ATOM      1  C   UNL     1      -1.205  10.384  18.529  0.00  0.00    +0.000 C 
ATOM      2  C   UNL     1      -0.096   9.637  18.376  0.00  0.00    +0.000 C 
ATOM      3  C   UNL     1       0.995   9.583  19.404  0.00  0.00    +0.000 C 
ATOM      4  C   UNL     1       0.499  10.197  20.712  0.00  0.00    +0.000 C 
ATOM      5  C   UNL     1      -0.323  11.454  20.478  0.00  0.00    +0.000 C 
ATOM      6  O   UNL     1      -1.454  11.178  19.635  0.00  0.00    +0.000 OA
ENDROOT
BRANCH   3   7
ATOM      7  C   UNL     1       1.575   8.202  19.630  0.00  0.00    +0.000 A 
ATOM      8  C   UNL     1       1.367   7.419  20.704  0.00  0.00    +0.000 A 
ATOM      9  O   UNL     1       2.041   6.262  21.012  0.00  0.00    +0.000 OA
ATOM     10  C   UNL     1       2.605   5.600  19.958  0.00  0.00    +0.000 A 
ATOM     11  C   UNL     1       2.886   4.251  20.132  0.00  0.00    +0.000 A 
ATOM     12  C   UNL     1       3.174   3.475  19.014  0.00  0.00    +0.000 A 
ATOM     13  C   UNL     1       3.212   4.062  17.744  0.00  0.00    +0.000 A 
ATOM     14  C   UNL     1       3.063   5.444  17.596  0.00  0.00    +0.000 A 
ATOM     15  C   UNL     1       2.777   6.213  18.719  0.00  0.00    +0.000 A 
ATOM     16  C   UNL     1       2.548   7.667  18.641  0.00  0.00    +0.000 A 
ATOM     17  O   UNL     1       3.102   8.371  17.808  0.00  0.00    +0.000 OA
ENDBRANCH   3   7
BRANCH   1  19
ATOM     18  O   UNL     1      -2.095   9.741  16.393  0.00  0.00    +0.000 OA
ATOM     19  C   UNL     1      -2.220  10.404  17.418  0.00  0.00    +0.000 C 
ATOM     20  N   UNL     1      -3.253  11.274  17.657  0.00  0.00    +0.000 N 
ATOM     21  H   UNL     1      -3.268  11.731  18.556  0.00  0.00    +0.000 HD
BRANCH  20  22
ATOM     22  C   UNL     1      -4.306  11.519  16.698  0.00  0.00    +0.000 C 
BRANCH  22  23
ATOM     23  C   UNL     1      -5.544  12.044  17.379  0.00  0.00    +0.000 A 
ATOM     24  C   UNL     1      -6.033  11.442  18.548  0.00  0.00    +0.000 A 
ATOM     25  C   UNL     1      -7.188  11.927  19.164  0.00  0.00    +0.000 A 
ATOM     26  C   UNL     1      -7.868  13.014  18.617  0.00  0.00    +0.000 A 
ATOM     27  C   UNL     1      -7.396  13.615  17.451  0.00  0.00    +0.000 A 
ATOM     28  C   UNL     1      -6.244  13.128  16.831  0.00  0.00    +0.000 A 
ENDBRANCH  22  23
ENDBRANCH  20  22
ENDBRANCH   1  19
BRANCH   5  29
ATOM     29  O   UNL     1      -0.820  11.941  21.733  0.00  0.00    +0.000 OA
BRANCH  29  30
ATOM     30  C   UNL     1      -1.469  13.207  21.647  0.00  0.00    +0.000 C 
BRANCH  30  31
ATOM     31  C   UNL     1      -2.827  13.116  22.289  0.00  0.00    +0.000 A 
ATOM     32  C   UNL     1      -3.976  12.979  21.498  0.00  0.00    +0.000 A 
ATOM     33  C   UNL     1      -5.237  12.876  22.088  0.00  0.00    +0.000 A 
ATOM     34  C   UNL     1      -5.375  12.903  23.482  0.00  0.00    +0.000 A 
ATOM     35  C   UNL     1      -4.225  13.055  24.270  0.00  0.00    +0.000 A 
ATOM     36  C   UNL     1      -2.962  13.148  23.680  0.00  0.00    +0.000 A 
BRANCH  34  37
ATOM     37  C   UNL     1      -6.749  12.860  24.100  0.00  0.00    +0.000 C 
BRANCH  37  38
ATOM     38  O   UNL     1      -7.393  11.612  23.876  0.00  0.00    +0.000 OA
ATOM     39  H   UNL     1      -8.269  11.812  23.505  0.00  0.00    +0.000 HD
ENDBRANCH  37  38
ENDBRANCH  34  37
ENDBRANCH  30  31
ENDBRANCH  29  30
ENDBRANCH   5  29
TORSDOF 9
ENDMDL
MODEL 7
REMARK VINA RESULT:      -8.7      8.260     13.289
REMARK  Name = 
REMARK  9 active torsions:
REMARK  status: ('A' for Active; 'I' for Inactive)
REMARK    1  A    between atoms: C_2  and  C_11
REMARK    2  A    between atoms: N_3  and  C_4
REMARK    3  A    between atoms: C_4  and  C_5
REMARK    4  A    between atoms: C_13  and  C_14
REMARK    5  A    between atoms: C_26  and  O_27
REMARK    6  A    between atoms: O_27  and  C_28
REMARK    7  A    between atoms: C_28  and  C_29
REMARK    8  A    between atoms: C_32  and  C_33
REMARK    9  A    between atoms: C_33  and  O_34
REMARK                            x       y       z     vdW  Elec       q    Type
REMARK                         _______ _______ _______ _____ _____    ______ ____
ROOT
ATOM      1  C   UNL     1      -1.148  10.809  19.187  0.00  0.00    +0.000 C 
ATOM      2  C   UNL     1      -0.056  10.040  19.017  0.00  0.00    +0.000 C 
ATOM      3  C   UNL     1       0.882   9.703  20.138  0.00  0.00    +0.000 C 
ATOM      4  C   UNL     1       0.235  10.062  21.475  0.00  0.00    +0.000 C 
ATOM      5  C   UNL     1      -0.501  11.390  21.415  0.00  0.00    +0.000 C 
ATOM      6  O   UNL     1      -1.516  11.369  20.398  0.00  0.00    +0.000 OA
ENDROOT
BRANCH   3   7
ATOM      7  C   UNL     1       1.375   8.271  20.133  0.00  0.00    +0.000 A 
ATOM      8  C   UNL     1       1.191   7.363  21.108  0.00  0.00    +0.000 A 
ATOM      9  O   UNL     1       1.800   6.135  21.205  0.00  0.00    +0.000 OA
ATOM     10  C   UNL     1       2.234   5.589  20.030  0.00  0.00    +0.000 A 
ATOM     11  C   UNL     1       2.429   4.214  20.003  0.00  0.00    +0.000 A 
ATOM     12  C   UNL     1       2.576   3.581  18.773  0.00  0.00    +0.000 A 
ATOM     13  C   UNL     1       2.562   4.332  17.591  0.00  0.00    +0.000 A 
ATOM     14  C   UNL     1       2.503   5.728  17.638  0.00  0.00    +0.000 A 
ATOM     15  C   UNL     1       2.358   6.353  18.872  0.00  0.00    +0.000 A 
ATOM     16  C   UNL     1       2.230   7.816  19.004  0.00  0.00    +0.000 A 
ATOM     17  O   UNL     1       2.771   8.590  18.227  0.00  0.00    +0.000 OA
ENDBRANCH   3   7
BRANCH   1  19
ATOM     18  O   UNL     1      -1.645  11.901  17.107  0.00  0.00    +0.000 OA
ATOM     19  C   UNL     1      -2.000  11.125  17.988  0.00  0.00    +0.000 C 
ATOM     20  N   UNL     1      -3.220  10.498  18.022  0.00  0.00    +0.000 N 
ATOM     21  H   UNL     1      -3.380   9.849  18.777  0.00  0.00    +0.000 HD
BRANCH  20  22
ATOM     22  C   UNL     1      -4.236  10.711  17.016  0.00  0.00    +0.000 C 
BRANCH  22  23
ATOM     23  C   UNL     1      -5.433  11.417  17.601  0.00  0.00    +0.000 A 
ATOM     24  C   UNL     1      -5.875  12.640  17.074  0.00  0.00    +0.000 A 
ATOM     25  C   UNL     1      -6.977  13.294  17.630  0.00  0.00    +0.000 A 
ATOM     26  C   UNL     1      -7.644  12.736  18.719  0.00  0.00    +0.000 A 
ATOM     27  C   UNL     1      -7.208  11.524  19.256  0.00  0.00    +0.000 A 
ATOM     28  C   UNL     1      -6.105  10.872  18.703  0.00  0.00    +0.000 A 
ENDBRANCH  22  23
ENDBRANCH  20  22
ENDBRANCH   1  19
BRANCH   5  29
ATOM     29  O   UNL     1      -1.146  11.636  22.673  0.00  0.00    +0.000 OA
BRANCH  29  30
ATOM     30  C   UNL     1      -1.662  12.957  22.811  0.00  0.00    +0.000 C 
BRANCH  30  31
ATOM     31  C   UNL     1      -3.150  12.893  23.028  0.00  0.00    +0.000 A 
ATOM     32  C   UNL     1      -3.668  12.659  24.309  0.00  0.00    +0.000 A 
ATOM     33  C   UNL     1      -5.048  12.615  24.520  0.00  0.00    +0.000 A 
ATOM     34  C   UNL     1      -5.938  12.810  23.455  0.00  0.00    +0.000 A 
ATOM     35  C   UNL     1      -5.415  13.030  22.173  0.00  0.00    +0.000 A 
ATOM     36  C   UNL     1      -4.035  13.083  21.963  0.00  0.00    +0.000 A 
BRANCH  34  37
ATOM     37  C   UNL     1      -7.422  12.692  23.688  0.00  0.00    +0.000 C 
BRANCH  37  38
ATOM     38  O   UNL     1      -7.847  13.460  24.808  0.00  0.00    +0.000 OA
ATOM     39  H   UNL     1      -7.171  14.144  24.951  0.00  0.00    +0.000 HD
ENDBRANCH  37  38
ENDBRANCH  34  37
ENDBRANCH  30  31
ENDBRANCH  29  30
ENDBRANCH   5  29
TORSDOF 9
ENDMDL
MODEL 8
REMARK VINA RESULT:      -8.7      7.472     11.434
REMARK  Name = 
REMARK  9 active torsions:
REMARK  status: ('A' for Active; 'I' for Inactive)
REMARK    1  A    between atoms: C_2  and  C_11
REMARK    2  A    between atoms: N_3  and  C_4
REMARK    3  A    between atoms: C_4  and  C_5
REMARK    4  A    between atoms: C_13  and  C_14
REMARK    5  A    between atoms: C_26  and  O_27
REMARK    6  A    between atoms: O_27  and  C_28
REMARK    7  A    between atoms: C_28  and  C_29
REMARK    8  A    between atoms: C_32  and  C_33
REMARK    9  A    between atoms: C_33  and  O_34
REMARK                            x       y       z     vdW  Elec       q    Type
REMARK                         _______ _______ _______ _____ _____    ______ ____
ROOT
ATOM      1  C   UNL     1      -1.196  10.690  18.103  0.00  0.00    +0.000 C 
ATOM      2  C   UNL     1      -0.835  11.858  18.665  0.00  0.00    +0.000 C 
ATOM      3  C   UNL     1       0.577  12.160  19.072  0.00  0.00    +0.000 C 
ATOM      4  C   UNL     1       1.521  11.129  18.457  0.00  0.00    +0.000 C 
ATOM      5  C   UNL     1       0.950   9.721  18.521  0.00  0.00    +0.000 C 
ATOM      6  O   UNL     1      -0.317   9.651  17.848  0.00  0.00    +0.000 OA
ENDROOT
BRANCH   3   7
ATOM      7  C   UNL     1       1.029  13.572  18.763  0.00  0.00    +0.000 A 
ATOM      8  C   UNL     1       2.208  13.930  18.223  0.00  0.00    +0.000 A 
ATOM      9  O   UNL     1       2.708  15.206  18.126  0.00  0.00    +0.000 OA
ATOM     10  C   UNL     1       1.782  16.211  18.123  0.00  0.00    +0.000 A 
ATOM     11  C   UNL     1       2.172  17.431  17.586  0.00  0.00    +0.000 A 
ATOM     12  C   UNL     1       1.196  18.376  17.287  0.00  0.00    +0.000 A 
ATOM     13  C   UNL     1      -0.150  18.105  17.560  0.00  0.00    +0.000 A 
ATOM     14  C   UNL     1      -0.517  16.931  18.226  0.00  0.00    +0.000 A 
ATOM     15  C   UNL     1       0.466  15.992  18.523  0.00  0.00    +0.000 A 
ATOM     16  C   UNL     1       0.156  14.705  19.170  0.00  0.00    +0.000 A 
ATOM     17  O   UNL     1      -0.767  14.580  19.964  0.00  0.00    +0.000 OA
ENDBRANCH   3   7
BRANCH   1  19
ATOM     18  O   UNL     1      -3.115   9.355  17.549  0.00  0.00    +0.000 OA
ATOM     19  C   UNL     1      -2.648  10.468  17.772  0.00  0.00    +0.000 C 
ATOM     20  N   UNL     1      -3.361  11.637  17.698  0.00  0.00    +0.000 N 
ATOM     21  H   UNL     1      -2.876  12.486  17.946  0.00  0.00    +0.000 HD
BRANCH  20  22
ATOM     22  C   UNL     1      -4.756  11.679  17.320  0.00  0.00    +0.000 C 
BRANCH  22  23
ATOM     23  C   UNL     1      -5.647  11.595  18.534  0.00  0.00    +0.000 A 
ATOM     24  C   UNL     1      -5.685  12.638  19.471  0.00  0.00    +0.000 A 
ATOM     25  C   UNL     1      -6.503  12.547  20.599  0.00  0.00    +0.000 A 
ATOM     26  C   UNL     1      -7.286  11.412  20.804  0.00  0.00    +0.000 A 
ATOM     27  C   UNL     1      -7.249  10.365  19.883  0.00  0.00    +0.000 A 
ATOM     28  C   UNL     1      -6.429  10.454  18.757  0.00  0.00    +0.000 A 
ENDBRANCH  22  23
ENDBRANCH  20  22
ENDBRANCH   1  19
BRANCH   5  29
ATOM     29  O   UNL     1       1.846   8.812  17.864  0.00  0.00    +0.000 OA
BRANCH  29  30
ATOM     30  C   UNL     1       2.185   7.668  18.644  0.00  0.00    +0.000 C 
BRANCH  30  31
ATOM     31  C   UNL     1       3.224   6.859  17.918  0.00  0.00    +0.000 A 
ATOM     32  C   UNL     1       3.152   5.459  17.911  0.00  0.00    +0.000 A 
ATOM     33  C   UNL     1       4.103   4.702  17.224  0.00  0.00    +0.000 A 
ATOM     34  C   UNL     1       5.143   5.329  16.525  0.00  0.00    +0.000 A 
ATOM     35  C   UNL     1       5.219   6.729  16.546  0.00  0.00    +0.000 A 
ATOM     36  C   UNL     1       4.263   7.487  17.225  0.00  0.00    +0.000 A 
BRANCH  34  37
ATOM     37  C   UNL     1       6.199   4.495  15.846  0.00  0.00    +0.000 C 
BRANCH  37  38
ATOM     38  O   UNL     1       7.238   5.297  15.299  0.00  0.00    +0.000 OA
ATOM     39  H   UNL     1       7.105   5.308  14.336  0.00  0.00    +0.000 HD
ENDBRANCH  37  38
ENDBRANCH  34  37
ENDBRANCH  30  31
ENDBRANCH  29  30
ENDBRANCH   5  29
TORSDOF 9
ENDMDL
MODEL 9
REMARK VINA RESULT:      -8.7      7.976     12.931
REMARK  Name = 
REMARK  9 active torsions:
REMARK  status: ('A' for Active; 'I' for Inactive)
REMARK    1  A    between atoms: C_2  and  C_11
REMARK    2  A    between atoms: N_3  and  C_4
REMARK    3  A    between atoms: C_4  and  C_5
REMARK    4  A    between atoms: C_13  and  C_14
REMARK    5  A    between atoms: C_26  and  O_27
REMARK    6  A    between atoms: O_27  and  C_28
REMARK    7  A    between atoms: C_28  and  C_29
REMARK    8  A    between atoms: C_32  and  C_33
REMARK    9  A    between atoms: C_33  and  O_34
REMARK                            x       y       z     vdW  Elec       q    Type
REMARK                         _______ _______ _______ _____ _____    ______ ____
ROOT
ATOM      1  C   UNL     1      -1.364  11.134  17.953  0.00  0.00    +0.000 C 
ATOM      2  C   UNL     1      -0.464  10.141  17.826  0.00  0.00    +0.000 C 
ATOM      3  C   UNL     1       0.906  10.205  18.435  0.00  0.00    +0.000 C 
ATOM      4  C   UNL     1       0.966  11.349  19.447  0.00  0.00    +0.000 C 
ATOM      5  C   UNL     1       0.251  12.593  18.945  0.00  0.00    +0.000 C 
ATOM      6  O   UNL     1      -1.125  12.309  18.646  0.00  0.00    +0.000 OA
ENDROOT
BRANCH   3   7
ATOM      7  C   UNL     1       1.379   8.903  19.049  0.00  0.00    +0.000 A 
ATOM      8  C   UNL     1       1.166   8.497  20.314  0.00  0.00    +0.000 A 
ATOM      9  O   UNL     1       1.756   7.423  20.936  0.00  0.00    +0.000 OA
ATOM     10  C   UNL     1       2.203   6.427  20.113  0.00  0.00    +0.000 A 
ATOM     11  C   UNL     1       2.379   5.170  20.676  0.00  0.00    +0.000 A 
ATOM     12  C   UNL     1       2.537   4.074  19.835  0.00  0.00    +0.000 A 
ATOM     13  C   UNL     1       2.553   4.251  18.447  0.00  0.00    +0.000 A 
ATOM     14  C   UNL     1       2.513   5.535  17.895  0.00  0.00    +0.000 A 
ATOM     15  C   UNL     1       2.356   6.627  18.743  0.00  0.00    +0.000 A 
ATOM     16  C   UNL     1       2.246   8.007  18.239  0.00  0.00    +0.000 A 
ATOM     17  O   UNL     1       2.810   8.376  17.218  0.00  0.00    +0.000 OA
ENDBRANCH   3   7
BRANCH   1  19
ATOM     18  O   UNL     1      -2.801  10.804  16.057  0.00  0.00    +0.000 OA
ATOM     19  C   UNL     1      -2.695  10.992  17.265  0.00  0.00    +0.000 C 
ATOM     20  N   UNL     1      -3.755  11.148  18.120  0.00  0.00    +0.000 N 
ATOM     21  H   UNL     1      -3.541  11.255  19.100  0.00  0.00    +0.000 HD
BRANCH  20  22
ATOM     22  C   UNL     1      -5.130  11.130  17.673  0.00  0.00    +0.000 C 
BRANCH  22  23
ATOM     23  C   UNL     1      -6.078  11.133  18.845  0.00  0.00    +0.000 A 
ATOM     24  C   UNL     1      -6.245  12.282  19.633  0.00  0.00    +0.000 A 
ATOM     25  C   UNL     1      -7.116  12.272  20.725  0.00  0.00    +0.000 A 
ATOM     26  C   UNL     1      -7.824  11.114  21.043  0.00  0.00    +0.000 A 
ATOM     27  C   UNL     1      -7.659   9.963  20.272  0.00  0.00    +0.000 A 
ATOM     28  C   UNL     1      -6.786   9.971  19.183  0.00  0.00    +0.000 A 
ENDBRANCH  22  23
ENDBRANCH  20  22
ENDBRANCH   1  19
BRANCH   5  29
ATOM     29  O   UNL     1       0.278  13.603  19.964  0.00  0.00    +0.000 OA
BRANCH  29  30
ATOM     30  C   UNL     1      -0.900  14.404  20.017  0.00  0.00    +0.000 C 
BRANCH  30  31
ATOM     31  C   UNL     1      -1.701  14.035  21.236  0.00  0.00    +0.000 A 
ATOM     32  C   UNL     1      -1.076  13.924  22.486  0.00  0.00    +0.000 A 
ATOM     33  C   UNL     1      -1.817  13.599  23.624  0.00  0.00    +0.000 A 
ATOM     34  C   UNL     1      -3.199  13.384  23.537  0.00  0.00    +0.000 A 
ATOM     35  C   UNL     1      -3.817  13.482  22.283  0.00  0.00    +0.000 A 
ATOM     36  C   UNL     1      -3.079  13.816  21.146  0.00  0.00    +0.000 A 
BRANCH  34  37
ATOM     37  C   UNL     1      -3.970  12.967  24.762  0.00  0.00    +0.000 C 
BRANCH  37  38
ATOM     38  O   UNL     1      -4.644  11.729  24.571  0.00  0.00    +0.000 OA
ATOM     39  H   UNL     1      -5.450  11.763  25.114  0.00  0.00    +0.000 HD
ENDBRANCH  37  38
ENDBRANCH  34  37
ENDBRANCH  30  31
ENDBRANCH  29  30
ENDBRANCH   5  29
TORSDOF 9
ENDMDL
