MODEL 1
REMARK VINA RESULT:      -7.4      0.000      0.000
REMARK  Name = 
REMARK  9 active torsions:
REMARK  status: ('A' for Active; 'I' for Inactive)
REMARK    1  A    between atoms: C_1  and  C_2
REMARK    2  A    between atoms: C_2  and  C_3
REMARK    3  A    between atoms: C_3  and  C_4
REMARK    4  A    between atoms: C_4  and  N_5
REMARK    5  A    between atoms: C_8  and  O_9
REMARK    6  A    between atoms: O_9  and  C_10
REMARK    7  A    between atoms: C_13  and  O_14
REMARK    8  A    between atoms: N_19  and  C_20
REMARK    9  A    between atoms: N_19  and  C_21
REMARK                            x       y       z     vdW  Elec       q    Type
REMARK                         _______ _______ _______ _____ _____    ______ ____
ROOT
ATOM      1  N   UNL     1       7.465   6.808  16.879  0.00  0.00    +0.000 N 
ATOM      2  C   UNL     1       6.874   5.696  16.292  0.00  0.00    +0.000 A 
ATOM      3  N   UNL     1       6.070   4.920  16.997  0.00  0.00    +0.000 NA
ATOM      4  C   UNL     1       5.532   3.933  16.296  0.00  0.00    +0.000 A 
ATOM      5  N   UNL     1       5.825   3.618  15.041  0.00  0.00    +0.000 NA
ATOM      6  C   UNL     1       6.606   4.465  14.397  0.00  0.00    +0.000 A 
ATOM      7  N   UNL     1       6.887   4.216  13.069  0.00  0.00    +0.000 N 
ATOM      8  C   UNL     1       7.652   5.168  12.289  0.00  0.00    +0.000 C 
ATOM      9  C   UNL     1       6.061   3.270  12.335  0.00  0.00    +0.000 C 
ATOM     10  N   UNL     1       7.164   5.511  15.008  0.00  0.00    +0.000 NA
ATOM     11  H   UNL     1       8.215   7.103  16.265  0.00  0.00    +0.000 HD
ENDROOT
BRANCH   1  12
ATOM     12  C   UNL     1       7.796   6.692  18.286  0.00  0.00    +0.000 C 
BRANCH  12  13
ATOM     13  C   UNL     1       8.520   7.957  18.758  0.00  0.00    +0.000 C 
BRANCH  13  15
ATOM     14  C   UNL     1       8.978  10.402  18.319  0.00  0.00    +0.000 C 
ATOM     15  C   UNL     1       8.162   9.185  17.915  0.00  0.00    +0.000 C 
ENDBRANCH  13  15
ENDBRANCH  12  13
ENDBRANCH   1  12
BRANCH   4  16
ATOM     16  O   UNL     1       4.679   3.099  16.998  0.00  0.00    +0.000 OA
BRANCH  16  17
ATOM     17  C   UNL     1       3.872   3.734  17.924  0.00  0.00    +0.000 A 
ATOM     18  C   UNL     1       2.727   4.355  17.458  0.00  0.00    +0.000 A 
ATOM     19  C   UNL     1       1.891   4.976  18.382  0.00  0.00    +0.000 A 
ATOM     20  C   UNL     1       2.250   4.932  19.716  0.00  0.00    +0.000 A 
ATOM     21  N   UNL     1       3.353   4.299  20.149  0.00  0.00    +0.000 NA
ATOM     22  N   UNL     1       4.165   3.674  19.244  0.00  0.00    +0.000 NA
BRANCH  20  23
ATOM     23  O   UNL     1       1.495   5.533  20.679  0.00  0.00    +0.000 OA
ATOM     24  H   UNL     1       1.616   5.048  21.507  0.00  0.00    +0.000 HD
ENDBRANCH  20  23
ENDBRANCH  16  17
ENDBRANCH   4  16
TORSDOF 6
ENDMDL
MODEL 2
REMARK VINA RESULT:      -7.2      1.733      2.270
REMARK  Name = 
REMARK  9 active torsions:
REMARK  status: ('A' for Active; 'I' for Inactive)
REMARK    1  A    between atoms: C_1  and  C_2
REMARK    2  A    between atoms: C_2  and  C_3
REMARK    3  A    between atoms: C_3  and  C_4
REMARK    4  A    between atoms: C_4  and  N_5
REMARK    5  A    between atoms: C_8  and  O_9
REMARK    6  A    between atoms: O_9  and  C_10
REMARK    7  A    between atoms: C_13  and  O_14
REMARK    8  A    between atoms: N_19  and  C_20
REMARK    9  A    between atoms: N_19  and  C_21
REMARK                            x       y       z     vdW  Elec       q    Type
REMARK                         _______ _______ _______ _____ _____    ______ ____
ROOT
ATOM      1  N   UNL     1       7.905   8.237  17.369  0.00  0.00    +0.000 N 
ATOM      2  C   UNL     1       7.366   6.957  17.351  0.00  0.00    +0.000 A 
ATOM      3  N   UNL     1       6.884   6.423  18.458  0.00  0.00    +0.000 NA
ATOM      4  C   UNL     1       6.349   5.224  18.283  0.00  0.00    +0.000 A 
ATOM      5  N   UNL     1       6.374   4.515  17.162  0.00  0.00    +0.000 NA
ATOM      6  C   UNL     1       6.839   5.135  16.093  0.00  0.00    +0.000 A 
ATOM      7  N   UNL     1       6.825   4.462  14.889  0.00  0.00    +0.000 N 
ATOM      8  C   UNL     1       7.226   5.133  13.668  0.00  0.00    +0.000 C 
ATOM      9  C   UNL     1       6.001   3.272  14.751  0.00  0.00    +0.000 C 
ATOM     10  N   UNL     1       7.362   6.360  16.163  0.00  0.00    +0.000 NA
ATOM     11  H   UNL     1       8.432   8.349  16.510  0.00  0.00    +0.000 HD
ENDROOT
BRANCH   1  12
ATOM     12  C   UNL     1       8.580   8.633  18.590  0.00  0.00    +0.000 C 
BRANCH  12  13
ATOM     13  C   UNL     1       8.984  10.110  18.508  0.00  0.00    +0.000 C 
BRANCH  13  15
ATOM     14  C   UNL     1      10.667  11.540  19.734  0.00  0.00    +0.000 C 
ATOM     15  C   UNL     1       9.425  10.671  19.863  0.00  0.00    +0.000 C 
ENDBRANCH  13  15
ENDBRANCH  12  13
ENDBRANCH   1  12
BRANCH   4  16
ATOM     16  O   UNL     1       5.827   4.631  19.420  0.00  0.00    +0.000 OA
BRANCH  16  17
ATOM     17  C   UNL     1       4.545   4.131  19.283  0.00  0.00    +0.000 A 
ATOM     18  C   UNL     1       4.367   2.770  19.454  0.00  0.00    +0.000 A 
ATOM     19  C   UNL     1       3.077   2.255  19.344  0.00  0.00    +0.000 A 
ATOM     20  C   UNL     1       2.047   3.135  19.075  0.00  0.00    +0.000 A 
ATOM     21  N   UNL     1       2.240   4.458  18.940  0.00  0.00    +0.000 NA
ATOM     22  N   UNL     1       3.503   4.966  19.064  0.00  0.00    +0.000 NA
BRANCH  20  23
ATOM     23  O   UNL     1       0.760   2.707  18.933  0.00  0.00    +0.000 OA
ATOM     24  H   UNL     1       0.668   2.305  18.058  0.00  0.00    +0.000 HD
ENDBRANCH  20  23
ENDBRANCH  16  17
ENDBRANCH   4  16
TORSDOF 6
ENDMDL
MODEL 3
REMARK VINA RESULT:      -7.2      1.685      2.101
REMARK  Name = 
REMARK  9 active torsions:
REMARK  status: ('A' for Active; 'I' for Inactive)
REMARK    1  A    between atoms: C_1  and  C_2
REMARK    2  A    between atoms: C_2  and  C_3
REMARK    3  A    between atoms: C_3  and  C_4
REMARK    4  A    between atoms: C_4  and  N_5
REMARK    5  A    between atoms: C_8  and  O_9
REMARK    6  A    between atoms: O_9  and  C_10
REMARK    7  A    between atoms: C_13  and  O_14
REMARK    8  A    between atoms: N_19  and  C_20
REMARK    9  A    between atoms: N_19  and  C_21
REMARK                            x       y       z     vdW  Elec       q    Type
REMARK                         _______ _______ _______ _____ _____    ______ ____
ROOT
ATOM      1  N   UNL     1       7.881   8.179  17.371  0.00  0.00    +0.000 N 
ATOM      2  C   UNL     1       7.330   6.905  17.313  0.00  0.00    +0.000 A 
ATOM      3  N   UNL     1       6.799   6.360  18.392  0.00  0.00    +0.000 NA
ATOM      4  C   UNL     1       6.258   5.170  18.178  0.00  0.00    +0.000 A 
ATOM      5  N   UNL     1       6.321   4.477  17.048  0.00  0.00    +0.000 NA
ATOM      6  C   UNL     1       6.834   5.108  16.008  0.00  0.00    +0.000 A 
ATOM      7  N   UNL     1       6.860   4.454  14.793  0.00  0.00    +0.000 N 
ATOM      8  C   UNL     1       7.315   5.138  13.600  0.00  0.00    +0.000 C 
ATOM      9  C   UNL     1       6.029   3.275  14.606  0.00  0.00    +0.000 C 
ATOM     10  N   UNL     1       7.366   6.326  16.117  0.00  0.00    +0.000 NA
ATOM     11  H   UNL     1       8.442   8.297  16.536  0.00  0.00    +0.000 HD
ENDROOT
BRANCH   1  12
ATOM     12  C   UNL     1       8.512   8.549  18.624  0.00  0.00    +0.000 C 
BRANCH  12  13
ATOM     13  C   UNL     1       8.774  10.059  18.650  0.00  0.00    +0.000 C 
BRANCH  13  15
ATOM     14  C   UNL     1       9.297  11.538  20.630  0.00  0.00    +0.000 C 
ATOM     15  C   UNL     1       9.818  10.454  19.699  0.00  0.00    +0.000 C 
ENDBRANCH  13  15
ENDBRANCH  12  13
ENDBRANCH   1  12
BRANCH   4  16
ATOM     16  O   UNL     1       5.686   4.566  19.285  0.00  0.00    +0.000 OA
BRANCH  16  17
ATOM     17  C   UNL     1       4.417   4.056  19.081  0.00  0.00    +0.000 A 
ATOM     18  C   UNL     1       3.424   4.942  18.702  0.00  0.00    +0.000 A 
ATOM     19  C   UNL     1       2.146   4.440  18.468  0.00  0.00    +0.000 A 
ATOM     20  C   UNL     1       1.944   3.082  18.622  0.00  0.00    +0.000 A 
ATOM     21  N   UNL     1       2.931   2.236  18.964  0.00  0.00    +0.000 NA
ATOM     22  N   UNL     1       4.189   2.726  19.178  0.00  0.00    +0.000 NA
BRANCH  20  23
ATOM     23  O   UNL     1       0.718   2.516  18.431  0.00  0.00    +0.000 OA
ATOM     24  H   UNL     1       0.255   3.017  17.747  0.00  0.00    +0.000 HD
ENDBRANCH  20  23
ENDBRANCH  16  17
ENDBRANCH   4  16
TORSDOF 6
ENDMDL
MODEL 4
REMARK VINA RESULT:      -7.1      2.890      6.303
REMARK  Name = 
REMARK  9 active torsions:
REMARK  status: ('A' for Active; 'I' for Inactive)
REMARK    1  A    between atoms: C_1  and  C_2
REMARK    2  A    between atoms: C_2  and  C_3
REMARK    3  A    between atoms: C_3  and  C_4
REMARK    4  A    between atoms: C_4  and  N_5
REMARK    5  A    between atoms: C_8  and  O_9
REMARK    6  A    between atoms: O_9  and  C_10
REMARK    7  A    between atoms: C_13  and  O_14
REMARK    8  A    between atoms: N_19  and  C_20
REMARK    9  A    between atoms: N_19  and  C_21
REMARK                            x       y       z     vdW  Elec       q    Type
REMARK                         _______ _______ _______ _____ _____    ______ ____
ROOT
ATOM      1  N   UNL     1       2.496   7.020  18.922  0.00  0.00    +0.000 N 
ATOM      2  C   UNL     1       3.433   5.996  18.960  0.00  0.00    +0.000 A 
ATOM      3  N   UNL     1       4.620   6.159  18.403  0.00  0.00    +0.000 NA
ATOM      4  C   UNL     1       5.432   5.126  18.566  0.00  0.00    +0.000 A 
ATOM      5  N   UNL     1       5.111   3.960  19.112  0.00  0.00    +0.000 NA
ATOM      6  C   UNL     1       3.921   3.892  19.679  0.00  0.00    +0.000 A 
ATOM      7  N   UNL     1       3.566   2.722  20.318  0.00  0.00    +0.000 N 
ATOM      8  C   UNL     1       2.315   2.633  21.044  0.00  0.00    +0.000 C 
ATOM      9  C   UNL     1       4.600   1.758  20.657  0.00  0.00    +0.000 C 
ATOM     10  N   UNL     1       3.048   4.897  19.602  0.00  0.00    +0.000 NA
ATOM     11  H   UNL     1       1.601   6.612  19.168  0.00  0.00    +0.000 HD
ENDROOT
BRANCH   1  12
ATOM     12  C   UNL     1       2.513   7.863  17.742  0.00  0.00    +0.000 C 
BRANCH  12  13
ATOM     13  C   UNL     1       1.485   8.990  17.890  0.00  0.00    +0.000 C 
BRANCH  13  15
ATOM     14  C   UNL     1       1.208  11.347  18.755  0.00  0.00    +0.000 C 
ATOM     15  C   UNL     1       2.141  10.362  18.069  0.00  0.00    +0.000 C 
ENDBRANCH  13  15
ENDBRANCH  12  13
ENDBRANCH   1  12
BRANCH   4  16
ATOM     16  O   UNL     1       6.689   5.259  18.000  0.00  0.00    +0.000 OA
BRANCH  16  17
ATOM     17  C   UNL     1       6.750   4.991  16.645  0.00  0.00    +0.000 A 
ATOM     18  C   UNL     1       5.911   4.010  16.148  0.00  0.00    +0.000 A 
ATOM     19  C   UNL     1       5.943   3.746  14.780  0.00  0.00    +0.000 A 
ATOM     20  C   UNL     1       6.808   4.484  13.996  0.00  0.00    +0.000 A 
ATOM     21  N   UNL     1       7.594   5.452  14.498  0.00  0.00    +0.000 NA
ATOM     22  N   UNL     1       7.551   5.722  15.837  0.00  0.00    +0.000 NA
BRANCH  20  23
ATOM     23  O   UNL     1       6.913   4.272  12.653  0.00  0.00    +0.000 OA
ATOM     24  H   UNL     1       7.319   5.053  12.253  0.00  0.00    +0.000 HD
ENDBRANCH  20  23
ENDBRANCH  16  17
ENDBRANCH   4  16
TORSDOF 6
ENDMDL
MODEL 5
REMARK VINA RESULT:      -7.1      2.933      6.242
REMARK  Name = 
REMARK  9 active torsions:
REMARK  status: ('A' for Active; 'I' for Inactive)
REMARK    1  A    between atoms: C_1  and  C_2
REMARK    2  A    between atoms: C_2  and  C_3
REMARK    3  A    between atoms: C_3  and  C_4
REMARK    4  A    between atoms: C_4  and  N_5
REMARK    5  A    between atoms: C_8  and  O_9
REMARK    6  A    between atoms: O_9  and  C_10
REMARK    7  A    between atoms: C_13  and  O_14
REMARK    8  A    between atoms: N_19  and  C_20
REMARK    9  A    between atoms: N_19  and  C_21
REMARK                            x       y       z     vdW  Elec       q    Type
REMARK                         _______ _______ _______ _____ _____    ______ ____
ROOT
ATOM      1  N   UNL     1       2.120   7.386  18.581  0.00  0.00    +0.000 N 
ATOM      2  C   UNL     1       2.891   6.254  18.347  0.00  0.00    +0.000 A 
ATOM      3  N   UNL     1       4.172   6.372  18.045  0.00  0.00    +0.000 NA
ATOM      4  C   UNL     1       4.796   5.213  17.907  0.00  0.00    +0.000 A 
ATOM      5  N   UNL     1       4.228   4.014  17.927  0.00  0.00    +0.000 NA
ATOM      6  C   UNL     1       2.954   3.981  18.273  0.00  0.00    +0.000 A 
ATOM      7  N   UNL     1       2.335   2.752  18.373  0.00  0.00    +0.000 N 
ATOM      8  C   UNL     1       0.970   2.654  18.850  0.00  0.00    +0.000 C 
ATOM      9  C   UNL     1       3.152   1.551  18.451  0.00  0.00    +0.000 C 
ATOM     10  N   UNL     1       2.251   5.096  18.472  0.00  0.00    +0.000 NA
ATOM     11  H   UNL     1       1.150   7.097  18.540  0.00  0.00    +0.000 HD
ENDROOT
BRANCH   1  12
ATOM     12  C   UNL     1       2.469   8.570  17.818  0.00  0.00    +0.000 C 
BRANCH  12  13
ATOM     13  C   UNL     1       1.394   9.646  18.005  0.00  0.00    +0.000 C 
BRANCH  13  15
ATOM     14  C   UNL     1       0.911  10.868  20.162  0.00  0.00    +0.000 C 
ATOM     15  C   UNL     1       0.728   9.575  19.382  0.00  0.00    +0.000 C 
ENDBRANCH  13  15
ENDBRANCH  12  13
ENDBRANCH   1  12
BRANCH   4  16
ATOM     16  O   UNL     1       6.143   5.293  17.595  0.00  0.00    +0.000 OA
BRANCH  16  17
ATOM     17  C   UNL     1       6.447   5.087  16.262  0.00  0.00    +0.000 A 
ATOM     18  C   UNL     1       5.586   4.294  15.524  0.00  0.00    +0.000 A 
ATOM     19  C   UNL     1       5.865   4.098  14.173  0.00  0.00    +0.000 A 
ATOM     20  C   UNL     1       6.984   4.713  13.645  0.00  0.00    +0.000 A 
ATOM     21  N   UNL     1       7.790   5.501  14.376  0.00  0.00    +0.000 NA
ATOM     22  N   UNL     1       7.508   5.707  15.697  0.00  0.00    +0.000 NA
BRANCH  20  23
ATOM     23  O   UNL     1       7.336   4.554  12.338  0.00  0.00    +0.000 OA
ATOM     24  H   UNL     1       7.074   5.349  11.853  0.00  0.00    +0.000 HD
ENDBRANCH  20  23
ENDBRANCH  16  17
ENDBRANCH   4  16
TORSDOF 6
ENDMDL
MODEL 6
REMARK VINA RESULT:      -7.1      1.045      1.151
REMARK  Name = 
REMARK  9 active torsions:
REMARK  status: ('A' for Active; 'I' for Inactive)
REMARK    1  A    between atoms: C_1  and  C_2
REMARK    2  A    between atoms: C_2  and  C_3
REMARK    3  A    between atoms: C_3  and  C_4
REMARK    4  A    between atoms: C_4  and  N_5
REMARK    5  A    between atoms: C_8  and  O_9
REMARK    6  A    between atoms: O_9  and  C_10
REMARK    7  A    between atoms: C_13  and  O_14
REMARK    8  A    between atoms: N_19  and  C_20
REMARK    9  A    between atoms: N_19  and  C_21
REMARK                            x       y       z     vdW  Elec       q    Type
REMARK                         _______ _______ _______ _____ _____    ______ ____
ROOT
ATOM      1  N   UNL     1       7.513   6.908  16.839  0.00  0.00    +0.000 N 
ATOM      2  C   UNL     1       6.792   5.857  16.287  0.00  0.00    +0.000 A 
ATOM      3  N   UNL     1       5.843   5.261  16.987  0.00  0.00    +0.000 NA
ATOM      4  C   UNL     1       5.198   4.318  16.317  0.00  0.00    +0.000 A 
ATOM      5  N   UNL     1       5.506   3.873  15.106  0.00  0.00    +0.000 NA
ATOM      6  C   UNL     1       6.441   4.546  14.460  0.00  0.00    +0.000 A 
ATOM      7  N   UNL     1       6.750   4.164  13.171  0.00  0.00    +0.000 N 
ATOM      8  C   UNL     1       7.692   4.933  12.383  0.00  0.00    +0.000 C 
ATOM      9  C   UNL     1       5.830   3.300  12.448  0.00  0.00    +0.000 C 
ATOM     10  N   UNL     1       7.118   5.539  15.038  0.00  0.00    +0.000 NA
ATOM     11  H   UNL     1       8.331   7.043  16.257  0.00  0.00    +0.000 HD
ENDROOT
BRANCH   1  12
ATOM     12  C   UNL     1       7.748   6.845  18.270  0.00  0.00    +0.000 C 
BRANCH  12  13
ATOM     13  C   UNL     1       8.605   8.036  18.711  0.00  0.00    +0.000 C 
BRANCH  13  15
ATOM     14  C   UNL     1       9.030  10.517  18.491  0.00  0.00    +0.000 C 
ATOM     15  C   UNL     1       8.235   9.327  17.975  0.00  0.00    +0.000 C 
ENDBRANCH  13  15
ENDBRANCH  12  13
ENDBRANCH   1  12
BRANCH   4  16
ATOM     16  O   UNL     1       4.192   3.672  17.015  0.00  0.00    +0.000 OA
BRANCH  16  17
ATOM     17  C   UNL     1       3.572   4.435  17.987  0.00  0.00    +0.000 A 
ATOM     18  C   UNL     1       3.632   3.981  19.293  0.00  0.00    +0.000 A 
ATOM     19  C   UNL     1       3.034   4.752  20.287  0.00  0.00    +0.000 A 
ATOM     20  C   UNL     1       2.420   5.932  19.913  0.00  0.00    +0.000 A 
ATOM     21  N   UNL     1       2.399   6.367  18.642  0.00  0.00    +0.000 NA
ATOM     22  N   UNL     1       3.000   5.619  17.668  0.00  0.00    +0.000 NA
BRANCH  20  23
ATOM     23  O   UNL     1       1.796   6.732  20.824  0.00  0.00    +0.000 OA
ATOM     24  H   UNL     1       2.252   7.585  20.842  0.00  0.00    +0.000 HD
ENDBRANCH  20  23
ENDBRANCH  16  17
ENDBRANCH   4  16
TORSDOF 6
ENDMDL
MODEL 7
REMARK VINA RESULT:      -7.0      3.155      5.923
REMARK  Name = 
REMARK  9 active torsions:
REMARK  status: ('A' for Active; 'I' for Inactive)
REMARK    1  A    between atoms: C_1  and  C_2
REMARK    2  A    between atoms: C_2  and  C_3
REMARK    3  A    between atoms: C_3  and  C_4
REMARK    4  A    between atoms: C_4  and  N_5
REMARK    5  A    between atoms: C_8  and  O_9
REMARK    6  A    between atoms: O_9  and  C_10
REMARK    7  A    between atoms: C_13  and  O_14
REMARK    8  A    between atoms: N_19  and  C_20
REMARK    9  A    between atoms: N_19  and  C_21
REMARK                            x       y       z     vdW  Elec       q    Type
REMARK                         _______ _______ _______ _____ _____    ______ ____
ROOT
ATOM      1  N   UNL     1       3.095   3.462  18.480  0.00  0.00    +0.000 N 
ATOM      2  C   UNL     1       3.638   4.692  18.131  0.00  0.00    +0.000 A 
ATOM      3  N   UNL     1       2.851   5.734  17.933  0.00  0.00    +0.000 NA
ATOM      4  C   UNL     1       3.506   6.853  17.665  0.00  0.00    +0.000 A 
ATOM      5  N   UNL     1       4.814   6.964  17.471  0.00  0.00    +0.000 NA
ATOM      6  C   UNL     1       5.532   5.886  17.725  0.00  0.00    +0.000 A 
ATOM      7  N   UNL     1       6.904   5.969  17.603  0.00  0.00    +0.000 N 
ATOM      8  C   UNL     1       7.744   4.846  17.971  0.00  0.00    +0.000 C 
ATOM      9  C   UNL     1       7.533   7.279  17.553  0.00  0.00    +0.000 C 
ATOM     10  N   UNL     1       4.964   4.722  18.042  0.00  0.00    +0.000 NA
ATOM     11  H   UNL     1       3.818   2.767  18.335  0.00  0.00    +0.000 HD
ENDROOT
BRANCH   1  12
ATOM     12  C   UNL     1       1.790   3.154  17.925  0.00  0.00    +0.000 C 
BRANCH  12  13
ATOM     13  C   UNL     1       0.879   2.586  19.019  0.00  0.00    +0.000 C 
BRANCH  13  15
ATOM     14  C   UNL     1       1.407   2.699  21.486  0.00  0.00    +0.000 C 
ATOM     15  C   UNL     1       0.868   3.454  20.281  0.00  0.00    +0.000 C 
ENDBRANCH  13  15
ENDBRANCH  12  13
ENDBRANCH   1  12
BRANCH   4  16
ATOM     16  O   UNL     1       2.717   7.972  17.455  0.00  0.00    +0.000 OA
BRANCH  16  17
ATOM     17  C   UNL     1       2.027   8.417  18.568  0.00  0.00    +0.000 A 
ATOM     18  C   UNL     1       1.177   9.496  18.404  0.00  0.00    +0.000 A 
ATOM     19  C   UNL     1       0.455   9.940  19.510  0.00  0.00    +0.000 A 
ATOM     20  C   UNL     1       0.625   9.272  20.707  0.00  0.00    +0.000 A 
ATOM     21  N   UNL     1       1.435   8.207  20.835  0.00  0.00    +0.000 NA
ATOM     22  N   UNL     1       2.131   7.761  19.747  0.00  0.00    +0.000 NA
BRANCH  20  23
ATOM     23  O   UNL     1      -0.030   9.657  21.839  0.00  0.00    +0.000 OA
ATOM     24  H   UNL     1       0.460   9.323  22.603  0.00  0.00    +0.000 HD
ENDBRANCH  20  23
ENDBRANCH  16  17
ENDBRANCH   4  16
TORSDOF 6
ENDMDL
MODEL 8
REMARK VINA RESULT:      -6.9      2.901      6.544
REMARK  Name = 
REMARK  9 active torsions:
REMARK  status: ('A' for Active; 'I' for Inactive)
REMARK    1  A    between atoms: C_1  and  C_2
REMARK    2  A    between atoms: C_2  and  C_3
REMARK    3  A    between atoms: C_3  and  C_4
REMARK    4  A    between atoms: C_4  and  N_5
REMARK    5  A    between atoms: C_8  and  O_9
REMARK    6  A    between atoms: O_9  and  C_10
REMARK    7  A    between atoms: C_13  and  O_14
REMARK    8  A    between atoms: N_19  and  C_20
REMARK    9  A    between atoms: N_19  and  C_21
REMARK                            x       y       z     vdW  Elec       q    Type
REMARK                         _______ _______ _______ _____ _____    ______ ____
ROOT
ATOM      1  N   UNL     1       1.638   6.744  20.567  0.00  0.00    +0.000 N 
ATOM      2  C   UNL     1       2.515   5.849  19.967  0.00  0.00    +0.000 A 
ATOM      3  N   UNL     1       3.758   6.211  19.705  0.00  0.00    +0.000 NA
ATOM      4  C   UNL     1       4.498   5.241  19.189  0.00  0.00    +0.000 A 
ATOM      5  N   UNL     1       4.066   4.041  18.823  0.00  0.00    +0.000 NA
ATOM      6  C   UNL     1       2.822   3.747  19.153  0.00  0.00    +0.000 A 
ATOM      7  N   UNL     1       2.347   2.486  18.854  0.00  0.00    +0.000 N 
ATOM      8  C   UNL     1       1.026   2.077  19.288  0.00  0.00    +0.000 C 
ATOM      9  C   UNL     1       3.293   1.432  18.525  0.00  0.00    +0.000 C 
ATOM     10  N   UNL     1       2.012   4.645  19.714  0.00  0.00    +0.000 NA
ATOM     11  H   UNL     1       0.704   6.370  20.445  0.00  0.00    +0.000 HD
ENDROOT
BRANCH   1  12
ATOM     12  C   UNL     1       1.816   8.144  20.229  0.00  0.00    +0.000 C 
BRANCH  12  13
ATOM     13  C   UNL     1       0.636   8.964  20.762  0.00  0.00    +0.000 C 
BRANCH  13  15
ATOM     14  C   UNL     1      -0.306   9.400  23.064  0.00  0.00    +0.000 C 
ATOM     15  C   UNL     1       0.905   9.539  22.155  0.00  0.00    +0.000 C 
ENDBRANCH  13  15
ENDBRANCH  12  13
ENDBRANCH   1  12
BRANCH   4  16
ATOM     16  O   UNL     1       5.810   5.578  18.905  0.00  0.00    +0.000 OA
BRANCH  16  17
ATOM     17  C   UNL     1       6.178   5.431  17.580  0.00  0.00    +0.000 A 
ATOM     18  C   UNL     1       5.361   6.005  16.622  0.00  0.00    +0.000 A 
ATOM     19  C   UNL     1       5.731   5.887  15.284  0.00  0.00    +0.000 A 
ATOM     20  C   UNL     1       6.899   5.209  14.990  0.00  0.00    +0.000 A 
ATOM     21  N   UNL     1       7.691   4.684  15.940  0.00  0.00    +0.000 NA
ATOM     22  N   UNL     1       7.336   4.813  17.254  0.00  0.00    +0.000 NA
BRANCH  20  23
ATOM     23  O   UNL     1       7.319   5.034  13.705  0.00  0.00    +0.000 OA
ATOM     24  H   UNL     1       7.929   5.751  13.484  0.00  0.00    +0.000 HD
ENDBRANCH  20  23
ENDBRANCH  16  17
ENDBRANCH   4  16
TORSDOF 6
ENDMDL
MODEL 9
REMARK VINA RESULT:      -6.8      2.688      4.949
REMARK  Name = 
REMARK  9 active torsions:
REMARK  status: ('A' for Active; 'I' for Inactive)
REMARK    1  A    between atoms: C_1  and  C_2
REMARK    2  A    between atoms: C_2  and  C_3
REMARK    3  A    between atoms: C_3  and  C_4
REMARK    4  A    between atoms: C_4  and  N_5
REMARK    5  A    between atoms: C_8  and  O_9
REMARK    6  A    between atoms: O_9  and  C_10
REMARK    7  A    between atoms: C_13  and  O_14
REMARK    8  A    between atoms: N_19  and  C_20
REMARK    9  A    between atoms: N_19  and  C_21
REMARK                            x       y       z     vdW  Elec       q    Type
REMARK                         _______ _______ _______ _____ _____    ______ ____
ROOT
ATOM      1  N   UNL     1       6.332   5.537  15.464  0.00  0.00    +0.000 N 
ATOM      2  C   UNL     1       5.437   5.291  16.498  0.00  0.00    +0.000 A 
ATOM      3  N   UNL     1       5.422   4.115  17.099  0.00  0.00    +0.000 NA
ATOM      4  C   UNL     1       4.562   4.040  18.103  0.00  0.00    +0.000 A 
ATOM      5  N   UNL     1       3.680   4.970  18.445  0.00  0.00    +0.000 NA
ATOM      6  C   UNL     1       3.787   6.129  17.821  0.00  0.00    +0.000 A 
ATOM      7  N   UNL     1       2.935   7.150  18.188  0.00  0.00    +0.000 N 
ATOM      8  C   UNL     1       3.080   8.471  17.609  0.00  0.00    +0.000 C 
ATOM      9  C   UNL     1       2.214   7.054  19.448  0.00  0.00    +0.000 C 
ATOM     10  N   UNL     1       4.651   6.313  16.823  0.00  0.00    +0.000 NA
ATOM     11  H   UNL     1       6.014   6.374  14.990  0.00  0.00    +0.000 HD
ENDROOT
BRANCH   1  12
ATOM     12  C   UNL     1       6.662   4.407  14.617  0.00  0.00    +0.000 C 
BRANCH  12  13
ATOM     13  C   UNL     1       5.478   4.076  13.702  0.00  0.00    +0.000 C 
BRANCH  13  15
ATOM     14  C   UNL     1       7.171   3.994  11.830  0.00  0.00    +0.000 C 
ATOM     15  C   UNL     1       5.913   3.372  12.414  0.00  0.00    +0.000 C 
ENDBRANCH  13  15
ENDBRANCH  12  13
ENDBRANCH   1  12
BRANCH   4  16
ATOM     16  O   UNL     1       4.519   2.823  18.763  0.00  0.00    +0.000 OA
BRANCH  16  17
ATOM     17  C   UNL     1       3.543   2.722  19.737  0.00  0.00    +0.000 A 
ATOM     18  C   UNL     1       2.223   2.716  19.324  0.00  0.00    +0.000 A 
ATOM     19  C   UNL     1       1.229   2.589  20.292  0.00  0.00    +0.000 A 
ATOM     20  C   UNL     1       1.620   2.469  21.612  0.00  0.00    +0.000 A 
ATOM     21  N   UNL     1       2.910   2.449  21.987  0.00  0.00    +0.000 NA
ATOM     22  N   UNL     1       3.886   2.557  21.036  0.00  0.00    +0.000 NA
BRANCH  20  23
ATOM     23  O   UNL     1       0.708   2.360  22.620  0.00  0.00    +0.000 OA
ATOM     24  H   UNL     1       0.125   3.131  22.587  0.00  0.00    +0.000 HD
ENDBRANCH  20  23
ENDBRANCH  16  17
ENDBRANCH   4  16
TORSDOF 6
ENDMDL
