MODEL 1
REMARK VINA RESULT:      -6.9      0.000      0.000
REMARK  Name = 
REMARK  6 active torsions:
REMARK  status: ('A' for Active; 'I' for Inactive)
REMARK    1  A    between atoms: C_2  and  O_3
REMARK    2  A    between atoms: C_2  and  C_4
REMARK    3  A    between atoms: C_7  and  C_8
REMARK    4  A    between atoms: C_8  and  N_9
REMARK    5  A    between atoms: N_9  and  C_10
REMARK    6  A    between atoms: C_10  and  C_11
REMARK                            x       y       z     vdW  Elec       q    Type
REMARK                         _______ _______ _______ _____ _____    ______ ____
ROOT
ATOM      1  C   UNL     1       6.779   5.328  17.487  0.00  0.00    +0.000 C 
ENDROOT
BRANCH   1   5
ATOM      2  C   UNL     1       6.063   3.707  13.533  0.00  0.00    +0.000 A 
ATOM      3  C   UNL     1       5.278   3.302  14.631  0.00  0.00    +0.000 A 
ATOM      4  C   UNL     1       5.500   3.834  15.901  0.00  0.00    +0.000 A 
ATOM      5  C   UNL     1       6.516   4.778  16.106  0.00  0.00    +0.000 A 
ATOM      6  C   UNL     1       7.300   5.192  15.019  0.00  0.00    +0.000 A 
ATOM      7  C   UNL     1       7.077   4.661  13.746  0.00  0.00    +0.000 A 
BRANCH   2   9
ATOM      8  O   UNL     1       4.753   3.372  11.612  0.00  0.00    +0.000 OA
ATOM      9  C   UNL     1       5.800   3.115  12.187  0.00  0.00    +0.000 C 
BRANCH   9  10
ATOM     10  O   UNL     1       6.674   2.285  11.573  0.00  0.00    +0.000 OA
ATOM     11  H   UNL     1       6.845   2.278  10.624  0.00  0.00    +0.000 HD
ENDBRANCH   9  10
ENDBRANCH   2   9
ENDBRANCH   1   5
BRANCH   1  12
ATOM     12  N   UNL     1       6.365   4.383  18.534  0.00  0.00    +0.000 NA
ATOM     13  H   UNL     1       7.199   4.066  19.083  0.00  0.00    +0.000 HD
BRANCH  12  14
ATOM     14  C   UNL     1       5.356   4.952  19.441  0.00  0.00    +0.000 C 
BRANCH  14  15
ATOM     15  C   UNL     1       3.981   4.466  19.037  0.00  0.00    +0.000 A 
ATOM     16  C   UNL     1       3.513   3.176  19.402  0.00  0.00    +0.000 A 
ATOM     17 CL   UNL     1       4.474   2.047  20.357  0.00  0.00    +0.000 Cl
ATOM     18  C   UNL     1       2.243   2.751  18.991  0.00  0.00    +0.000 A 
ATOM     19  C   UNL     1       1.431   3.585  18.228  0.00  0.00    +0.000 A 
ATOM     20  C   UNL     1       1.876   4.855  17.868  0.00  0.00    +0.000 A 
ATOM     21  C   UNL     1       3.139   5.303  18.266  0.00  0.00    +0.000 A 
ATOM     22 CL   UNL     1       3.631   6.923  17.778  0.00  0.00    +0.000 Cl
ENDBRANCH  14  15
ENDBRANCH  12  14
ENDBRANCH   1  12
TORSDOF 6
ENDMDL
MODEL 2
REMARK VINA RESULT:      -6.9      0.377      2.097
REMARK  Name = 
REMARK  6 active torsions:
REMARK  status: ('A' for Active; 'I' for Inactive)
REMARK    1  A    between atoms: C_2  and  O_3
REMARK    2  A    between atoms: C_2  and  C_4
REMARK    3  A    between atoms: C_7  and  C_8
REMARK    4  A    between atoms: C_8  and  N_9
REMARK    5  A    between atoms: N_9  and  C_10
REMARK    6  A    between atoms: C_10  and  C_11
REMARK                            x       y       z     vdW  Elec       q    Type
REMARK                         _______ _______ _______ _____ _____    ______ ____
ROOT
ATOM      1  C   UNL     1       6.485   5.427  17.689  0.00  0.00    +0.000 C 
ENDROOT
BRANCH   1   5
ATOM      2  C   UNL     1       6.078   3.841  13.676  0.00  0.00    +0.000 A 
ATOM      3  C   UNL     1       5.161   3.490  14.686  0.00  0.00    +0.000 A 
ATOM      4  C   UNL     1       5.284   4.010  15.974  0.00  0.00    +0.000 A 
ATOM      5  C   UNL     1       6.331   4.890  16.286  0.00  0.00    +0.000 A 
ATOM      6  C   UNL     1       7.246   5.251  15.286  0.00  0.00    +0.000 A 
ATOM      7  C   UNL     1       7.123   4.731  13.996  0.00  0.00    +0.000 A 
BRANCH   2   9
ATOM      8  O   UNL     1       4.912   3.516  11.662  0.00  0.00    +0.000 OA
ATOM      9  C   UNL     1       5.918   3.263  12.308  0.00  0.00    +0.000 C 
BRANCH   9  10
ATOM     10  O   UNL     1       6.843   2.448  11.749  0.00  0.00    +0.000 OA
ATOM     11  H   UNL     1       7.787   2.487  11.936  0.00  0.00    +0.000 HD
ENDBRANCH   9  10
ENDBRANCH   2   9
ENDBRANCH   1   5
BRANCH   1  12
ATOM     12  N   UNL     1       6.146   4.412  18.696  0.00  0.00    +0.000 NA
ATOM     13  H   UNL     1       6.994   4.169  19.262  0.00  0.00    +0.000 HD
BRANCH  12  14
ATOM     14  C   UNL     1       5.056   4.842  19.586  0.00  0.00    +0.000 C 
BRANCH  14  15
ATOM     15  C   UNL     1       3.756   4.213  19.137  0.00  0.00    +0.000 A 
ATOM     16  C   UNL     1       2.800   4.943  18.382  0.00  0.00    +0.000 A 
ATOM     17 CL   UNL     1       3.046   6.620  17.896  0.00  0.00    +0.000 Cl
ATOM     18  C   UNL     1       1.596   4.333  18.002  0.00  0.00    +0.000 A 
ATOM     19  C   UNL     1       1.330   3.014  18.357  0.00  0.00    +0.000 A 
ATOM     20  C   UNL     1       2.262   2.286  19.092  0.00  0.00    +0.000 A 
ATOM     21  C   UNL     1       3.470   2.870  19.483  0.00  0.00    +0.000 A 
ATOM     22 CL   UNL     1       4.603   1.885  20.405  0.00  0.00    +0.000 Cl
ENDBRANCH  14  15
ENDBRANCH  12  14
ENDBRANCH   1  12
TORSDOF 6
ENDMDL
MODEL 3
REMARK VINA RESULT:      -6.8      2.924      4.051
REMARK  Name = 
REMARK  6 active torsions:
REMARK  status: ('A' for Active; 'I' for Inactive)
REMARK    1  A    between atoms: C_2  and  O_3
REMARK    2  A    between atoms: C_2  and  C_4
REMARK    3  A    between atoms: C_7  and  C_8
REMARK    4  A    between atoms: C_8  and  N_9
REMARK    5  A    between atoms: N_9  and  C_10
REMARK    6  A    between atoms: C_10  and  C_11
REMARK                            x       y       z     vdW  Elec       q    Type
REMARK                         _______ _______ _______ _____ _____    ______ ____
ROOT
ATOM      1  C   UNL     1       2.434   6.720  19.716  0.00  0.00    +0.000 C 
ENDROOT
BRANCH   1   5
ATOM      2  C   UNL     1       5.941   5.572  17.443  0.00  0.00    +0.000 A 
ATOM      3  C   UNL     1       4.970   6.428  16.887  0.00  0.00    +0.000 A 
ATOM      4  C   UNL     1       3.848   6.808  17.623  0.00  0.00    +0.000 A 
ATOM      5  C   UNL     1       3.665   6.337  18.931  0.00  0.00    +0.000 A 
ATOM      6  C   UNL     1       4.629   5.489  19.496  0.00  0.00    +0.000 A 
ATOM      7  C   UNL     1       5.754   5.108  18.760  0.00  0.00    +0.000 A 
BRANCH   2   9
ATOM      8  O   UNL     1       7.948   4.403  17.089  0.00  0.00    +0.000 OA
ATOM      9  C   UNL     1       7.129   5.183  16.626  0.00  0.00    +0.000 C 
BRANCH   9  10
ATOM     10  O   UNL     1       7.351   5.673  15.384  0.00  0.00    +0.000 OA
ATOM     11  H   UNL     1       8.222   5.890  15.031  0.00  0.00    +0.000 HD
ENDBRANCH   9  10
ENDBRANCH   2   9
ENDBRANCH   1   5
BRANCH   1  12
ATOM     12  N   UNL     1       2.081   5.692  20.705  0.00  0.00    +0.000 NA
ATOM     13  H   UNL     1       1.687   6.140  21.566  0.00  0.00    +0.000 HD
BRANCH  12  14
ATOM     14  C   UNL     1       1.130   4.702  20.175  0.00  0.00    +0.000 C 
BRANCH  14  15
ATOM     15  C   UNL     1       1.884   3.624  19.428  0.00  0.00    +0.000 A 
ATOM     16  C   UNL     1       2.613   2.617  20.116  0.00  0.00    +0.000 A 
ATOM     17 CL   UNL     1       2.689   2.525  21.875  0.00  0.00    +0.000 Cl
ATOM     18  C   UNL     1       3.318   1.646  19.391  0.00  0.00    +0.000 A 
ATOM     19  C   UNL     1       3.310   1.660  17.999  0.00  0.00    +0.000 A 
ATOM     20  C   UNL     1       2.595   2.639  17.313  0.00  0.00    +0.000 A 
ATOM     21  C   UNL     1       1.883   3.617  18.013  0.00  0.00    +0.000 A 
ATOM     22 CL   UNL     1       0.997   4.819  17.077  0.00  0.00    +0.000 Cl
ENDBRANCH  14  15
ENDBRANCH  12  14
ENDBRANCH   1  12
TORSDOF 6
ENDMDL
MODEL 4
REMARK VINA RESULT:      -6.8      0.276      2.450
REMARK  Name = 
REMARK  6 active torsions:
REMARK  status: ('A' for Active; 'I' for Inactive)
REMARK    1  A    between atoms: C_2  and  O_3
REMARK    2  A    between atoms: C_2  and  C_4
REMARK    3  A    between atoms: C_7  and  C_8
REMARK    4  A    between atoms: C_8  and  N_9
REMARK    5  A    between atoms: N_9  and  C_10
REMARK    6  A    between atoms: C_10  and  C_11
REMARK                            x       y       z     vdW  Elec       q    Type
REMARK                         _______ _______ _______ _____ _____    ______ ____
ROOT
ATOM      1  C   UNL     1       6.940   5.179  17.793  0.00  0.00    +0.000 C 
ENDROOT
BRANCH   1   5
ATOM      2  C   UNL     1       6.146   3.830  13.752  0.00  0.00    +0.000 A 
ATOM      3  C   UNL     1       7.158   4.775  14.010  0.00  0.00    +0.000 A 
ATOM      4  C   UNL     1       7.423   5.200  15.312  0.00  0.00    +0.000 A 
ATOM      5  C   UNL     1       6.677   4.695  16.388  0.00  0.00    +0.000 A 
ATOM      6  C   UNL     1       5.671   3.749  16.142  0.00  0.00    +0.000 A 
ATOM      7  C   UNL     1       5.406   3.323  14.838  0.00  0.00    +0.000 A 
BRANCH   2   9
ATOM      8  O   UNL     1       6.812   2.980  11.666  0.00  0.00    +0.000 OA
ATOM      9  C   UNL     1       5.887   3.400  12.345  0.00  0.00    +0.000 C 
BRANCH   9  10
ATOM     10  O   UNL     1       4.662   3.467  11.776  0.00  0.00    +0.000 OA
ATOM     11  H   UNL     1       3.874   3.036  12.126  0.00  0.00    +0.000 HD
ENDBRANCH   9  10
ENDBRANCH   2   9
ENDBRANCH   1   5
BRANCH   1  12
ATOM     12  N   UNL     1       6.323   4.297  18.793  0.00  0.00    +0.000 NA
ATOM     13  H   UNL     1       7.051   3.942  19.458  0.00  0.00    +0.000 HD
BRANCH  12  14
ATOM     14  C   UNL     1       5.243   4.959  19.541  0.00  0.00    +0.000 C 
BRANCH  14  15
ATOM     15  C   UNL     1       3.904   4.450  19.054  0.00  0.00    +0.000 A 
ATOM     16  C   UNL     1       3.056   5.250  18.243  0.00  0.00    +0.000 A 
ATOM     17 CL   UNL     1       3.489   6.880  17.726  0.00  0.00    +0.000 Cl
ATOM     18  C   UNL     1       1.813   4.754  17.829  0.00  0.00    +0.000 A 
ATOM     19  C   UNL     1       1.400   3.479  18.205  0.00  0.00    +0.000 A 
ATOM     20  C   UNL     1       2.225   2.682  18.996  0.00  0.00    +0.000 A 
ATOM     21  C   UNL     1       3.470   3.154  19.421  0.00  0.00    +0.000 A 
ATOM     22 CL   UNL     1       4.461   2.087  20.413  0.00  0.00    +0.000 Cl
ENDBRANCH  14  15
ENDBRANCH  12  14
ENDBRANCH   1  12
TORSDOF 6
ENDMDL
MODEL 5
REMARK VINA RESULT:      -6.6      4.727      7.032
REMARK  Name = 
REMARK  6 active torsions:
REMARK  status: ('A' for Active; 'I' for Inactive)
REMARK    1  A    between atoms: C_2  and  O_3
REMARK    2  A    between atoms: C_2  and  C_4
REMARK    3  A    between atoms: C_7  and  C_8
REMARK    4  A    between atoms: C_8  and  N_9
REMARK    5  A    between atoms: N_9  and  C_10
REMARK    6  A    between atoms: C_10  and  C_11
REMARK                            x       y       z     vdW  Elec       q    Type
REMARK                         _______ _______ _______ _____ _____    ______ ____
ROOT
ATOM      1  C   UNL     1       2.957   5.675  19.685  0.00  0.00    +0.000 C 
ENDROOT
BRANCH   1   5
ATOM      2  C   UNL     1       1.162   9.562  19.015  0.00  0.00    +0.000 A 
ATOM      3  C   UNL     1       1.116   8.957  20.286  0.00  0.00    +0.000 A 
ATOM      4  C   UNL     1       1.705   7.712  20.505  0.00  0.00    +0.000 A 
ATOM      5  C   UNL     1       2.349   7.038  19.457  0.00  0.00    +0.000 A 
ATOM      6  C   UNL     1       2.405   7.635  18.189  0.00  0.00    +0.000 A 
ATOM      7  C   UNL     1       1.816   8.882  17.969  0.00  0.00    +0.000 A 
BRANCH   2   9
ATOM      8  O   UNL     1       0.753  11.801  19.601  0.00  0.00    +0.000 OA
ATOM      9  C   UNL     1       0.518  10.895  18.815  0.00  0.00    +0.000 C 
BRANCH   9  10
ATOM     10  O   UNL     1      -0.337  11.146  17.796  0.00  0.00    +0.000 OA
ATOM     11  H   UNL     1      -0.324  10.688  16.948  0.00  0.00    +0.000 HD
ENDBRANCH   9  10
ENDBRANCH   2   9
ENDBRANCH   1   5
BRANCH   1  12
ATOM     12  N   UNL     1       4.424   5.717  19.603  0.00  0.00    +0.000 NA
ATOM     13  H   UNL     1       4.825   6.071  20.504  0.00  0.00    +0.000 HD
BRANCH  12  14
ATOM     14  C   UNL     1       5.008   4.407  19.274  0.00  0.00    +0.000 C 
BRANCH  14  15
ATOM     15  C   UNL     1       5.523   4.425  17.852  0.00  0.00    +0.000 A 
ATOM     16  C   UNL     1       4.717   3.993  16.766  0.00  0.00    +0.000 A 
ATOM     17 CL   UNL     1       3.062   3.421  16.973  0.00  0.00    +0.000 Cl
ATOM     18  C   UNL     1       5.236   4.003  15.464  0.00  0.00    +0.000 A 
ATOM     19  C   UNL     1       6.537   4.434  15.225  0.00  0.00    +0.000 A 
ATOM     20  C   UNL     1       7.336   4.864  16.281  0.00  0.00    +0.000 A 
ATOM     21  C   UNL     1       6.842   4.865  17.589  0.00  0.00    +0.000 A 
ATOM     22 CL   UNL     1       7.909   5.430  18.873  0.00  0.00    +0.000 Cl
ENDBRANCH  14  15
ENDBRANCH  12  14
ENDBRANCH   1  12
TORSDOF 6
ENDMDL
MODEL 6
REMARK VINA RESULT:      -6.6      0.691      1.399
REMARK  Name = 
REMARK  6 active torsions:
REMARK  status: ('A' for Active; 'I' for Inactive)
REMARK    1  A    between atoms: C_2  and  O_3
REMARK    2  A    between atoms: C_2  and  C_4
REMARK    3  A    between atoms: C_7  and  C_8
REMARK    4  A    between atoms: C_8  and  N_9
REMARK    5  A    between atoms: N_9  and  C_10
REMARK    6  A    between atoms: C_10  and  C_11
REMARK                            x       y       z     vdW  Elec       q    Type
REMARK                         _______ _______ _______ _____ _____    ______ ____
ROOT
ATOM      1  C   UNL     1       6.053   5.887  17.626  0.00  0.00    +0.000 C 
ENDROOT
BRANCH   1   5
ATOM      2  C   UNL     1       6.106   4.029  13.712  0.00  0.00    +0.000 A 
ATOM      3  C   UNL     1       7.196   4.801  14.158  0.00  0.00    +0.000 A 
ATOM      4  C   UNL     1       7.185   5.389  15.422  0.00  0.00    +0.000 A 
ATOM      5  C   UNL     1       6.081   5.223  16.271  0.00  0.00    +0.000 A 
ATOM      6  C   UNL     1       4.992   4.452  15.839  0.00  0.00    +0.000 A 
ATOM      7  C   UNL     1       5.003   3.862  14.573  0.00  0.00    +0.000 A 
BRANCH   2   9
ATOM      8  O   UNL     1       7.208   3.384  11.739  0.00  0.00    +0.000 OA
ATOM      9  C   UNL     1       6.150   3.416  12.350  0.00  0.00    +0.000 C 
BRANCH   9  10
ATOM     10  O   UNL     1       5.053   2.901  11.748  0.00  0.00    +0.000 OA
ATOM     11  H   UNL     1       4.205   2.765  12.184  0.00  0.00    +0.000 HD
ENDBRANCH   9  10
ENDBRANCH   2   9
ENDBRANCH   1   5
BRANCH   1  12
ATOM     12  N   UNL     1       5.857   4.908  18.704  0.00  0.00    +0.000 NA
ATOM     13  H   UNL     1       6.722   4.841  19.292  0.00  0.00    +0.000 HD
BRANCH  12  14
ATOM     14  C   UNL     1       4.698   5.226  19.553  0.00  0.00    +0.000 C 
BRANCH  14  15
ATOM     15  C   UNL     1       3.507   4.402  19.114  0.00  0.00    +0.000 A 
ATOM     16  C   UNL     1       3.405   3.021  19.427  0.00  0.00    +0.000 A 
ATOM     17 CL   UNL     1       4.632   2.158  20.354  0.00  0.00    +0.000 Cl
ATOM     18  C   UNL     1       2.298   2.284  18.984  0.00  0.00    +0.000 A 
ATOM     19  C   UNL     1       1.294   2.896  18.240  0.00  0.00    +0.000 A 
ATOM     20  C   UNL     1       1.380   4.251  17.931  0.00  0.00    +0.000 A 
ATOM     21  C   UNL     1       2.473   5.009  18.361  0.00  0.00    +0.000 A 
ATOM     22 CL   UNL     1       2.509   6.719  17.938  0.00  0.00    +0.000 Cl
ENDBRANCH  14  15
ENDBRANCH  12  14
ENDBRANCH   1  12
TORSDOF 6
ENDMDL
MODEL 7
REMARK VINA RESULT:      -6.5      3.557      4.799
REMARK  Name = 
REMARK  6 active torsions:
REMARK  status: ('A' for Active; 'I' for Inactive)
REMARK    1  A    between atoms: C_2  and  O_3
REMARK    2  A    between atoms: C_2  and  C_4
REMARK    3  A    between atoms: C_7  and  C_8
REMARK    4  A    between atoms: C_8  and  N_9
REMARK    5  A    between atoms: N_9  and  C_10
REMARK    6  A    between atoms: C_10  and  C_11
REMARK                            x       y       z     vdW  Elec       q    Type
REMARK                         _______ _______ _______ _____ _____    ______ ____
ROOT
ATOM      1  C   UNL     1       3.550   3.185  17.612  0.00  0.00    +0.000 C 
ENDROOT
BRANCH   1   5
ATOM      2  C   UNL     1       6.618   6.240  17.802  0.00  0.00    +0.000 A 
ATOM      3  C   UNL     1       6.491   5.282  18.827  0.00  0.00    +0.000 A 
ATOM      4  C   UNL     1       5.512   4.291  18.760  0.00  0.00    +0.000 A 
ATOM      5  C   UNL     1       4.632   4.237  17.669  0.00  0.00    +0.000 A 
ATOM      6  C   UNL     1       4.753   5.183  16.640  0.00  0.00    +0.000 A 
ATOM      7  C   UNL     1       5.734   6.175  16.706  0.00  0.00    +0.000 A 
BRANCH   2   9
ATOM      8  O   UNL     1       7.799   8.111  17.010  0.00  0.00    +0.000 OA
ATOM      9  C   UNL     1       7.676   7.289  17.907  0.00  0.00    +0.000 C 
BRANCH   9  10
ATOM     10  O   UNL     1       8.526   7.364  18.957  0.00  0.00    +0.000 OA
ATOM     11  H   UNL     1       9.316   6.820  19.059  0.00  0.00    +0.000 HD
ENDBRANCH   9  10
ENDBRANCH   2   9
ENDBRANCH   1   5
BRANCH   1  12
ATOM     12  N   UNL     1       2.404   3.632  16.807  0.00  0.00    +0.000 NA
ATOM     13  H   UNL     1       1.937   2.808  16.358  0.00  0.00    +0.000 HD
BRANCH  12  14
ATOM     14  C   UNL     1       1.425   4.396  17.594  0.00  0.00    +0.000 C 
BRANCH  14  15
ATOM     15  C   UNL     1       1.618   4.104  19.065  0.00  0.00    +0.000 A 
ATOM     16  C   UNL     1       2.179   5.067  19.946  0.00  0.00    +0.000 A 
ATOM     17 CL   UNL     1       2.680   6.671  19.413  0.00  0.00    +0.000 Cl
ATOM     18  C   UNL     1       2.364   4.752  21.299  0.00  0.00    +0.000 A 
ATOM     19  C   UNL     1       1.999   3.502  21.790  0.00  0.00    +0.000 A 
ATOM     20  C   UNL     1       1.443   2.551  20.938  0.00  0.00    +0.000 A 
ATOM     21  C   UNL     1       1.247   2.840  19.584  0.00  0.00    +0.000 A 
ATOM     22 CL   UNL     1       0.532   1.590  18.569  0.00  0.00    +0.000 Cl
ENDBRANCH  14  15
ENDBRANCH  12  14
ENDBRANCH   1  12
TORSDOF 6
ENDMDL
MODEL 8
REMARK VINA RESULT:      -6.4      4.719      7.065
REMARK  Name = 
REMARK  6 active torsions:
REMARK  status: ('A' for Active; 'I' for Inactive)
REMARK    1  A    between atoms: C_2  and  O_3
REMARK    2  A    between atoms: C_2  and  C_4
REMARK    3  A    between atoms: C_7  and  C_8
REMARK    4  A    between atoms: C_8  and  N_9
REMARK    5  A    between atoms: N_9  and  C_10
REMARK    6  A    between atoms: C_10  and  C_11
REMARK                            x       y       z     vdW  Elec       q    Type
REMARK                         _______ _______ _______ _____ _____    ______ ____
ROOT
ATOM      1  C   UNL     1       2.815   5.653  19.699  0.00  0.00    +0.000 C 
ENDROOT
BRANCH   1   5
ATOM      2  C   UNL     1       1.300   9.652  18.995  0.00  0.00    +0.000 A 
ATOM      3  C   UNL     1       1.974   8.947  17.979  0.00  0.00    +0.000 A 
ATOM      4  C   UNL     1       2.451   7.656  18.201  0.00  0.00    +0.000 A 
ATOM      5  C   UNL     1       2.270   7.038  19.447  0.00  0.00    +0.000 A 
ATOM      6  C   UNL     1       1.594   7.728  20.464  0.00  0.00    +0.000 A 
ATOM      7  C   UNL     1       1.116   9.022  20.242  0.00  0.00    +0.000 A 
BRANCH   2   9
ATOM      8  O   UNL     1       1.609  11.929  18.508  0.00  0.00    +0.000 OA
ATOM      9  C   UNL     1       0.805  11.035  18.724  0.00  0.00    +0.000 C 
BRANCH   9  10
ATOM     10  O   UNL     1      -0.511  11.350  18.721  0.00  0.00    +0.000 OA
ATOM     11  H   UNL     1      -0.871  12.190  19.028  0.00  0.00    +0.000 HD
ENDBRANCH   9  10
ENDBRANCH   2   9
ENDBRANCH   1   5
BRANCH   1  12
ATOM     12  N   UNL     1       4.285   5.638  19.673  0.00  0.00    +0.000 NA
ATOM     13  H   UNL     1       4.664   5.906  20.612  0.00  0.00    +0.000 HD
BRANCH  12  14
ATOM     14  C   UNL     1       4.828   4.333  19.266  0.00  0.00    +0.000 C 
BRANCH  14  15
ATOM     15  C   UNL     1       5.413   4.439  17.874  0.00  0.00    +0.000 A 
ATOM     16  C   UNL     1       6.726   4.936  17.657  0.00  0.00    +0.000 A 
ATOM     17 CL   UNL     1       7.782   5.450  18.972  0.00  0.00    +0.000 Cl
ATOM     18  C   UNL     1       7.226   5.041  16.352  0.00  0.00    +0.000 A 
ATOM     19  C   UNL     1       6.447   4.661  15.264  0.00  0.00    +0.000 A 
ATOM     20  C   UNL     1       5.159   4.167  15.464  0.00  0.00    +0.000 A 
ATOM     21  C   UNL     1       4.637   4.052  16.756  0.00  0.00    +0.000 A 
ATOM     22 CL   UNL     1       3.005   3.413  16.931  0.00  0.00    +0.000 Cl
ENDBRANCH  14  15
ENDBRANCH  12  14
ENDBRANCH   1  12
TORSDOF 6
ENDMDL
MODEL 9
REMARK VINA RESULT:      -6.4      1.501      2.779
REMARK  Name = 
REMARK  6 active torsions:
REMARK  status: ('A' for Active; 'I' for Inactive)
REMARK    1  A    between atoms: C_2  and  O_3
REMARK    2  A    between atoms: C_2  and  C_4
REMARK    3  A    between atoms: C_7  and  C_8
REMARK    4  A    between atoms: C_8  and  N_9
REMARK    5  A    between atoms: N_9  and  C_10
REMARK    6  A    between atoms: C_10  and  C_11
REMARK                            x       y       z     vdW  Elec       q    Type
REMARK                         _______ _______ _______ _____ _____    ______ ____
ROOT
ATOM      1  C   UNL     1       5.515   5.808  18.067  0.00  0.00    +0.000 C 
ENDROOT
BRANCH   1   5
ATOM      2  C   UNL     1       6.332   4.295  14.089  0.00  0.00    +0.000 A 
ATOM      3  C   UNL     1       7.385   4.600  14.974  0.00  0.00    +0.000 A 
ATOM      4  C   UNL     1       7.122   5.075  16.259  0.00  0.00    +0.000 A 
ATOM      5  C   UNL     1       5.800   5.262  16.689  0.00  0.00    +0.000 A 
ATOM      6  C   UNL     1       4.744   4.957  15.817  0.00  0.00    +0.000 A 
ATOM      7  C   UNL     1       5.007   4.480  14.530  0.00  0.00    +0.000 A 
BRANCH   2   9
ATOM      8  O   UNL     1       7.351   4.465  11.978  0.00  0.00    +0.000 OA
ATOM      9  C   UNL     1       6.649   3.792  12.719  0.00  0.00    +0.000 C 
BRANCH   9  10
ATOM     10  O   UNL     1       6.177   2.614  12.248  0.00  0.00    +0.000 OA
ATOM     11  H   UNL     1       5.419   2.145  12.615  0.00  0.00    +0.000 HD
ENDBRANCH   9  10
ENDBRANCH   2   9
ENDBRANCH   1   5
BRANCH   1  12
ATOM     12  N   UNL     1       5.415   4.733  19.064  0.00  0.00    +0.000 NA
ATOM     13  H   UNL     1       5.033   5.112  19.963  0.00  0.00    +0.000 HD
BRANCH  12  14
ATOM     14  C   UNL     1       4.587   3.609  18.601  0.00  0.00    +0.000 C 
BRANCH  14  15
ATOM     15  C   UNL     1       3.398   3.442  19.522  0.00  0.00    +0.000 A 
ATOM     16  C   UNL     1       2.187   4.153  19.306  0.00  0.00    +0.000 A 
ATOM     17 CL   UNL     1       1.960   5.266  17.957  0.00  0.00    +0.000 Cl
ATOM     18  C   UNL     1       1.114   3.990  20.193  0.00  0.00    +0.000 A 
ATOM     19  C   UNL     1       1.224   3.134  21.285  0.00  0.00    +0.000 A 
ATOM     20  C   UNL     1       2.404   2.428  21.504  0.00  0.00    +0.000 A 
ATOM     21  C   UNL     1       3.488   2.572  20.634  0.00  0.00    +0.000 A 
ATOM     22 CL   UNL     1       4.946   1.641  20.972  0.00  0.00    +0.000 Cl
ENDBRANCH  14  15
ENDBRANCH  12  14
ENDBRANCH   1  12
TORSDOF 6
ENDMDL
