MODEL 1
REMARK VINA RESULT:      -9.3      0.000      0.000
REMARK  Name = 
REMARK  6 active torsions:
REMARK  status: ('A' for Active; 'I' for Inactive)
REMARK    1  A    between atoms: C_4  and  O_5
REMARK    2  A    between atoms: O_5  and  C_6
REMARK    3  A    between atoms: C_6  and  C_7
REMARK    4  A    between atoms: C_10  and  O_12
REMARK    5  A    between atoms: O_12  and  C_13
REMARK    6  A    between atoms: C_13  and  C_14
REMARK                            x       y       z     vdW  Elec       q    Type
REMARK                         _______ _______ _______ _____ _____    ______ ____
ROOT
ATOM      1  C   UNL     1      -0.245  10.895  21.816  0.00  0.00    +0.000 A 
ATOM      2  C   UNL     1      -0.031  10.854  20.458  0.00  0.00    +0.000 A 
ATOM      3  N   UNL     1       0.855   9.813  20.276  0.00  0.00    +0.000 N 
ATOM      4  C   UNL     1       1.288   9.244  19.071  0.00  0.00    +0.000 C 
ATOM      5  O   UNL     1       0.891   9.672  17.996  0.00  0.00    +0.000 OA
ATOM      6  N   UNL     1       1.253   9.339  21.484  0.00  0.00    +0.000 NA
ATOM      7  N   UNL     1       0.571   9.977  22.423  0.00  0.00    +0.000 NA
ENDROOT
BRANCH   1   8
ATOM      8  C   UNL     1      -1.163  11.735  22.623  0.00  0.00    +0.000 C 
BRANCH   8   9
ATOM      9  O   UNL     1      -2.471  11.798  22.042  0.00  0.00    +0.000 OA
BRANCH   9  13
ATOM     10  O   UNL     1      -6.835  12.593  21.693  0.00  0.00    +0.000 OA
ATOM     11  C   UNL     1      -5.760  12.790  22.265  0.00  0.00    +0.000 C 
ATOM     12  C   UNL     1      -4.476  12.980  21.476  0.00  0.00    +0.000 C 
ATOM     13  C   UNL     1      -3.191  13.017  22.333  0.00  0.00    +0.000 C 
ATOM     14  C   UNL     1      -3.451  13.166  23.854  0.00  0.00    +0.000 C 
ATOM     15  C   UNL     1      -4.024  14.508  24.250  0.00  0.00    +0.000 C 
ATOM     16  O   UNL     1      -5.420  14.406  23.969  0.00  0.00    +0.000 OA
ATOM     17  C   UNL     1      -5.655  13.006  23.770  0.00  0.00    +0.000 C 
ATOM     18  O   UNL     1      -4.513  12.282  24.227  0.00  0.00    +0.000 OA
ENDBRANCH   9  13
ENDBRANCH   8   9
ENDBRANCH   1   8
BRANCH   4  19
ATOM     19  O   UNL     1       2.111   8.188  19.298  0.00  0.00    +0.000 OA
BRANCH  19  20
ATOM     20  C   UNL     1       2.328   7.293  18.187  0.00  0.00    +0.000 C 
BRANCH  20  21
ATOM     21  C   UNL     1       3.252   6.119  18.526  0.00  0.00    +0.000 C 
ATOM     22  C   UNL     1       2.528   4.831  18.910  0.00  0.00    +0.000 A 
ATOM     23  C   UNL     1       1.527   4.643  19.849  0.00  0.00    +0.000 A 
ATOM     24  C   UNL     1       1.053   3.344  20.060  0.00  0.00    +0.000 A 
ATOM     25  C   UNL     1       1.586   2.262  19.338  0.00  0.00    +0.000 A 
ATOM     26  C   UNL     1       2.591   2.459  18.392  0.00  0.00    +0.000 A 
ATOM     27  C   UNL     1       3.053   3.747  18.176  0.00  0.00    +0.000 A 
ATOM     28  C   UNL     1       4.040   4.243  17.240  0.00  0.00    +0.000 A 
ATOM     29  C   UNL     1       4.819   3.566  16.315  0.00  0.00    +0.000 A 
ATOM     30  C   UNL     1       5.676   4.309  15.497  0.00  0.00    +0.000 A 
ATOM     31  C   UNL     1       5.734   5.708  15.599  0.00  0.00    +0.000 A 
ATOM     32  C   UNL     1       4.959   6.390  16.540  0.00  0.00    +0.000 A 
ATOM     33  C   UNL     1       4.124   5.647  17.365  0.00  0.00    +0.000 A 
ENDBRANCH  20  21
ENDBRANCH  19  20
ENDBRANCH   4  19
TORSDOF 6
ENDMDL
MODEL 2
REMARK VINA RESULT:      -9.3      1.228      3.173
REMARK  Name = 
REMARK  6 active torsions:
REMARK  status: ('A' for Active; 'I' for Inactive)
REMARK    1  A    between atoms: C_4  and  O_5
REMARK    2  A    between atoms: O_5  and  C_6
REMARK    3  A    between atoms: C_6  and  C_7
REMARK    4  A    between atoms: C_10  and  O_12
REMARK    5  A    between atoms: O_12  and  C_13
REMARK    6  A    between atoms: C_13  and  C_14
REMARK                            x       y       z     vdW  Elec       q    Type
REMARK                         _______ _______ _______ _____ _____    ______ ____
ROOT
ATOM      1  C   UNL     1      -0.723  11.575  19.793  0.00  0.00    +0.000 A 
ATOM      2  C   UNL     1      -0.357  10.561  20.647  0.00  0.00    +0.000 A 
ATOM      3  N   UNL     1       0.489   9.766  19.901  0.00  0.00    +0.000 N 
ATOM      4  C   UNL     1       1.265   8.682  20.333  0.00  0.00    +0.000 C 
ATOM      5  O   UNL     1       1.239   8.317  21.500  0.00  0.00    +0.000 OA
ATOM      6  N   UNL     1       0.522  10.215  18.621  0.00  0.00    +0.000 NA
ATOM      7  N   UNL     1      -0.195  11.327  18.554  0.00  0.00    +0.000 NA
ENDROOT
BRANCH   1   8
ATOM      8  C   UNL     1      -1.546  12.786  20.032  0.00  0.00    +0.000 C 
BRANCH   8   9
ATOM      9  O   UNL     1      -2.754  12.476  20.736  0.00  0.00    +0.000 OA
BRANCH   9  13
ATOM     10  O   UNL     1      -6.329  12.519  23.385  0.00  0.00    +0.000 OA
ATOM     11  C   UNL     1      -5.129  12.749  23.213  0.00  0.00    +0.000 C 
ATOM     12  C   UNL     1      -4.628  13.378  21.924  0.00  0.00    +0.000 C 
ATOM     13  C   UNL     1      -3.090  13.416  21.780  0.00  0.00    +0.000 C 
ATOM     14  C   UNL     1      -2.325  13.098  23.091  0.00  0.00    +0.000 C 
ATOM     15  C   UNL     1      -2.478  14.154  24.162  0.00  0.00    +0.000 C 
ATOM     16  O   UNL     1      -3.739  13.877  24.771  0.00  0.00    +0.000 OA
ATOM     17  C   UNL     1      -4.090  12.564  24.312  0.00  0.00    +0.000 C 
ATOM     18  O   UNL     1      -2.939  11.967  23.716  0.00  0.00    +0.000 OA
ENDBRANCH   9  13
ENDBRANCH   8   9
ENDBRANCH   1   8
BRANCH   4  19
ATOM     19  O   UNL     1       2.026   8.194  19.321  0.00  0.00    +0.000 OA
BRANCH  19  20
ATOM     20  C   UNL     1       2.601   6.885  19.524  0.00  0.00    +0.000 C 
BRANCH  20  21
ATOM     21  C   UNL     1       2.421   5.952  18.323  0.00  0.00    +0.000 C 
ATOM     22  C   UNL     1       3.673   5.763  17.471  0.00  0.00    +0.000 A 
ATOM     23  C   UNL     1       4.503   6.725  16.918  0.00  0.00    +0.000 A 
ATOM     24  C   UNL     1       5.572   6.300  16.124  0.00  0.00    +0.000 A 
ATOM     25  C   UNL     1       5.791   4.931  15.892  0.00  0.00    +0.000 A 
ATOM     26  C   UNL     1       4.956   3.968  16.454  0.00  0.00    +0.000 A 
ATOM     27  C   UNL     1       3.902   4.388  17.249  0.00  0.00    +0.000 A 
ATOM     28  C   UNL     1       2.919   3.621  17.984  0.00  0.00    +0.000 A 
ATOM     29  C   UNL     1       2.737   2.250  18.078  0.00  0.00    +0.000 A 
ATOM     30  C   UNL     1       1.717   1.768  18.904  0.00  0.00    +0.000 A 
ATOM     31  C   UNL     1       0.905   2.652  19.633  0.00  0.00    +0.000 A 
ATOM     32  C   UNL     1       1.078   4.035  19.528  0.00  0.00    +0.000 A 
ATOM     33  C   UNL     1       2.080   4.510  18.692  0.00  0.00    +0.000 A 
ENDBRANCH  20  21
ENDBRANCH  19  20
ENDBRANCH   4  19
TORSDOF 6
ENDMDL
MODEL 3
REMARK VINA RESULT:      -9.3      3.243     10.861
REMARK  Name = 
REMARK  6 active torsions:
REMARK  status: ('A' for Active; 'I' for Inactive)
REMARK    1  A    between atoms: C_4  and  O_5
REMARK    2  A    between atoms: O_5  and  C_6
REMARK    3  A    between atoms: C_6  and  C_7
REMARK    4  A    between atoms: C_10  and  O_12
REMARK    5  A    between atoms: O_12  and  C_13
REMARK    6  A    between atoms: C_13  and  C_14
REMARK                            x       y       z     vdW  Elec       q    Type
REMARK                         _______ _______ _______ _____ _____    ______ ____
ROOT
ATOM      1  C   UNL     1       2.656   6.538  19.195  0.00  0.00    +0.000 A 
ATOM      2  C   UNL     1       2.503   7.549  18.276  0.00  0.00    +0.000 A 
ATOM      3  N   UNL     1       1.884   8.565  18.975  0.00  0.00    +0.000 N 
ATOM      4  C   UNL     1       1.634   9.878  18.556  0.00  0.00    +0.000 C 
ATOM      5  O   UNL     1       1.959  10.254  17.438  0.00  0.00    +0.000 OA
ATOM      6  N   UNL     1       1.565   8.129  20.220  0.00  0.00    +0.000 NA
ATOM      7  N   UNL     1       2.052   6.906  20.367  0.00  0.00    +0.000 NA
ENDROOT
BRANCH   1   8
ATOM      8  C   UNL     1       3.331   5.222  19.077  0.00  0.00    +0.000 C 
BRANCH   8   9
ATOM      9  O   UNL     1       3.736   4.953  17.729  0.00  0.00    +0.000 OA
BRANCH   9  13
ATOM     10  O   UNL     1       5.970   3.855  14.041  0.00  0.00    +0.000 OA
ATOM     11  C   UNL     1       5.975   4.229  15.217  0.00  0.00    +0.000 C 
ATOM     12  C   UNL     1       5.043   3.606  16.242  0.00  0.00    +0.000 C 
ATOM     13  C   UNL     1       5.027   4.315  17.615  0.00  0.00    +0.000 C 
ATOM     14  C   UNL     1       6.178   5.335  17.812  0.00  0.00    +0.000 C 
ATOM     15  C   UNL     1       7.549   4.702  17.901  0.00  0.00    +0.000 C 
ATOM     16  O   UNL     1       7.928   4.460  16.546  0.00  0.00    +0.000 OA
ATOM     17  C   UNL     1       6.998   5.220  15.761  0.00  0.00    +0.000 C 
ATOM     18  O   UNL     1       6.303   6.121  16.623  0.00  0.00    +0.000 OA
ENDBRANCH   9  13
ENDBRANCH   8   9
ENDBRANCH   1   8
BRANCH   4  19
ATOM     19  O   UNL     1       1.067  10.608  19.551  0.00  0.00    +0.000 OA
BRANCH  19  20
ATOM     20  C   UNL     1       0.063  11.566  19.153  0.00  0.00    +0.000 C 
BRANCH  20  21
ATOM     21  C   UNL     1      -1.369  11.062  19.355  0.00  0.00    +0.000 C 
ATOM     22  C   UNL     1      -2.271  12.009  20.142  0.00  0.00    +0.000 A 
ATOM     23  C   UNL     1      -2.041  12.611  21.369  0.00  0.00    +0.000 A 
ATOM     24  C   UNL     1      -3.051  13.407  21.916  0.00  0.00    +0.000 A 
ATOM     25  C   UNL     1      -4.270  13.584  21.236  0.00  0.00    +0.000 A 
ATOM     26  C   UNL     1      -4.493  12.979  20.001  0.00  0.00    +0.000 A 
ATOM     27  C   UNL     1      -3.488  12.199  19.454  0.00  0.00    +0.000 A 
ATOM     28  C   UNL     1      -3.429  11.500  18.187  0.00  0.00    +0.000 A 
ATOM     29  C   UNL     1      -4.371  11.392  17.177  0.00  0.00    +0.000 A 
ATOM     30  C   UNL     1      -4.032  10.677  16.024  0.00  0.00    +0.000 A 
ATOM     31  C   UNL     1      -2.762  10.094  15.888  0.00  0.00    +0.000 A 
ATOM     32  C   UNL     1      -1.816  10.191  16.911  0.00  0.00    +0.000 A 
ATOM     33  C   UNL     1      -2.163  10.885  18.062  0.00  0.00    +0.000 A 
ENDBRANCH  20  21
ENDBRANCH  19  20
ENDBRANCH   4  19
TORSDOF 6
ENDMDL
MODEL 4
REMARK VINA RESULT:      -9.3      7.023      9.720
REMARK  Name = 
REMARK  6 active torsions:
REMARK  status: ('A' for Active; 'I' for Inactive)
REMARK    1  A    between atoms: C_4  and  O_5
REMARK    2  A    between atoms: O_5  and  C_6
REMARK    3  A    between atoms: C_6  and  C_7
REMARK    4  A    between atoms: C_10  and  O_12
REMARK    5  A    between atoms: O_12  and  C_13
REMARK    6  A    between atoms: C_13  and  C_14
REMARK                            x       y       z     vdW  Elec       q    Type
REMARK                         _______ _______ _______ _____ _____    ______ ____
ROOT
ATOM      1  C   UNL     1       8.149   7.859  18.220  0.00  0.00    +0.000 A 
ATOM      2  C   UNL     1       7.506   7.701  17.015  0.00  0.00    +0.000 A 
ATOM      3  N   UNL     1       7.010   6.414  17.050  0.00  0.00    +0.000 N 
ATOM      4  C   UNL     1       6.145   5.793  16.139  0.00  0.00    +0.000 C 
ATOM      5  O   UNL     1       5.740   6.389  15.151  0.00  0.00    +0.000 OA
ATOM      6  N   UNL     1       7.449   5.789  18.173  0.00  0.00    +0.000 NA
ATOM      7  N   UNL     1       8.123   6.669  18.898  0.00  0.00    +0.000 NA
ENDROOT
BRANCH   1   8
ATOM      8  C   UNL     1       8.805   9.049  18.815  0.00  0.00    +0.000 C 
BRANCH   8   9
ATOM      9  O   UNL     1       8.572  10.228  18.033  0.00  0.00    +0.000 OA
BRANCH   9  13
ATOM     10  O   UNL     1       8.137  14.614  18.637  0.00  0.00    +0.000 OA
ATOM     11  C   UNL     1       8.770  13.572  18.825  0.00  0.00    +0.000 C 
ATOM     12  C   UNL     1       8.973  12.566  17.704  0.00  0.00    +0.000 C 
ATOM     13  C   UNL     1       9.608  11.228  18.147  0.00  0.00    +0.000 C 
ATOM     14  C   UNL     1      10.209  11.256  19.575  0.00  0.00    +0.000 C 
ATOM     15  C   UNL     1      11.428  12.140  19.711  0.00  0.00    +0.000 C 
ATOM     16  O   UNL     1      10.907  13.462  19.849  0.00  0.00    +0.000 OA
ATOM     17  C   UNL     1       9.512  13.282  20.124  0.00  0.00    +0.000 C 
ATOM     18  O   UNL     1       9.284  11.911  20.449  0.00  0.00    +0.000 OA
ENDBRANCH   9  13
ENDBRANCH   8   9
ENDBRANCH   1   8
BRANCH   4  19
ATOM     19  O   UNL     1       5.823   4.540  16.550  0.00  0.00    +0.000 OA
BRANCH  19  20
ATOM     20  C   UNL     1       4.509   4.370  17.123  0.00  0.00    +0.000 C 
BRANCH  20  21
ATOM     21  C   UNL     1       4.360   5.021  18.501  0.00  0.00    +0.000 C 
ATOM     22  C   UNL     1       3.485   6.271  18.522  0.00  0.00    +0.000 A 
ATOM     23  C   UNL     1       3.558   7.398  17.718  0.00  0.00    +0.000 A 
ATOM     24  C   UNL     1       2.668   8.446  17.967  0.00  0.00    +0.000 A 
ATOM     25  C   UNL     1       1.729   8.357  19.009  0.00  0.00    +0.000 A 
ATOM     26  C   UNL     1       1.657   7.219  19.811  0.00  0.00    +0.000 A 
ATOM     27  C   UNL     1       2.533   6.176  19.559  0.00  0.00    +0.000 A 
ATOM     28  C   UNL     1       2.653   4.879  20.193  0.00  0.00    +0.000 A 
ATOM     29  C   UNL     1       1.944   4.327  21.248  0.00  0.00    +0.000 A 
ATOM     30  C   UNL     1       2.243   3.019  21.639  0.00  0.00    +0.000 A 
ATOM     31  C   UNL     1       3.229   2.277  20.969  0.00  0.00    +0.000 A 
ATOM     32  C   UNL     1       3.954   2.837  19.914  0.00  0.00    +0.000 A 
ATOM     33  C   UNL     1       3.667   4.143  19.541  0.00  0.00    +0.000 A 
ENDBRANCH  20  21
ENDBRANCH  19  20
ENDBRANCH   4  19
TORSDOF 6
ENDMDL
MODEL 5
REMARK VINA RESULT:      -9.2      0.917      1.636
REMARK  Name = 
REMARK  6 active torsions:
REMARK  status: ('A' for Active; 'I' for Inactive)
REMARK    1  A    between atoms: C_4  and  O_5
REMARK    2  A    between atoms: O_5  and  C_6
REMARK    3  A    between atoms: C_6  and  C_7
REMARK    4  A    between atoms: C_10  and  O_12
REMARK    5  A    between atoms: O_12  and  C_13
REMARK    6  A    between atoms: C_13  and  C_14
REMARK                            x       y       z     vdW  Elec       q    Type
REMARK                         _______ _______ _______ _____ _____    ______ ____
ROOT
ATOM      1  C   UNL     1      -0.438  11.157  22.202  0.00  0.00    +0.000 A 
ATOM      2  C   UNL     1      -0.265  11.104  20.839  0.00  0.00    +0.000 A 
ATOM      3  N   UNL     1       0.592  10.042  20.637  0.00  0.00    +0.000 N 
ATOM      4  C   UNL     1       0.977   9.457  19.423  0.00  0.00    +0.000 C 
ATOM      5  O   UNL     1       0.558   9.887  18.358  0.00  0.00    +0.000 OA
ATOM      6  N   UNL     1       1.014   9.566  21.836  0.00  0.00    +0.000 NA
ATOM      7  N   UNL     1       0.374  10.225  22.791  0.00  0.00    +0.000 NA
ENDROOT
BRANCH   1   8
ATOM      8  C   UNL     1      -1.313  12.023  23.030  0.00  0.00    +0.000 C 
BRANCH   8   9
ATOM      9  O   UNL     1      -2.654  12.057  22.526  0.00  0.00    +0.000 OA
BRANCH   9  13
ATOM     10  O   UNL     1      -2.957  16.290  23.860  0.00  0.00    +0.000 OA
ATOM     11  C   UNL     1      -3.505  15.223  23.573  0.00  0.00    +0.000 C 
ATOM     12  C   UNL     1      -2.927  13.896  24.035  0.00  0.00    +0.000 C 
ATOM     13  C   UNL     1      -3.612  12.649  23.430  0.00  0.00    +0.000 C 
ATOM     14  C   UNL     1      -4.952  12.951  22.711  0.00  0.00    +0.000 C 
ATOM     15  C   UNL     1      -6.062  13.388  23.641  0.00  0.00    +0.000 C 
ATOM     16  O   UNL     1      -5.816  14.775  23.875  0.00  0.00    +0.000 OA
ATOM     17  C   UNL     1      -4.859  15.154  22.876  0.00  0.00    +0.000 C 
ATOM     18  O   UNL     1      -4.784  14.117  21.899  0.00  0.00    +0.000 OA
ENDBRANCH   9  13
ENDBRANCH   8   9
ENDBRANCH   1   8
BRANCH   4  19
ATOM     19  O   UNL     1       1.782   8.383  19.633  0.00  0.00    +0.000 OA
BRANCH  19  20
ATOM     20  C   UNL     1       2.233   7.679  18.457  0.00  0.00    +0.000 C 
BRANCH  20  21
ATOM     21  C   UNL     1       3.147   6.493  18.774  0.00  0.00    +0.000 C 
ATOM     22  C   UNL     1       2.418   5.233  19.233  0.00  0.00    +0.000 A 
ATOM     23  C   UNL     1       1.467   5.092  20.232  0.00  0.00    +0.000 A 
ATOM     24  C   UNL     1       0.977   3.812  20.503  0.00  0.00    +0.000 A 
ATOM     25  C   UNL     1       1.444   2.699  19.781  0.00  0.00    +0.000 A 
ATOM     26  C   UNL     1       2.396   2.847  18.775  0.00  0.00    +0.000 A 
ATOM     27  C   UNL     1       2.875   4.118  18.499  0.00  0.00    +0.000 A 
ATOM     28  C   UNL     1       3.818   4.566  17.496  0.00  0.00    +0.000 A 
ATOM     29  C   UNL     1       4.528   3.848  16.547  0.00  0.00    +0.000 A 
ATOM     30  C   UNL     1       5.353   4.548  15.662  0.00  0.00    +0.000 A 
ATOM     31  C   UNL     1       5.448   5.948  15.724  0.00  0.00    +0.000 A 
ATOM     32  C   UNL     1       4.744   6.671  16.689  0.00  0.00    +0.000 A 
ATOM     33  C   UNL     1       3.941   5.971  17.579  0.00  0.00    +0.000 A 
ENDBRANCH  20  21
ENDBRANCH  19  20
ENDBRANCH   4  19
TORSDOF 6
ENDMDL
MODEL 6
REMARK VINA RESULT:      -9.2      1.254      1.588
REMARK  Name = 
REMARK  6 active torsions:
REMARK  status: ('A' for Active; 'I' for Inactive)
REMARK    1  A    between atoms: C_4  and  O_5
REMARK    2  A    between atoms: O_5  and  C_6
REMARK    3  A    between atoms: C_6  and  C_7
REMARK    4  A    between atoms: C_10  and  O_12
REMARK    5  A    between atoms: O_12  and  C_13
REMARK    6  A    between atoms: C_13  and  C_14
REMARK                            x       y       z     vdW  Elec       q    Type
REMARK                         _______ _______ _______ _____ _____    ______ ____
ROOT
ATOM      1  C   UNL     1      -0.497  10.933  22.264  0.00  0.00    +0.000 A 
ATOM      2  C   UNL     1      -0.289  10.936  20.905  0.00  0.00    +0.000 A 
ATOM      3  N   UNL     1       0.622   9.923  20.689  0.00  0.00    +0.000 N 
ATOM      4  C   UNL     1       1.063   9.400  19.466  0.00  0.00    +0.000 C 
ATOM      5  O   UNL     1       0.650   9.848  18.405  0.00  0.00    +0.000 OA
ATOM      6  N   UNL     1       1.037   9.425  21.881  0.00  0.00    +0.000 NA
ATOM      7  N   UNL     1       0.344  10.019  22.841  0.00  0.00    +0.000 NA
ENDROOT
BRANCH   1   8
ATOM      8  C   UNL     1      -1.431  11.727  23.099  0.00  0.00    +0.000 C 
BRANCH   8   9
ATOM      9  O   UNL     1      -0.872  12.995  23.461  0.00  0.00    +0.000 OA
BRANCH   9  13
ATOM     10  O   UNL     1      -5.240  13.666  23.976  0.00  0.00    +0.000 OA
ATOM     11  C   UNL     1      -4.094  14.118  23.913  0.00  0.00    +0.000 C 
ATOM     12  C   UNL     1      -3.109  13.615  22.872  0.00  0.00    +0.000 C 
ATOM     13  C   UNL     1      -1.663  14.131  23.048  0.00  0.00    +0.000 C 
ATOM     14  C   UNL     1      -1.530  15.304  24.054  0.00  0.00    +0.000 C 
ATOM     15  C   UNL     1      -2.173  16.590  23.585  0.00  0.00    +0.000 C 
ATOM     16  O   UNL     1      -3.562  16.431  23.876  0.00  0.00    +0.000 OA
ATOM     17  C   UNL     1      -3.627  15.300  24.755  0.00  0.00    +0.000 C 
ATOM     18  O   UNL     1      -2.309  15.003  25.216  0.00  0.00    +0.000 OA
ENDBRANCH   9  13
ENDBRANCH   8   9
ENDBRANCH   1   8
BRANCH   4  19
ATOM     19  O   UNL     1       1.913   8.358  19.660  0.00  0.00    +0.000 OA
BRANCH  19  20
ATOM     20  C   UNL     1       2.238   7.570  18.495  0.00  0.00    +0.000 C 
BRANCH  20  21
ATOM     21  C   UNL     1       3.170   6.394  18.801  0.00  0.00    +0.000 C 
ATOM     22  C   UNL     1       2.461   5.124  19.263  0.00  0.00    +0.000 A 
ATOM     23  C   UNL     1       1.522   4.970  20.271  0.00  0.00    +0.000 A 
ATOM     24  C   UNL     1       1.050   3.683  20.544  0.00  0.00    +0.000 A 
ATOM     25  C   UNL     1       1.523   2.577  19.815  0.00  0.00    +0.000 A 
ATOM     26  C   UNL     1       2.464   2.739  18.800  0.00  0.00    +0.000 A 
ATOM     27  C   UNL     1       2.924   4.016  18.522  0.00  0.00    +0.000 A 
ATOM     28  C   UNL     1       3.851   4.478  17.511  0.00  0.00    +0.000 A 
ATOM     29  C   UNL     1       4.560   3.771  16.553  0.00  0.00    +0.000 A 
ATOM     30  C   UNL     1       5.368   4.484  15.662  0.00  0.00    +0.000 A 
ATOM     31  C   UNL     1       5.447   5.884  15.726  0.00  0.00    +0.000 A 
ATOM     32  C   UNL     1       4.744   6.597  16.700  0.00  0.00    +0.000 A 
ATOM     33  C   UNL     1       3.958   5.884  17.596  0.00  0.00    +0.000 A 
ENDBRANCH  20  21
ENDBRANCH  19  20
ENDBRANCH   4  19
TORSDOF 6
ENDMDL
MODEL 7
REMARK VINA RESULT:      -9.2      7.204     10.227
REMARK  Name = 
REMARK  6 active torsions:
REMARK  status: ('A' for Active; 'I' for Inactive)
REMARK    1  A    between atoms: C_4  and  O_5
REMARK    2  A    between atoms: O_5  and  C_6
REMARK    3  A    between atoms: C_6  and  C_7
REMARK    4  A    between atoms: C_10  and  O_12
REMARK    5  A    between atoms: O_12  and  C_13
REMARK    6  A    between atoms: C_13  and  C_14
REMARK                            x       y       z     vdW  Elec       q    Type
REMARK                         _______ _______ _______ _____ _____    ______ ____
ROOT
ATOM      1  C   UNL     1       8.225   8.515  18.302  0.00  0.00    +0.000 A 
ATOM      2  C   UNL     1       8.255   7.180  18.632  0.00  0.00    +0.000 A 
ATOM      3  N   UNL     1       7.326   6.595  17.796  0.00  0.00    +0.000 N 
ATOM      4  C   UNL     1       7.067   5.230  17.609  0.00  0.00    +0.000 C 
ATOM      5  O   UNL     1       7.686   4.382  18.236  0.00  0.00    +0.000 OA
ATOM      6  N   UNL     1       6.679   7.558  17.091  0.00  0.00    +0.000 NA
ATOM      7  N   UNL     1       7.237   8.725  17.378  0.00  0.00    +0.000 NA
ENDROOT
BRANCH   1   8
ATOM      8  C   UNL     1       9.055   9.646  18.784  0.00  0.00    +0.000 C 
BRANCH   8   9
ATOM      9  O   UNL     1       9.012  10.758  17.881  0.00  0.00    +0.000 OA
BRANCH   9  13
ATOM     10  O   UNL     1       9.492  15.166  18.253  0.00  0.00    +0.000 OA
ATOM     11  C   UNL     1       9.927  14.028  18.448  0.00  0.00    +0.000 C 
ATOM     12  C   UNL     1       9.823  12.955  17.377  0.00  0.00    +0.000 C 
ATOM     13  C   UNL     1      10.228  11.538  17.843  0.00  0.00    +0.000 C 
ATOM     14  C   UNL     1      10.959  11.507  19.210  0.00  0.00    +0.000 C 
ATOM     15  C   UNL     1      12.333  12.138  19.184  0.00  0.00    +0.000 C 
ATOM     16  O   UNL     1      12.093  13.541  19.287  0.00  0.00    +0.000 OA
ATOM     17  C   UNL     1      10.722  13.652  19.693  0.00  0.00    +0.000 C 
ATOM     18  O   UNL     1      10.267  12.368  20.119  0.00  0.00    +0.000 OA
ENDBRANCH   9  13
ENDBRANCH   8   9
ENDBRANCH   1   8
BRANCH   4  19
ATOM     19  O   UNL     1       6.127   5.040  16.648  0.00  0.00    +0.000 OA
BRANCH  19  20
ATOM     20  C   UNL     1       4.806   4.682  17.105  0.00  0.00    +0.000 C 
BRANCH  20  21
ATOM     21  C   UNL     1       4.446   5.296  18.461  0.00  0.00    +0.000 C 
ATOM     22  C   UNL     1       3.524   6.509  18.385  0.00  0.00    +0.000 A 
ATOM     23  C   UNL     1       3.655   7.656  17.617  0.00  0.00    +0.000 A 
ATOM     24  C   UNL     1       2.696   8.662  17.761  0.00  0.00    +0.000 A 
ATOM     25  C   UNL     1       1.631   8.511  18.666  0.00  0.00    +0.000 A 
ATOM     26  C   UNL     1       1.502   7.355  19.433  0.00  0.00    +0.000 A 
ATOM     27  C   UNL     1       2.447   6.352  19.283  0.00  0.00    +0.000 A 
ATOM     28  C   UNL     1       2.536   5.049  19.905  0.00  0.00    +0.000 A 
ATOM     29  C   UNL     1       1.717   4.445  20.847  0.00  0.00    +0.000 A 
ATOM     30  C   UNL     1       2.017   3.142  21.252  0.00  0.00    +0.000 A 
ATOM     31  C   UNL     1       3.114   2.454  20.709  0.00  0.00    +0.000 A 
ATOM     32  C   UNL     1       3.949   3.066  19.770  0.00  0.00    +0.000 A 
ATOM     33  C   UNL     1       3.659   4.368  19.384  0.00  0.00    +0.000 A 
ENDBRANCH  20  21
ENDBRANCH  19  20
ENDBRANCH   4  19
TORSDOF 6
ENDMDL
MODEL 8
REMARK VINA RESULT:      -9.2      1.310      3.305
REMARK  Name = 
REMARK  6 active torsions:
REMARK  status: ('A' for Active; 'I' for Inactive)
REMARK    1  A    between atoms: C_4  and  O_5
REMARK    2  A    between atoms: O_5  and  C_6
REMARK    3  A    between atoms: C_6  and  C_7
REMARK    4  A    between atoms: C_10  and  O_12
REMARK    5  A    between atoms: O_12  and  C_13
REMARK    6  A    between atoms: C_13  and  C_14
REMARK                            x       y       z     vdW  Elec       q    Type
REMARK                         _______ _______ _______ _____ _____    ______ ____
ROOT
ATOM      1  C   UNL     1       0.478  12.061  20.983  0.00  0.00    +0.000 A 
ATOM      2  C   UNL     1       0.461  10.789  21.505  0.00  0.00    +0.000 A 
ATOM      3  N   UNL     1       0.938   9.989  20.488  0.00  0.00    +0.000 N 
ATOM      4  C   UNL     1       1.267   8.627  20.538  0.00  0.00    +0.000 C 
ATOM      5  O   UNL     1       1.133   7.986  21.571  0.00  0.00    +0.000 OA
ATOM      6  N   UNL     1       1.107  10.733  19.366  0.00  0.00    +0.000 NA
ATOM      7  N   UNL     1       0.851  11.998  19.667  0.00  0.00    +0.000 NA
ENDROOT
BRANCH   1   8
ATOM      8  C   UNL     1       0.167  13.367  21.615  0.00  0.00    +0.000 C 
BRANCH   8   9
ATOM      9  O   UNL     1      -0.762  13.225  22.696  0.00  0.00    +0.000 OA
BRANCH   9  13
ATOM     10  O   UNL     1      -4.434  11.851  24.800  0.00  0.00    +0.000 OA
ATOM     11  C   UNL     1      -3.858  12.690  24.103  0.00  0.00    +0.000 C 
ATOM     12  C   UNL     1      -2.942  12.270  22.967  0.00  0.00    +0.000 C 
ATOM     13  C   UNL     1      -2.143  13.424  22.321  0.00  0.00    +0.000 C 
ATOM     14  C   UNL     1      -2.637  14.837  22.726  0.00  0.00    +0.000 C 
ATOM     15  C   UNL     1      -4.008  15.184  22.190  0.00  0.00    +0.000 C 
ATOM     16  O   UNL     1      -4.921  14.553  23.088  0.00  0.00    +0.000 OA
ATOM     17  C   UNL     1      -4.128  14.186  24.224  0.00  0.00    +0.000 C 
ATOM     18  O   UNL     1      -2.870  14.855  24.138  0.00  0.00    +0.000 OA
ENDBRANCH   9  13
ENDBRANCH   8   9
ENDBRANCH   1   8
BRANCH   4  19
ATOM     19  O   UNL     1       1.772   8.204  19.350  0.00  0.00    +0.000 OA
BRANCH  19  20
ATOM     20  C   UNL     1       2.682   7.085  19.402  0.00  0.00    +0.000 C 
BRANCH  20  21
ATOM     21  C   UNL     1       2.440   6.055  18.295  0.00  0.00    +0.000 C 
ATOM     22  C   UNL     1       3.652   5.777  17.409  0.00  0.00    +0.000 A 
ATOM     23  C   UNL     1       4.466   6.678  16.741  0.00  0.00    +0.000 A 
ATOM     24  C   UNL     1       5.495   6.172  15.941  0.00  0.00    +0.000 A 
ATOM     25  C   UNL     1       5.689   4.784  15.818  0.00  0.00    +0.000 A 
ATOM     26  C   UNL     1       4.869   3.884  16.495  0.00  0.00    +0.000 A 
ATOM     27  C   UNL     1       3.856   4.385  17.296  0.00  0.00    +0.000 A 
ATOM     28  C   UNL     1       2.898   3.697  18.136  0.00  0.00    +0.000 A 
ATOM     29  C   UNL     1       2.707   2.342  18.354  0.00  0.00    +0.000 A 
ATOM     30  C   UNL     1       1.719   1.947  19.261  0.00  0.00    +0.000 A 
ATOM     31  C   UNL     1       0.949   2.901  19.946  0.00  0.00    +0.000 A 
ATOM     32  C   UNL     1       1.131   4.267  19.716  0.00  0.00    +0.000 A 
ATOM     33  C   UNL     1       2.100   4.655  18.800  0.00  0.00    +0.000 A 
ENDBRANCH  20  21
ENDBRANCH  19  20
ENDBRANCH   4  19
TORSDOF 6
ENDMDL
MODEL 9
REMARK VINA RESULT:      -9.1      1.117      3.038
REMARK  Name = 
REMARK  6 active torsions:
REMARK  status: ('A' for Active; 'I' for Inactive)
REMARK    1  A    between atoms: C_4  and  O_5
REMARK    2  A    between atoms: O_5  and  C_6
REMARK    3  A    between atoms: C_6  and  C_7
REMARK    4  A    between atoms: C_10  and  O_12
REMARK    5  A    between atoms: O_12  and  C_13
REMARK    6  A    between atoms: C_13  and  C_14
REMARK                            x       y       z     vdW  Elec       q    Type
REMARK                         _______ _______ _______ _____ _____    ______ ____
ROOT
ATOM      1  C   UNL     1       0.325  12.008  20.544  0.00  0.00    +0.000 A 
ATOM      2  C   UNL     1       0.815  11.402  19.410  0.00  0.00    +0.000 A 
ATOM      3  N   UNL     1       1.119  10.116  19.807  0.00  0.00    +0.000 N 
ATOM      4  C   UNL     1       1.509   9.032  19.009  0.00  0.00    +0.000 C 
ATOM      5  O   UNL     1       1.633   9.156  17.798  0.00  0.00    +0.000 OA
ATOM      6  N   UNL     1       0.941  10.001  21.148  0.00  0.00    +0.000 NA
ATOM      7  N   UNL     1       0.437  11.140  21.597  0.00  0.00    +0.000 NA
ENDROOT
BRANCH   1   8
ATOM      8  C   UNL     1      -0.252  13.361  20.741  0.00  0.00    +0.000 C 
BRANCH   8   9
ATOM      9  O   UNL     1      -1.678  13.353  20.602  0.00  0.00    +0.000 OA
BRANCH   9  13
ATOM     10  O   UNL     1      -5.626  12.336  22.383  0.00  0.00    +0.000 OA
ATOM     11  C   UNL     1      -4.484  12.783  22.513  0.00  0.00    +0.000 C 
ATOM     12  C   UNL     1      -3.882  13.709  21.470  0.00  0.00    +0.000 C 
ATOM     13  C   UNL     1      -2.381  14.021  21.673  0.00  0.00    +0.000 C 
ATOM     14  C   UNL     1      -1.830  13.596  23.058  0.00  0.00    +0.000 C 
ATOM     15  C   UNL     1      -2.386  14.400  24.212  0.00  0.00    +0.000 C 
ATOM     16  O   UNL     1      -3.660  13.817  24.483  0.00  0.00    +0.000 OA
ATOM     17  C   UNL     1      -3.655  12.571  23.774  0.00  0.00    +0.000 C 
ATOM     18  O   UNL     1      -2.318  12.285  23.363  0.00  0.00    +0.000 OA
ENDBRANCH   9  13
ENDBRANCH   8   9
ENDBRANCH   1   8
BRANCH   4  19
ATOM     19  O   UNL     1       1.653   7.906  19.753  0.00  0.00    +0.000 OA
BRANCH  19  20
ATOM     20  C   UNL     1       2.787   7.070  19.439  0.00  0.00    +0.000 C 
BRANCH  20  21
ATOM     21  C   UNL     1       2.500   6.050  18.334  0.00  0.00    +0.000 C 
ATOM     22  C   UNL     1       3.685   5.753  17.419  0.00  0.00    +0.000 A 
ATOM     23  C   UNL     1       4.500   6.642  16.735  0.00  0.00    +0.000 A 
ATOM     24  C   UNL     1       5.500   6.120  15.909  0.00  0.00    +0.000 A 
ATOM     25  C   UNL     1       5.666   4.730  15.775  0.00  0.00    +0.000 A 
ATOM     26  C   UNL     1       4.846   3.842  16.469  0.00  0.00    +0.000 A 
ATOM     27  C   UNL     1       3.861   4.359  17.295  0.00  0.00    +0.000 A 
ATOM     28  C   UNL     1       2.911   3.684  18.155  0.00  0.00    +0.000 A 
ATOM     29  C   UNL     1       2.700   2.332  18.372  0.00  0.00    +0.000 A 
ATOM     30  C   UNL     1       1.727   1.951  19.301  0.00  0.00    +0.000 A 
ATOM     31  C   UNL     1       0.991   2.916  20.007  0.00  0.00    +0.000 A 
ATOM     32  C   UNL     1       1.193   4.279  19.778  0.00  0.00    +0.000 A 
ATOM     33  C   UNL     1       2.146   4.653  18.841  0.00  0.00    +0.000 A 
ENDBRANCH  20  21
ENDBRANCH  19  20
ENDBRANCH   4  19
TORSDOF 6
ENDMDL
