MODEL 1
REMARK VINA RESULT:      -8.1      0.000      0.000
REMARK  Name = 
REMARK  8 active torsions:
REMARK  status: ('A' for Active; 'I' for Inactive)
REMARK    1  A    between atoms: C_2  and  O_3
REMARK    2  A    between atoms: C_2  and  C_4
REMARK    3  A    between atoms: N_7  and  C_8
REMARK    4  A    between atoms: C_11  and  S_12
REMARK    5  A    between atoms: S_12  and  N_15
REMARK    6  A    between atoms: C_18  and  C_19
REMARK    7  A    between atoms: C_19  and  O_21
REMARK    8  A    between atoms: C_25  and  N_26
REMARK                            x       y       z     vdW  Elec       q    Type
REMARK                         _______ _______ _______ _____ _____    ______ ____
ROOT
ATOM      1  C   UNL     1       0.956   9.740  19.652  0.00  0.00    +0.000 A 
ATOM      2  C   UNL     1       1.430   9.347  18.384  0.00  0.00    +0.000 A 
ATOM      3  C   UNL     1       2.082   8.127  18.158  0.00  0.00    +0.000 A 
ATOM      4  C   UNL     1       2.276   7.237  19.211  0.00  0.00    +0.000 A 
ATOM      5  C   UNL     1       1.741   7.525  20.465  0.00  0.00    +0.000 A 
ATOM      6  C   UNL     1       1.105   8.771  20.669  0.00  0.00    +0.000 A 
ENDROOT
BRANCH   1  10
ATOM      7  C   UNL     1      -0.352  13.603  20.817  0.00  0.00    +0.000 C 
ATOM      8  C   UNL     1       1.121  13.210  20.675  0.00  0.00    +0.000 C 
ATOM      9  C   UNL     1       1.352  12.175  19.578  0.00  0.00    +0.000 C 
ATOM     10  N   UNL     1       0.470  11.029  19.839  0.00  0.00    +0.000 N 
ATOM     11  C   UNL     1      -0.958  11.352  19.751  0.00  0.00    +0.000 C 
ATOM     12  C   UNL     1      -1.292  12.389  20.835  0.00  0.00    +0.000 C 
BRANCH   7  14
ATOM     13  O   UNL     1      -0.062  14.909  18.785  0.00  0.00    +0.000 OA
ATOM     14  C   UNL     1      -0.762  14.578  19.729  0.00  0.00    +0.000 C 
BRANCH  14  15
ATOM     15  O   UNL     1      -2.017  15.056  19.892  0.00  0.00    +0.000 OA
ATOM     16  H   UNL     1      -2.624  14.852  19.156  0.00  0.00    +0.000 HD
ENDBRANCH  14  15
ENDBRANCH   7  14
ENDBRANCH   1  10
BRANCH   4  17
ATOM     17  S   UNL     1       3.140   5.700  18.917  0.00  0.00    +0.000 S 
ATOM     18  O   UNL     1       3.077   4.938  20.143  0.00  0.00    +0.000 OA
ATOM     19  O   UNL     1       2.638   5.162  17.671  0.00  0.00    +0.000 OA
BRANCH  17  20
ATOM     20  N   UNL     1       4.778   6.179  18.665  0.00  0.00    +0.000 NA
ATOM     21  C   UNL     1       5.787   5.212  19.169  0.00  0.00    +0.000 C 
ATOM     22  C   UNL     1       7.212   5.741  19.022  0.00  0.00    +0.000 C 
ATOM     23  C   UNL     1       7.513   6.274  17.621  0.00  0.00    +0.000 C 
ATOM     24  C   UNL     1       6.472   7.322  17.244  0.00  0.00    +0.000 C 
ATOM     25  C   UNL     1       5.051   6.772  17.334  0.00  0.00    +0.000 C 
BRANCH  23  26
ATOM     26  C   UNL     1       7.564   5.166  16.581  0.00  0.00    +0.000 C 
ATOM     27  O   UNL     1       7.288   5.300  15.399  0.00  0.00    +0.000 OA
BRANCH  26  28
ATOM     28  O   UNL     1       7.997   3.984  17.081  0.00  0.00    +0.000 OA
ATOM     29  H   UNL     1       8.936   3.973  17.350  0.00  0.00    +0.000 HD
ENDBRANCH  26  28
ENDBRANCH  23  26
ENDBRANCH  17  20
ENDBRANCH   4  17
BRANCH   6  30
ATOM     30  N   UNL     1       0.677   9.038  22.031  0.00  0.00    +0.000 N 
ATOM     31  O   UNL     1      -0.507   8.819  22.324  0.00  0.00    +0.000 OA
ATOM     32  O   UNL     1       1.524   9.523  22.796  0.00  0.00    +0.000 OA
ENDBRANCH   6  30
TORSDOF 8
ENDMDL
MODEL 2
REMARK VINA RESULT:      -8.0      0.712      1.388
REMARK  Name = 
REMARK  8 active torsions:
REMARK  status: ('A' for Active; 'I' for Inactive)
REMARK    1  A    between atoms: C_2  and  O_3
REMARK    2  A    between atoms: C_2  and  C_4
REMARK    3  A    between atoms: N_7  and  C_8
REMARK    4  A    between atoms: C_11  and  S_12
REMARK    5  A    between atoms: S_12  and  N_15
REMARK    6  A    between atoms: C_18  and  C_19
REMARK    7  A    between atoms: C_19  and  O_21
REMARK    8  A    between atoms: C_25  and  N_26
REMARK                            x       y       z     vdW  Elec       q    Type
REMARK                         _______ _______ _______ _____ _____    ______ ____
ROOT
ATOM      1  C   UNL     1       0.940   9.694  19.474  0.00  0.00    +0.000 A 
ATOM      2  C   UNL     1       1.410   9.238  18.226  0.00  0.00    +0.000 A 
ATOM      3  C   UNL     1       2.083   8.020  18.063  0.00  0.00    +0.000 A 
ATOM      4  C   UNL     1       2.305   7.195  19.162  0.00  0.00    +0.000 A 
ATOM      5  C   UNL     1       1.777   7.544  20.404  0.00  0.00    +0.000 A 
ATOM      6  C   UNL     1       1.118   8.787  20.543  0.00  0.00    +0.000 A 
ENDROOT
BRANCH   1  10
ATOM      7  C   UNL     1      -0.549  13.657  19.218  0.00  0.00    +0.000 C 
ATOM      8  C   UNL     1      -1.322  12.425  18.740  0.00  0.00    +0.000 C 
ATOM      9  C   UNL     1      -1.025  11.183  19.575  0.00  0.00    +0.000 C 
ATOM     10  N   UNL     1       0.430  10.982  19.593  0.00  0.00    +0.000 N 
ATOM     11  C   UNL     1       1.167  12.062  20.257  0.00  0.00    +0.000 C 
ATOM     12  C   UNL     1       0.936  13.363  19.475  0.00  0.00    +0.000 C 
BRANCH   7  14
ATOM     13  O   UNL     1      -2.340  14.050  20.816  0.00  0.00    +0.000 OA
ATOM     14  C   UNL     1      -1.195  14.260  20.451  0.00  0.00    +0.000 C 
BRANCH  14  15
ATOM     15  O   UNL     1      -0.360  15.067  21.145  0.00  0.00    +0.000 OA
ATOM     16  H   UNL     1       0.556  15.086  20.807  0.00  0.00    +0.000 HD
ENDBRANCH  14  15
ENDBRANCH   7  14
ENDBRANCH   1  10
BRANCH   4  17
ATOM     17  S   UNL     1       3.196   5.661  18.946  0.00  0.00    +0.000 S 
ATOM     18  O   UNL     1       3.134   4.955  20.206  0.00  0.00    +0.000 OA
ATOM     19  O   UNL     1       2.714   5.058  17.722  0.00  0.00    +0.000 OA
BRANCH  17  20
ATOM     20  N   UNL     1       4.828   6.154  18.687  0.00  0.00    +0.000 NA
ATOM     21  C   UNL     1       5.849   5.191  19.174  0.00  0.00    +0.000 C 
ATOM     22  C   UNL     1       7.268   5.733  19.021  0.00  0.00    +0.000 C 
ATOM     23  C   UNL     1       7.554   6.280  17.622  0.00  0.00    +0.000 C 
ATOM     24  C   UNL     1       6.503   7.323  17.263  0.00  0.00    +0.000 C 
ATOM     25  C   UNL     1       5.087   6.761  17.359  0.00  0.00    +0.000 C 
BRANCH  23  26
ATOM     26  C   UNL     1       7.606   5.181  16.572  0.00  0.00    +0.000 C 
ATOM     27  O   UNL     1       7.357   5.332  15.387  0.00  0.00    +0.000 OA
BRANCH  26  28
ATOM     28  O   UNL     1       8.007   3.986  17.070  0.00  0.00    +0.000 OA
ATOM     29  H   UNL     1       7.567   3.210  16.672  0.00  0.00    +0.000 HD
ENDBRANCH  26  28
ENDBRANCH  23  26
ENDBRANCH  17  20
ENDBRANCH   4  17
BRANCH   6  30
ATOM     30  N   UNL     1       0.698   9.123  21.892  0.00  0.00    +0.000 N 
ATOM     31  O   UNL     1       1.546   9.581  22.671  0.00  0.00    +0.000 OA
ATOM     32  O   UNL     1      -0.481   8.873  22.188  0.00  0.00    +0.000 OA
ENDBRANCH   6  30
TORSDOF 8
ENDMDL
MODEL 3
REMARK VINA RESULT:      -7.9      1.263      2.045
REMARK  Name = 
REMARK  8 active torsions:
REMARK  status: ('A' for Active; 'I' for Inactive)
REMARK    1  A    between atoms: C_2  and  O_3
REMARK    2  A    between atoms: C_2  and  C_4
REMARK    3  A    between atoms: N_7  and  C_8
REMARK    4  A    between atoms: C_11  and  S_12
REMARK    5  A    between atoms: S_12  and  N_15
REMARK    6  A    between atoms: C_18  and  C_19
REMARK    7  A    between atoms: C_19  and  O_21
REMARK    8  A    between atoms: C_25  and  N_26
REMARK                            x       y       z     vdW  Elec       q    Type
REMARK                         _______ _______ _______ _____ _____    ______ ____
ROOT
ATOM      1  C   UNL     1       1.054   9.584  19.248  0.00  0.00    +0.000 A 
ATOM      2  C   UNL     1       1.526   9.019  18.046  0.00  0.00    +0.000 A 
ATOM      3  C   UNL     1       2.156   7.769  17.986  0.00  0.00    +0.000 A 
ATOM      4  C   UNL     1       2.330   7.022  19.148  0.00  0.00    +0.000 A 
ATOM      5  C   UNL     1       1.796   7.482  20.350  0.00  0.00    +0.000 A 
ATOM      6  C   UNL     1       1.182   8.754  20.385  0.00  0.00    +0.000 A 
ENDROOT
BRANCH   1  10
ATOM      7  C   UNL     1      -0.312  13.557  18.667  0.00  0.00    +0.000 C 
ATOM      8  C   UNL     1      -1.141  12.314  18.332  0.00  0.00    +0.000 C 
ATOM      9  C   UNL     1      -0.856  11.146  19.271  0.00  0.00    +0.000 C 
ATOM     10  N   UNL     1       0.591  10.895  19.261  0.00  0.00    +0.000 N 
ATOM     11  C   UNL     1       1.385  12.005  19.797  0.00  0.00    +0.000 C 
ATOM     12  C   UNL     1       1.171  13.236  18.904  0.00  0.00    +0.000 C 
BRANCH   7  14
ATOM     13  O   UNL     1      -0.249  14.941  20.667  0.00  0.00    +0.000 OA
ATOM     14  C   UNL     1      -0.895  14.295  19.858  0.00  0.00    +0.000 C 
BRANCH  14  15
ATOM     15  O   UNL     1      -2.240  14.183  19.943  0.00  0.00    +0.000 OA
ATOM     16  H   UNL     1      -2.733  14.910  19.517  0.00  0.00    +0.000 HD
ENDBRANCH  14  15
ENDBRANCH   7  14
ENDBRANCH   1  10
BRANCH   4  17
ATOM     17  S   UNL     1       3.166   5.444  19.063  0.00  0.00    +0.000 S 
ATOM     18  O   UNL     1       4.225   5.473  20.046  0.00  0.00    +0.000 OA
ATOM     19  O   UNL     1       2.144   4.420  19.089  0.00  0.00    +0.000 OA
BRANCH  17  20
ATOM     20  N   UNL     1       3.888   5.433  17.496  0.00  0.00    +0.000 NA
ATOM     21  C   UNL     1       4.588   6.692  17.131  0.00  0.00    +0.000 C 
ATOM     22  C   UNL     1       5.105   6.664  15.695  0.00  0.00    +0.000 C 
ATOM     23  C   UNL     1       5.898   5.399  15.367  0.00  0.00    +0.000 C 
ATOM     24  C   UNL     1       5.053   4.173  15.694  0.00  0.00    +0.000 C 
ATOM     25  C   UNL     1       4.587   4.174  17.147  0.00  0.00    +0.000 C 
BRANCH  23  26
ATOM     26  C   UNL     1       7.230   5.347  16.099  0.00  0.00    +0.000 C 
ATOM     27  O   UNL     1       7.804   4.325  16.438  0.00  0.00    +0.000 OA
BRANCH  26  28
ATOM     28  O   UNL     1       7.769   6.571  16.315  0.00  0.00    +0.000 OA
ATOM     29  H   UNL     1       7.929   6.787  17.254  0.00  0.00    +0.000 HD
ENDBRANCH  26  28
ENDBRANCH  23  26
ENDBRANCH  17  20
ENDBRANCH   4  17
BRANCH   6  30
ATOM     30  N   UNL     1       0.754   9.206  21.697  0.00  0.00    +0.000 N 
ATOM     31  O   UNL     1       1.606   9.693  22.454  0.00  0.00    +0.000 OA
ATOM     32  O   UNL     1      -0.437   9.018  21.990  0.00  0.00    +0.000 OA
ENDBRANCH   6  30
TORSDOF 8
ENDMDL
MODEL 4
REMARK VINA RESULT:      -7.8      0.779      1.152
REMARK  Name = 
REMARK  8 active torsions:
REMARK  status: ('A' for Active; 'I' for Inactive)
REMARK    1  A    between atoms: C_2  and  O_3
REMARK    2  A    between atoms: C_2  and  C_4
REMARK    3  A    between atoms: N_7  and  C_8
REMARK    4  A    between atoms: C_11  and  S_12
REMARK    5  A    between atoms: S_12  and  N_15
REMARK    6  A    between atoms: C_18  and  C_19
REMARK    7  A    between atoms: C_19  and  O_21
REMARK    8  A    between atoms: C_25  and  N_26
REMARK                            x       y       z     vdW  Elec       q    Type
REMARK                         _______ _______ _______ _____ _____    ______ ____
ROOT
ATOM      1  C   UNL     1       1.047   9.839  19.556  0.00  0.00    +0.000 A 
ATOM      2  C   UNL     1       1.508   9.430  18.288  0.00  0.00    +0.000 A 
ATOM      3  C   UNL     1       2.100   8.181  18.058  0.00  0.00    +0.000 A 
ATOM      4  C   UNL     1       2.245   7.277  19.106  0.00  0.00    +0.000 A 
ATOM      5  C   UNL     1       1.718   7.583  20.359  0.00  0.00    +0.000 A 
ATOM      6  C   UNL     1       1.144   8.857  20.568  0.00  0.00    +0.000 A 
ENDROOT
BRANCH   1  10
ATOM      7  C   UNL     1       0.001  13.782  20.716  0.00  0.00    +0.000 C 
ATOM      8  C   UNL     1       1.434  13.336  20.411  0.00  0.00    +0.000 C 
ATOM      9  C   UNL     1       1.499  12.255  19.337  0.00  0.00    +0.000 C 
ATOM     10  N   UNL     1       0.624  11.149  19.749  0.00  0.00    +0.000 N 
ATOM     11  C   UNL     1      -0.794  11.515  19.824  0.00  0.00    +0.000 C 
ATOM     12  C   UNL     1      -0.963  12.601  20.897  0.00  0.00    +0.000 C 
BRANCH   7  14
ATOM     13  O   UNL     1       0.173  15.240  18.776  0.00  0.00    +0.000 OA
ATOM     14  C   UNL     1      -0.512  14.730  19.648  0.00  0.00    +0.000 C 
BRANCH  14  15
ATOM     15  O   UNL     1      -1.842  14.958  19.738  0.00  0.00    +0.000 OA
ATOM     16  H   UNL     1      -2.302  14.407  20.399  0.00  0.00    +0.000 HD
ENDBRANCH  14  15
ENDBRANCH   7  14
ENDBRANCH   1  10
BRANCH   4  17
ATOM     17  S   UNL     1       3.033   5.701  18.806  0.00  0.00    +0.000 S 
ATOM     18  O   UNL     1       3.571   5.249  20.069  0.00  0.00    +0.000 OA
ATOM     19  O   UNL     1       2.096   4.892  18.057  0.00  0.00    +0.000 OA
BRANCH  17  20
ATOM     20  N   UNL     1       4.354   6.082  17.764  0.00  0.00    +0.000 NA
ATOM     21  C   UNL     1       5.659   6.244  18.457  0.00  0.00    +0.000 C 
ATOM     22  C   UNL     1       6.763   6.692  17.502  0.00  0.00    +0.000 C 
ATOM     23  C   UNL     1       6.839   5.844  16.232  0.00  0.00    +0.000 C 
ATOM     24  C   UNL     1       5.474   5.822  15.556  0.00  0.00    +0.000 C 
ATOM     25  C   UNL     1       4.381   5.316  16.495  0.00  0.00    +0.000 C 
BRANCH  23  26
ATOM     26  C   UNL     1       7.327   4.431  16.511  0.00  0.00    +0.000 C 
ATOM     27  O   UNL     1       8.204   4.137  17.308  0.00  0.00    +0.000 OA
BRANCH  26  28
ATOM     28  O   UNL     1       6.658   3.486  15.808  0.00  0.00    +0.000 OA
ATOM     29  H   UNL     1       7.161   2.665  15.645  0.00  0.00    +0.000 HD
ENDBRANCH  26  28
ENDBRANCH  23  26
ENDBRANCH  17  20
ENDBRANCH   4  17
BRANCH   6  30
ATOM     30  N   UNL     1       0.722   9.137  21.930  0.00  0.00    +0.000 N 
ATOM     31  O   UNL     1       1.551   9.630  22.708  0.00  0.00    +0.000 OA
ATOM     32  O   UNL     1      -0.434   8.807  22.234  0.00  0.00    +0.000 OA
ENDBRANCH   6  30
TORSDOF 8
ENDMDL
MODEL 5
REMARK VINA RESULT:      -7.7      1.110      1.559
REMARK  Name = 
REMARK  8 active torsions:
REMARK  status: ('A' for Active; 'I' for Inactive)
REMARK    1  A    between atoms: C_2  and  O_3
REMARK    2  A    between atoms: C_2  and  C_4
REMARK    3  A    between atoms: N_7  and  C_8
REMARK    4  A    between atoms: C_11  and  S_12
REMARK    5  A    between atoms: S_12  and  N_15
REMARK    6  A    between atoms: C_18  and  C_19
REMARK    7  A    between atoms: C_19  and  O_21
REMARK    8  A    between atoms: C_25  and  N_26
REMARK                            x       y       z     vdW  Elec       q    Type
REMARK                         _______ _______ _______ _____ _____    ______ ____
ROOT
ATOM      1  C   UNL     1       1.143   9.541  19.567  0.00  0.00    +0.000 A 
ATOM      2  C   UNL     1       1.574   9.057  18.315  0.00  0.00    +0.000 A 
ATOM      3  C   UNL     1       2.125   7.781  18.139  0.00  0.00    +0.000 A 
ATOM      4  C   UNL     1       2.257   6.924  19.228  0.00  0.00    +0.000 A 
ATOM      5  C   UNL     1       1.756   7.307  20.471  0.00  0.00    +0.000 A 
ATOM      6  C   UNL     1       1.223   8.607  20.624  0.00  0.00    +0.000 A 
ENDROOT
BRANCH   1  10
ATOM      7  C   UNL     1       0.280  13.583  20.523  0.00  0.00    +0.000 C 
ATOM      8  C   UNL     1       1.669  13.082  20.117  0.00  0.00    +0.000 C 
ATOM      9  C   UNL     1       1.611  11.923  19.125  0.00  0.00    +0.000 C 
ATOM     10  N   UNL     1       0.762  10.872  19.701  0.00  0.00    +0.000 N 
ATOM     11  C   UNL     1      -0.636  11.275  19.884  0.00  0.00    +0.000 C 
ATOM     12  C   UNL     1      -0.681  12.441  20.884  0.00  0.00    +0.000 C 
BRANCH   7  14
ATOM     13  O   UNL     1       0.317  15.030  18.569  0.00  0.00    +0.000 OA
ATOM     14  C   UNL     1      -0.319  14.461  19.441  0.00  0.00    +0.000 C 
BRANCH  14  15
ATOM     15  O   UNL     1      -1.666  14.552  19.519  0.00  0.00    +0.000 OA
ATOM     16  H   UNL     1      -2.144  13.778  19.166  0.00  0.00    +0.000 HD
ENDBRANCH  14  15
ENDBRANCH   7  14
ENDBRANCH   1  10
BRANCH   4  17
ATOM     17  S   UNL     1       2.993   5.312  18.996  0.00  0.00    +0.000 S 
ATOM     18  O   UNL     1       4.010   5.161  20.012  0.00  0.00    +0.000 OA
ATOM     19  O   UNL     1       1.907   4.363  18.873  0.00  0.00    +0.000 OA
BRANCH  17  20
ATOM     20  N   UNL     1       3.776   5.424  17.463  0.00  0.00    +0.000 NA
ATOM     21  C   UNL     1       4.500   6.700  17.232  0.00  0.00    +0.000 C 
ATOM     22  C   UNL     1       5.074   6.786  15.819  0.00  0.00    +0.000 C 
ATOM     23  C   UNL     1       5.870   5.543  15.418  0.00  0.00    +0.000 C 
ATOM     24  C   UNL     1       5.002   4.305  15.608  0.00  0.00    +0.000 C 
ATOM     25  C   UNL     1       4.479   4.190  17.038  0.00  0.00    +0.000 C 
BRANCH  23  26
ATOM     26  C   UNL     1       7.171   5.416  16.195  0.00  0.00    +0.000 C 
ATOM     27  O   UNL     1       7.739   4.365  16.443  0.00  0.00    +0.000 OA
BRANCH  26  28
ATOM     28  O   UNL     1       7.690   6.611  16.566  0.00  0.00    +0.000 OA
ATOM     29  H   UNL     1       7.032   7.265  16.872  0.00  0.00    +0.000 HD
ENDBRANCH  26  28
ENDBRANCH  23  26
ENDBRANCH  17  20
ENDBRANCH   4  17
BRANCH   6  30
ATOM     30  N   UNL     1       0.829   8.965  21.976  0.00  0.00    +0.000 N 
ATOM     31  O   UNL     1      -0.356   8.800  22.301  0.00  0.00    +0.000 OA
ATOM     32  O   UNL     1       1.704   9.468  22.697  0.00  0.00    +0.000 OA
ENDBRANCH   6  30
TORSDOF 8
ENDMDL
MODEL 6
REMARK VINA RESULT:      -7.7      2.353      3.953
REMARK  Name = 
REMARK  8 active torsions:
REMARK  status: ('A' for Active; 'I' for Inactive)
REMARK    1  A    between atoms: C_2  and  O_3
REMARK    2  A    between atoms: C_2  and  C_4
REMARK    3  A    between atoms: N_7  and  C_8
REMARK    4  A    between atoms: C_11  and  S_12
REMARK    5  A    between atoms: S_12  and  N_15
REMARK    6  A    between atoms: C_18  and  C_19
REMARK    7  A    between atoms: C_19  and  O_21
REMARK    8  A    between atoms: C_25  and  N_26
REMARK                            x       y       z     vdW  Elec       q    Type
REMARK                         _______ _______ _______ _____ _____    ______ ____
ROOT
ATOM      1  C   UNL     1       1.315   9.235  18.895  0.00  0.00    +0.000 A 
ATOM      2  C   UNL     1       1.959   9.021  17.659  0.00  0.00    +0.000 A 
ATOM      3  C   UNL     1       2.878   7.984  17.447  0.00  0.00    +0.000 A 
ATOM      4  C   UNL     1       3.183   7.103  18.481  0.00  0.00    +0.000 A 
ATOM      5  C   UNL     1       2.504   7.202  19.694  0.00  0.00    +0.000 A 
ATOM      6  C   UNL     1       1.597   8.268  19.887  0.00  0.00    +0.000 A 
ENDROOT
BRANCH   1  10
ATOM      7  C   UNL     1      -0.924  12.837  18.874  0.00  0.00    +0.000 C 
ATOM      8  C   UNL     1      -1.387  11.543  18.199  0.00  0.00    +0.000 C 
ATOM      9  C   UNL     1      -0.914  10.292  18.935  0.00  0.00    +0.000 C 
ATOM     10  N   UNL     1       0.545  10.376  19.086  0.00  0.00    +0.000 N 
ATOM     11  C   UNL     1       0.988  11.493  19.927  0.00  0.00    +0.000 C 
ATOM     12  C   UNL     1       0.563  12.808  19.257  0.00  0.00    +0.000 C 
BRANCH   7  14
ATOM     13  O   UNL     1      -1.356  13.544  21.161  0.00  0.00    +0.000 OA
ATOM     14  C   UNL     1      -1.780  13.154  20.086  0.00  0.00    +0.000 C 
BRANCH  14  15
ATOM     15  O   UNL     1      -3.102  12.974  19.861  0.00  0.00    +0.000 OA
ATOM     16  H   UNL     1      -3.567  12.479  20.562  0.00  0.00    +0.000 HD
ENDBRANCH  14  15
ENDBRANCH   7  14
ENDBRANCH   1  10
BRANCH   4  17
ATOM     17  S   UNL     1       4.382   5.807  18.207  0.00  0.00    +0.000 S 
ATOM     18  O   UNL     1       4.810   5.909  16.830  0.00  0.00    +0.000 OA
ATOM     19  O   UNL     1       5.333   5.871  19.296  0.00  0.00    +0.000 OA
BRANCH  17  20
ATOM     20  N   UNL     1       3.475   4.349  18.381  0.00  0.00    +0.000 NA
ATOM     21  C   UNL     1       3.964   3.443  19.451  0.00  0.00    +0.000 C 
ATOM     22  C   UNL     1       3.195   2.123  19.481  0.00  0.00    +0.000 C 
ATOM     23  C   UNL     1       1.678   2.313  19.477  0.00  0.00    +0.000 C 
ATOM     24  C   UNL     1       1.280   3.180  18.288  0.00  0.00    +0.000 C 
ATOM     25  C   UNL     1       2.005   4.523  18.295  0.00  0.00    +0.000 C 
BRANCH  23  26
ATOM     26  C   UNL     1       1.168   2.912  20.778  0.00  0.00    +0.000 C 
ATOM     27  O   UNL     1       1.485   2.535  21.895  0.00  0.00    +0.000 OA
BRANCH  26  28
ATOM     28  O   UNL     1       0.335   3.963  20.591  0.00  0.00    +0.000 OA
ATOM     29  H   UNL     1       0.252   4.259  19.664  0.00  0.00    +0.000 HD
ENDBRANCH  26  28
ENDBRANCH  23  26
ENDBRANCH  17  20
ENDBRANCH   4  17
BRANCH   6  30
ATOM     30  N   UNL     1       1.019   8.363  21.216  0.00  0.00    +0.000 N 
ATOM     31  O   UNL     1      -0.143   7.963  21.377  0.00  0.00    +0.000 OA
ATOM     32  O   UNL     1       1.718   8.896  22.091  0.00  0.00    +0.000 OA
ENDBRANCH   6  30
TORSDOF 8
ENDMDL
MODEL 7
REMARK VINA RESULT:      -7.5      2.576      3.889
REMARK  Name = 
REMARK  8 active torsions:
REMARK  status: ('A' for Active; 'I' for Inactive)
REMARK    1  A    between atoms: C_2  and  O_3
REMARK    2  A    between atoms: C_2  and  C_4
REMARK    3  A    between atoms: N_7  and  C_8
REMARK    4  A    between atoms: C_11  and  S_12
REMARK    5  A    between atoms: S_12  and  N_15
REMARK    6  A    between atoms: C_18  and  C_19
REMARK    7  A    between atoms: C_19  and  O_21
REMARK    8  A    between atoms: C_25  and  N_26
REMARK                            x       y       z     vdW  Elec       q    Type
REMARK                         _______ _______ _______ _____ _____    ______ ____
ROOT
ATOM      1  C   UNL     1       1.968   8.523  18.544  0.00  0.00    +0.000 A 
ATOM      2  C   UNL     1       2.789   8.347  17.412  0.00  0.00    +0.000 A 
ATOM      3  C   UNL     1       3.793   7.372  17.343  0.00  0.00    +0.000 A 
ATOM      4  C   UNL     1       4.009   6.518  18.420  0.00  0.00    +0.000 A 
ATOM      5  C   UNL     1       3.164   6.576  19.526  0.00  0.00    +0.000 A 
ATOM      6  C   UNL     1       2.171   7.581  19.578  0.00  0.00    +0.000 A 
ENDROOT
BRANCH   1  10
ATOM      7  C   UNL     1      -0.733  11.693  19.349  0.00  0.00    +0.000 C 
ATOM      8  C   UNL     1       0.714  11.659  19.849  0.00  0.00    +0.000 C 
ATOM      9  C   UNL     1       1.655  10.947  18.883  0.00  0.00    +0.000 C 
ATOM     10  N   UNL     1       1.106   9.612  18.611  0.00  0.00    +0.000 N 
ATOM     11  C   UNL     1      -0.188   9.635  17.921  0.00  0.00    +0.000 C 
ATOM     12  C   UNL     1      -1.214  10.330  18.829  0.00  0.00    +0.000 C 
BRANCH   7  14
ATOM     13  O   UNL     1      -0.433  13.881  18.331  0.00  0.00    +0.000 OA
ATOM     14  C   UNL     1      -0.917  12.762  18.289  0.00  0.00    +0.000 C 
BRANCH  14  15
ATOM     15  O   UNL     1      -1.679  12.351  17.249  0.00  0.00    +0.000 OA
ATOM     16  H   UNL     1      -1.457  11.462  16.914  0.00  0.00    +0.000 HD
ENDBRANCH  14  15
ENDBRANCH   7  14
ENDBRANCH   1  10
BRANCH   4  17
ATOM     17  S   UNL     1       5.317   5.303  18.332  0.00  0.00    +0.000 S 
ATOM     18  O   UNL     1       5.983   5.489  17.063  0.00  0.00    +0.000 OA
ATOM     19  O   UNL     1       6.045   5.371  19.580  0.00  0.00    +0.000 OA
BRANCH  17  20
ATOM     20  N   UNL     1       4.485   3.792  18.286  0.00  0.00    +0.000 NA
ATOM     21  C   UNL     1       4.397   3.096  19.596  0.00  0.00    +0.000 C 
ATOM     22  C   UNL     1       3.754   1.717  19.471  0.00  0.00    +0.000 C 
ATOM     23  C   UNL     1       2.438   1.736  18.691  0.00  0.00    +0.000 C 
ATOM     24  C   UNL     1       2.666   2.387  17.332  0.00  0.00    +0.000 C 
ATOM     25  C   UNL     1       3.253   3.789  17.462  0.00  0.00    +0.000 C 
BRANCH  23  26
ATOM     26  C   UNL     1       1.328   2.446  19.451  0.00  0.00    +0.000 C 
ATOM     27  O   UNL     1       1.456   2.979  20.542  0.00  0.00    +0.000 OA
BRANCH  26  28
ATOM     28  O   UNL     1       0.154   2.476  18.776  0.00  0.00    +0.000 OA
ATOM     29  H   UNL     1       0.083   1.825  18.052  0.00  0.00    +0.000 HD
ENDBRANCH  26  28
ENDBRANCH  23  26
ENDBRANCH  17  20
ENDBRANCH   4  17
BRANCH   6  30
ATOM     30  N   UNL     1       1.409   7.644  20.813  0.00  0.00    +0.000 N 
ATOM     31  O   UNL     1       0.604   6.732  21.049  0.00  0.00    +0.000 OA
ATOM     32  O   UNL     1       1.582   8.645  21.524  0.00  0.00    +0.000 OA
ENDBRANCH   6  30
TORSDOF 8
ENDMDL
MODEL 8
REMARK VINA RESULT:      -7.5      2.258      3.801
REMARK  Name = 
REMARK  8 active torsions:
REMARK  status: ('A' for Active; 'I' for Inactive)
REMARK    1  A    between atoms: C_2  and  O_3
REMARK    2  A    between atoms: C_2  and  C_4
REMARK    3  A    between atoms: N_7  and  C_8
REMARK    4  A    between atoms: C_11  and  S_12
REMARK    5  A    between atoms: S_12  and  N_15
REMARK    6  A    between atoms: C_18  and  C_19
REMARK    7  A    between atoms: C_19  and  O_21
REMARK    8  A    between atoms: C_25  and  N_26
REMARK                            x       y       z     vdW  Elec       q    Type
REMARK                         _______ _______ _______ _____ _____    ______ ____
ROOT
ATOM      1  C   UNL     1       1.293   9.219  18.995  0.00  0.00    +0.000 A 
ATOM      2  C   UNL     1       1.899   9.055  17.733  0.00  0.00    +0.000 A 
ATOM      3  C   UNL     1       2.806   8.025  17.451  0.00  0.00    +0.000 A 
ATOM      4  C   UNL     1       3.138   7.101  18.437  0.00  0.00    +0.000 A 
ATOM      5  C   UNL     1       2.496   7.151  19.673  0.00  0.00    +0.000 A 
ATOM      6  C   UNL     1       1.600   8.211  19.937  0.00  0.00    +0.000 A 
ENDROOT
BRANCH   1  10
ATOM      7  C   UNL     1      -1.199  12.389  20.311  0.00  0.00    +0.000 C 
ATOM      8  C   UNL     1       0.146  12.040  20.955  0.00  0.00    +0.000 C 
ATOM      9  C   UNL     1       1.155  11.490  19.951  0.00  0.00    +0.000 C 
ATOM     10  N   UNL     1       0.534  10.355  19.256  0.00  0.00    +0.000 N 
ATOM     11  C   UNL     1      -0.632  10.724  18.447  0.00  0.00    +0.000 C 
ATOM     12  C   UNL     1      -1.717  11.283  19.380  0.00  0.00    +0.000 C 
BRANCH   7  14
ATOM     13  O   UNL     1      -0.336  13.971  18.677  0.00  0.00    +0.000 OA
ATOM     14  C   UNL     1      -1.121  13.713  19.574  0.00  0.00    +0.000 C 
BRANCH  14  15
ATOM     15  O   UNL     1      -2.038  14.611  20.002  0.00  0.00    +0.000 OA
ATOM     16  H   UNL     1      -2.636  14.277  20.698  0.00  0.00    +0.000 HD
ENDBRANCH  14  15
ENDBRANCH   7  14
ENDBRANCH   1  10
BRANCH   4  17
ATOM     17  S   UNL     1       4.323   5.813  18.074  0.00  0.00    +0.000 S 
ATOM     18  O   UNL     1       4.649   5.921  16.671  0.00  0.00    +0.000 OA
ATOM     19  O   UNL     1       5.351   5.882  19.091  0.00  0.00    +0.000 OA
BRANCH  17  20
ATOM     20  N   UNL     1       3.441   4.350  18.311  0.00  0.00    +0.000 NA
ATOM     21  C   UNL     1       3.959   3.487  19.404  0.00  0.00    +0.000 C 
ATOM     22  C   UNL     1       3.211   2.159  19.490  0.00  0.00    +0.000 C 
ATOM     23  C   UNL     1       1.691   2.325  19.503  0.00  0.00    +0.000 C 
ATOM     24  C   UNL     1       1.263   3.145  18.292  0.00  0.00    +0.000 C 
ATOM     25  C   UNL     1       1.968   4.498  18.241  0.00  0.00    +0.000 C 
BRANCH  23  26
ATOM     26  C   UNL     1       1.192   2.961  20.790  0.00  0.00    +0.000 C 
ATOM     27  O   UNL     1       1.492   2.595  21.915  0.00  0.00    +0.000 OA
BRANCH  26  28
ATOM     28  O   UNL     1       0.389   4.032  20.580  0.00  0.00    +0.000 OA
ATOM     29  H   UNL     1       0.464   4.431  19.693  0.00  0.00    +0.000 HD
ENDBRANCH  26  28
ENDBRANCH  23  26
ENDBRANCH  17  20
ENDBRANCH   4  17
BRANCH   6  30
ATOM     30  N   UNL     1       1.062   8.254  21.285  0.00  0.00    +0.000 N 
ATOM     31  O   UNL     1       1.755   8.769  22.174  0.00  0.00    +0.000 OA
ATOM     32  O   UNL     1      -0.041   7.715  21.462  0.00  0.00    +0.000 OA
ENDBRANCH   6  30
TORSDOF 8
ENDMDL
MODEL 9
REMARK VINA RESULT:      -7.4      2.349      3.946
REMARK  Name = 
REMARK  8 active torsions:
REMARK  status: ('A' for Active; 'I' for Inactive)
REMARK    1  A    between atoms: C_2  and  O_3
REMARK    2  A    between atoms: C_2  and  C_4
REMARK    3  A    between atoms: N_7  and  C_8
REMARK    4  A    between atoms: C_11  and  S_12
REMARK    5  A    between atoms: S_12  and  N_15
REMARK    6  A    between atoms: C_18  and  C_19
REMARK    7  A    between atoms: C_19  and  O_21
REMARK    8  A    between atoms: C_25  and  N_26
REMARK                            x       y       z     vdW  Elec       q    Type
REMARK                         _______ _______ _______ _____ _____    ______ ____
ROOT
ATOM      1  C   UNL     1       1.135   9.482  19.068  0.00  0.00    +0.000 A 
ATOM      2  C   UNL     1       1.728   9.206  17.818  0.00  0.00    +0.000 A 
ATOM      3  C   UNL     1       2.569   8.107  17.600  0.00  0.00    +0.000 A 
ATOM      4  C   UNL     1       2.845   7.224  18.640  0.00  0.00    +0.000 A 
ATOM      5  C   UNL     1       2.210   7.387  19.869  0.00  0.00    +0.000 A 
ATOM      6  C   UNL     1       1.381   8.514  20.068  0.00  0.00    +0.000 A 
ENDROOT
BRANCH   1  10
ATOM      7  C   UNL     1      -0.864  13.223  19.043  0.00  0.00    +0.000 C 
ATOM      8  C   UNL     1      -1.432  11.950  18.409  0.00  0.00    +0.000 C 
ATOM      9  C   UNL     1      -1.017  10.685  19.155  0.00  0.00    +0.000 C 
ATOM     10  N   UNL     1       0.448  10.675  19.259  0.00  0.00    +0.000 N 
ATOM     11  C   UNL     1       0.990  11.775  20.063  0.00  0.00    +0.000 C 
ATOM     12  C   UNL     1       0.630  13.103  19.380  0.00  0.00    +0.000 C 
BRANCH   7  14
ATOM     13  O   UNL     1      -2.792  13.247  20.525  0.00  0.00    +0.000 OA
ATOM     14  C   UNL     1      -1.657  13.617  20.275  0.00  0.00    +0.000 C 
BRANCH  14  15
ATOM     15  O   UNL     1      -0.970  14.433  21.107  0.00  0.00    +0.000 OA
ATOM     16  H   UNL     1      -1.489  14.766  21.864  0.00  0.00    +0.000 HD
ENDBRANCH  14  15
ENDBRANCH   7  14
ENDBRANCH   1  10
BRANCH   4  17
ATOM     17  S   UNL     1       3.948   5.846  18.356  0.00  0.00    +0.000 S 
ATOM     18  O   UNL     1       4.303   5.870  16.955  0.00  0.00    +0.000 OA
ATOM     19  O   UNL     1       4.961   5.893  19.389  0.00  0.00    +0.000 OA
BRANCH  17  20
ATOM     20  N   UNL     1       2.967   4.456  18.639  0.00  0.00    +0.000 NA
ATOM     21  C   UNL     1       3.726   3.221  18.962  0.00  0.00    +0.000 C 
ATOM     22  C   UNL     1       2.813   2.003  19.088  0.00  0.00    +0.000 C 
ATOM     23  C   UNL     1       1.611   2.245  20.001  0.00  0.00    +0.000 C 
ATOM     24  C   UNL     1       0.855   3.480  19.524  0.00  0.00    +0.000 C 
ATOM     25  C   UNL     1       1.757   4.710  19.456  0.00  0.00    +0.000 C 
BRANCH  23  26
ATOM     26  C   UNL     1       2.015   2.390  21.460  0.00  0.00    +0.000 C 
ATOM     27  O   UNL     1       1.252   2.649  22.376  0.00  0.00    +0.000 OA
BRANCH  26  28
ATOM     28  O   UNL     1       3.333   2.158  21.675  0.00  0.00    +0.000 OA
ATOM     29  H   UNL     1       3.538   1.277  22.042  0.00  0.00    +0.000 HD
ENDBRANCH  26  28
ENDBRANCH  23  26
ENDBRANCH  17  20
ENDBRANCH   4  17
BRANCH   6  30
ATOM     30  N   UNL     1       0.848   8.669  21.410  0.00  0.00    +0.000 N 
ATOM     31  O   UNL     1       1.605   9.100  22.292  0.00  0.00    +0.000 OA
ATOM     32  O   UNL     1      -0.323   8.303  21.591  0.00  0.00    +0.000 OA
ENDBRANCH   6  30
TORSDOF 8
ENDMDL
