MODEL 1
REMARK VINA RESULT:      -7.7      0.000      0.000
REMARK  Name = 
REMARK  9 active torsions:
REMARK  status: ('A' for Active; 'I' for Inactive)
REMARK    1  A    between atoms: S_2  and  C_4
REMARK    2  A    between atoms: S_2  and  C_12
REMARK    3  A    between atoms: C_4  and  C_5
REMARK    4  A    between atoms: C_12  and  C_13
REMARK    5  A    between atoms: C_13  and  O_14
REMARK    6  A    between atoms: C_13  and  C_15
REMARK    7  A    between atoms: C_15  and  O_16
REMARK    8  A    between atoms: O_16  and  C_17
REMARK    9  A    between atoms: C_17  and  C_18
REMARK                            x       y       z     vdW  Elec       q    Type
REMARK                         _______ _______ _______ _____ _____    ______ ____
ROOT
ATOM      1  C   UNL     1       7.140   5.924  17.056  0.00  0.00    +0.000 C 
ENDROOT
BRANCH   1   3
ATOM      2  O   UNL     1       5.364   6.432  15.236  0.00  0.00    +0.000 OA
ATOM      3  S   UNL     1       5.426   5.874  16.576  0.00  0.00    +0.000 S 
ATOM      4  O   UNL     1       4.633   6.453  17.643  0.00  0.00    +0.000 OA
BRANCH   3   5
ATOM      5  C   UNL     1       5.086   4.118  16.518  0.00  0.00    +0.000 C 
BRANCH   5   6
ATOM      6  C   UNL     1       4.071   3.795  17.586  0.00  0.00    +0.000 A 
ATOM      7  C   UNL     1       2.701   3.965  17.330  0.00  0.00    +0.000 A 
ATOM      8  C   UNL     1       1.760   3.742  18.336  0.00  0.00    +0.000 A 
ATOM      9  C   UNL     1       2.181   3.346  19.603  0.00  0.00    +0.000 A 
ATOM     10 CL   UNL     1       1.020   3.096  20.848  0.00  0.00    +0.000 Cl
ATOM     11  C   UNL     1       3.536   3.164  19.871  0.00  0.00    +0.000 A 
ATOM     12  C   UNL     1       4.479   3.385  18.865  0.00  0.00    +0.000 A 
ENDBRANCH   5   6
ENDBRANCH   3   5
ENDBRANCH   1   3
BRANCH   1  13
ATOM     13  C   UNL     1       7.439   6.994  18.105  0.00  0.00    +0.000 C 
BRANCH  13  14
ATOM     14  O   UNL     1       8.367   6.558  19.094  0.00  0.00    +0.000 OA
ATOM     15  H   UNL     1       8.218   7.070  19.916  0.00  0.00    +0.000 HD
ENDBRANCH  13  14
BRANCH  13  16
ATOM     16  C   UNL     1       7.841   8.356  17.525  0.00  0.00    +0.000 C 
BRANCH  16  17
ATOM     17  O   UNL     1       8.459   9.190  18.504  0.00  0.00    +0.000 OA
BRANCH  17  18
ATOM     18  C   UNL     1       8.536  10.560  18.111  0.00  0.00    +0.000 C 
BRANCH  18  19
ATOM     19  C   UNL     1       9.806  11.182  18.627  0.00  0.00    +0.000 A 
ATOM     20  C   UNL     1       9.992  11.338  20.009  0.00  0.00    +0.000 A 
ATOM     21  C   UNL     1      11.168  11.893  20.509  0.00  0.00    +0.000 A 
ATOM     22  C   UNL     1      12.180  12.285  19.633  0.00  0.00    +0.000 A 
ATOM     23  C   UNL     1      12.013  12.120  18.260  0.00  0.00    +0.000 A 
ATOM     24  C   UNL     1      10.836  11.566  17.759  0.00  0.00    +0.000 A 
ENDBRANCH  18  19
ENDBRANCH  17  18
ENDBRANCH  16  17
ENDBRANCH  13  16
ENDBRANCH   1  13
TORSDOF 9
ENDMDL
MODEL 2
REMARK VINA RESULT:      -7.6      1.550      2.051
REMARK  Name = 
REMARK  9 active torsions:
REMARK  status: ('A' for Active; 'I' for Inactive)
REMARK    1  A    between atoms: S_2  and  C_4
REMARK    2  A    between atoms: S_2  and  C_12
REMARK    3  A    between atoms: C_4  and  C_5
REMARK    4  A    between atoms: C_12  and  C_13
REMARK    5  A    between atoms: C_13  and  O_14
REMARK    6  A    between atoms: C_13  and  C_15
REMARK    7  A    between atoms: C_15  and  O_16
REMARK    8  A    between atoms: O_16  and  C_17
REMARK    9  A    between atoms: C_17  and  C_18
REMARK                            x       y       z     vdW  Elec       q    Type
REMARK                         _______ _______ _______ _____ _____    ______ ____
ROOT
ATOM      1  C   UNL     1       6.348   6.517  17.540  0.00  0.00    +0.000 C 
ENDROOT
BRANCH   1   3
ATOM      2  O   UNL     1       6.386   4.258  18.815  0.00  0.00    +0.000 OA
ATOM      3  S   UNL     1       6.646   4.762  17.477  0.00  0.00    +0.000 S 
ATOM      4  O   UNL     1       7.934   4.537  16.851  0.00  0.00    +0.000 OA
BRANCH   3   5
ATOM      5  C   UNL     1       5.373   4.189  16.356  0.00  0.00    +0.000 C 
BRANCH   5   6
ATOM      6  C   UNL     1       4.150   3.835  17.165  0.00  0.00    +0.000 A 
ATOM      7  C   UNL     1       3.855   2.491  17.443  0.00  0.00    +0.000 A 
ATOM      8  C   UNL     1       2.687   2.150  18.124  0.00  0.00    +0.000 A 
ATOM      9  C   UNL     1       1.807   3.148  18.534  0.00  0.00    +0.000 A 
ATOM     10 CL   UNL     1       0.355   2.723  19.352  0.00  0.00    +0.000 Cl
ATOM     11  C   UNL     1       2.090   4.488  18.274  0.00  0.00    +0.000 A 
ATOM     12  C   UNL     1       3.260   4.831  17.593  0.00  0.00    +0.000 A 
ENDBRANCH   5   6
ENDBRANCH   3   5
ENDBRANCH   1   3
BRANCH   1  13
ATOM     13  C   UNL     1       7.400   7.275  18.349  0.00  0.00    +0.000 C 
BRANCH  13  14
ATOM     14  O   UNL     1       8.273   6.412  19.072  0.00  0.00    +0.000 OA
ATOM     15  H   UNL     1       7.822   6.117  19.890  0.00  0.00    +0.000 HD
ENDBRANCH  13  14
BRANCH  13  16
ATOM     16  C   UNL     1       8.186   8.320  17.546  0.00  0.00    +0.000 C 
BRANCH  16  17
ATOM     17  O   UNL     1       8.037   9.630  18.090  0.00  0.00    +0.000 OA
BRANCH  17  18
ATOM     18  C   UNL     1       9.127  10.022  18.924  0.00  0.00    +0.000 C 
BRANCH  18  19
ATOM     19  C   UNL     1       9.766  11.278  18.393  0.00  0.00    +0.000 A 
ATOM     20  C   UNL     1      11.164  11.360  18.301  0.00  0.00    +0.000 A 
ATOM     21  C   UNL     1      11.775  12.506  17.794  0.00  0.00    +0.000 A 
ATOM     22  C   UNL     1      10.995  13.577  17.360  0.00  0.00    +0.000 A 
ATOM     23  C   UNL     1       9.606  13.500  17.432  0.00  0.00    +0.000 A 
ATOM     24  C   UNL     1       8.994  12.355  17.940  0.00  0.00    +0.000 A 
ENDBRANCH  18  19
ENDBRANCH  17  18
ENDBRANCH  16  17
ENDBRANCH  13  16
ENDBRANCH   1  13
TORSDOF 9
ENDMDL
MODEL 3
REMARK VINA RESULT:      -7.6      4.391      6.329
REMARK  Name = 
REMARK  9 active torsions:
REMARK  status: ('A' for Active; 'I' for Inactive)
REMARK    1  A    between atoms: S_2  and  C_4
REMARK    2  A    between atoms: S_2  and  C_12
REMARK    3  A    between atoms: C_4  and  C_5
REMARK    4  A    between atoms: C_12  and  C_13
REMARK    5  A    between atoms: C_13  and  O_14
REMARK    6  A    between atoms: C_13  and  C_15
REMARK    7  A    between atoms: C_15  and  O_16
REMARK    8  A    between atoms: O_16  and  C_17
REMARK    9  A    between atoms: C_17  and  C_18
REMARK                            x       y       z     vdW  Elec       q    Type
REMARK                         _______ _______ _______ _____ _____    ______ ____
ROOT
ATOM      1  C   UNL     1       2.767   2.950  19.862  0.00  0.00    +0.000 C 
ENDROOT
BRANCH   1   3
ATOM      2  O   UNL     1       0.995   4.640  20.716  0.00  0.00    +0.000 OA
ATOM      3  S   UNL     1       1.868   4.458  19.568  0.00  0.00    +0.000 S 
ATOM      4  O   UNL     1       1.310   4.408  18.230  0.00  0.00    +0.000 OA
BRANCH   3   5
ATOM      5  C   UNL     1       3.161   5.695  19.588  0.00  0.00    +0.000 C 
BRANCH   5   6
ATOM      6  C   UNL     1       2.532   7.045  19.347  0.00  0.00    +0.000 A 
ATOM      7  C   UNL     1       1.815   7.681  20.373  0.00  0.00    +0.000 A 
ATOM      8  C   UNL     1       1.166   8.893  20.136  0.00  0.00    +0.000 A 
ATOM      9  C   UNL     1       1.229   9.478  18.874  0.00  0.00    +0.000 A 
ATOM     10 CL   UNL     1       0.407  10.960  18.578  0.00  0.00    +0.000 Cl
ATOM     11  C   UNL     1       1.944   8.864  17.847  0.00  0.00    +0.000 A 
ATOM     12  C   UNL     1       2.595   7.652  18.083  0.00  0.00    +0.000 A 
ENDBRANCH   5   6
ENDBRANCH   3   5
ENDBRANCH   1   3
BRANCH   1  13
ATOM     13  C   UNL     1       4.111   2.901  19.136  0.00  0.00    +0.000 C 
BRANCH  13  14
ATOM     14  O   UNL     1       5.072   2.087  19.802  0.00  0.00    +0.000 OA
ATOM     15  H   UNL     1       5.664   1.684  19.133  0.00  0.00    +0.000 HD
ENDBRANCH  13  14
BRANCH  13  16
ATOM     16  C   UNL     1       4.015   2.546  17.646  0.00  0.00    +0.000 C 
BRANCH  16  17
ATOM     17  O   UNL     1       4.131   3.701  16.817  0.00  0.00    +0.000 OA
BRANCH  17  18
ATOM     18  C   UNL     1       5.430   3.857  16.246  0.00  0.00    +0.000 C 
BRANCH  18  19
ATOM     19  C   UNL     1       6.183   4.953  16.951  0.00  0.00    +0.000 A 
ATOM     20  C   UNL     1       7.142   4.625  17.921  0.00  0.00    +0.000 A 
ATOM     21  C   UNL     1       7.864   5.623  18.572  0.00  0.00    +0.000 A 
ATOM     22  C   UNL     1       7.647   6.963  18.250  0.00  0.00    +0.000 A 
ATOM     23  C   UNL     1       6.708   7.299  17.277  0.00  0.00    +0.000 A 
ATOM     24  C   UNL     1       5.984   6.302  16.627  0.00  0.00    +0.000 A 
ENDBRANCH  18  19
ENDBRANCH  17  18
ENDBRANCH  16  17
ENDBRANCH  13  16
ENDBRANCH   1  13
TORSDOF 9
ENDMDL
MODEL 4
REMARK VINA RESULT:      -7.5      1.074      1.567
REMARK  Name = 
REMARK  9 active torsions:
REMARK  status: ('A' for Active; 'I' for Inactive)
REMARK    1  A    between atoms: S_2  and  C_4
REMARK    2  A    between atoms: S_2  and  C_12
REMARK    3  A    between atoms: C_4  and  C_5
REMARK    4  A    between atoms: C_12  and  C_13
REMARK    5  A    between atoms: C_13  and  O_14
REMARK    6  A    between atoms: C_13  and  C_15
REMARK    7  A    between atoms: C_15  and  O_16
REMARK    8  A    between atoms: O_16  and  C_17
REMARK    9  A    between atoms: C_17  and  C_18
REMARK                            x       y       z     vdW  Elec       q    Type
REMARK                         _______ _______ _______ _____ _____    ______ ____
ROOT
ATOM      1  C   UNL     1       7.199   5.444  17.080  0.00  0.00    +0.000 C 
ENDROOT
BRANCH   1   3
ATOM      2  O   UNL     1       5.253   3.887  16.362  0.00  0.00    +0.000 OA
ATOM      3  S   UNL     1       5.625   5.288  16.262  0.00  0.00    +0.000 S 
ATOM      4  O   UNL     1       5.717   5.926  14.963  0.00  0.00    +0.000 OA
BRANCH   3   5
ATOM      5  C   UNL     1       4.547   6.277  17.294  0.00  0.00    +0.000 C 
BRANCH   5   6
ATOM      6  C   UNL     1       3.721   5.347  18.147  0.00  0.00    +0.000 A 
ATOM      7  C   UNL     1       2.402   5.039  17.779  0.00  0.00    +0.000 A 
ATOM      8  C   UNL     1       1.606   4.241  18.601  0.00  0.00    +0.000 A 
ATOM      9  C   UNL     1       2.122   3.745  19.795  0.00  0.00    +0.000 A 
ATOM     10 CL   UNL     1       1.130   2.782  20.819  0.00  0.00    +0.000 Cl
ATOM     11  C   UNL     1       3.433   4.034  20.171  0.00  0.00    +0.000 A 
ATOM     12  C   UNL     1       4.231   4.831  19.348  0.00  0.00    +0.000 A 
ENDBRANCH   5   6
ENDBRANCH   3   5
ENDBRANCH   1   3
BRANCH   1  13
ATOM     13  C   UNL     1       7.245   6.600  18.078  0.00  0.00    +0.000 C 
BRANCH  13  14
ATOM     14  O   UNL     1       7.936   6.269  19.280  0.00  0.00    +0.000 OA
ATOM     15  H   UNL     1       7.800   6.988  19.932  0.00  0.00    +0.000 HD
ENDBRANCH  13  14
BRANCH  13  16
ATOM     16  C   UNL     1       7.748   7.925  17.492  0.00  0.00    +0.000 C 
BRANCH  16  17
ATOM     17  O   UNL     1       8.552   8.647  18.424  0.00  0.00    +0.000 OA
BRANCH  17  18
ATOM     18  C   UNL     1       8.379  10.062  18.340  0.00  0.00    +0.000 C 
BRANCH  18  19
ATOM     19  C   UNL     1       9.588  10.770  18.892  0.00  0.00    +0.000 A 
ATOM     20  C   UNL     1      10.705  10.982  18.069  0.00  0.00    +0.000 A 
ATOM     21  C   UNL     1      11.826  11.653  18.554  0.00  0.00    +0.000 A 
ATOM     22  C   UNL     1      11.839  12.133  19.863  0.00  0.00    +0.000 A 
ATOM     23  C   UNL     1      10.729  11.942  20.683  0.00  0.00    +0.000 A 
ATOM     24  C   UNL     1       9.608  11.270  20.200  0.00  0.00    +0.000 A 
ENDBRANCH  18  19
ENDBRANCH  17  18
ENDBRANCH  16  17
ENDBRANCH  13  16
ENDBRANCH   1  13
TORSDOF 9
ENDMDL
MODEL 5
REMARK VINA RESULT:      -7.3      1.515      1.784
REMARK  Name = 
REMARK  9 active torsions:
REMARK  status: ('A' for Active; 'I' for Inactive)
REMARK    1  A    between atoms: S_2  and  C_4
REMARK    2  A    between atoms: S_2  and  C_12
REMARK    3  A    between atoms: C_4  and  C_5
REMARK    4  A    between atoms: C_12  and  C_13
REMARK    5  A    between atoms: C_13  and  O_14
REMARK    6  A    between atoms: C_13  and  C_15
REMARK    7  A    between atoms: C_15  and  O_16
REMARK    8  A    between atoms: O_16  and  C_17
REMARK    9  A    between atoms: C_17  and  C_18
REMARK                            x       y       z     vdW  Elec       q    Type
REMARK                         _______ _______ _______ _____ _____    ______ ____
ROOT
ATOM      1  C   UNL     1       6.972   6.304  18.493  0.00  0.00    +0.000 C 
ENDROOT
BRANCH   1   3
ATOM      2  O   UNL     1       6.181   3.879  18.965  0.00  0.00    +0.000 OA
ATOM      3  S   UNL     1       6.707   4.661  17.859  0.00  0.00    +0.000 S 
ATOM      4  O   UNL     1       7.910   4.234  17.172  0.00  0.00    +0.000 OA
BRANCH   3   5
ATOM      5  C   UNL     1       5.426   4.916  16.634  0.00  0.00    +0.000 C 
BRANCH   5   6
ATOM      6  C   UNL     1       4.129   4.376  17.183  0.00  0.00    +0.000 A 
ATOM      7  C   UNL     1       3.218   5.238  17.814  0.00  0.00    +0.000 A 
ATOM      8  C   UNL     1       2.052   4.735  18.392  0.00  0.00    +0.000 A 
ATOM      9  C   UNL     1       1.788   3.369  18.342  0.00  0.00    +0.000 A 
ATOM     10 CL   UNL     1       0.361   2.748  19.077  0.00  0.00    +0.000 Cl
ATOM     11  C   UNL     1       2.677   2.501  17.711  0.00  0.00    +0.000 A 
ATOM     12  C   UNL     1       3.844   3.003  17.131  0.00  0.00    +0.000 A 
ENDBRANCH   5   6
ENDBRANCH   3   5
ENDBRANCH   1   3
BRANCH   1  13
ATOM     13  C   UNL     1       7.851   7.163  17.586  0.00  0.00    +0.000 C 
BRANCH  13  14
ATOM     14  O   UNL     1       7.831   6.736  16.226  0.00  0.00    +0.000 OA
ATOM     15  H   UNL     1       7.903   7.522  15.646  0.00  0.00    +0.000 HD
ENDBRANCH  13  14
BRANCH  13  16
ATOM     16  C   UNL     1       7.598   8.672  17.700  0.00  0.00    +0.000 C 
BRANCH  16  17
ATOM     17  O   UNL     1       8.702   9.353  18.293  0.00  0.00    +0.000 OA
BRANCH  17  18
ATOM     18  C   UNL     1       8.770  10.734  17.937  0.00  0.00    +0.000 C 
BRANCH  18  19
ATOM     19  C   UNL     1      10.008  11.364  18.517  0.00  0.00    +0.000 A 
ATOM     20  C   UNL     1      10.154  11.455  19.910  0.00  0.00    +0.000 A 
ATOM     21  C   UNL     1      11.302  12.017  20.468  0.00  0.00    +0.000 A 
ATOM     22  C   UNL     1      12.324  12.480  19.639  0.00  0.00    +0.000 A 
ATOM     23  C   UNL     1      12.196  12.379  18.255  0.00  0.00    +0.000 A 
ATOM     24  C   UNL     1      11.048  11.820  17.697  0.00  0.00    +0.000 A 
ENDBRANCH  18  19
ENDBRANCH  17  18
ENDBRANCH  16  17
ENDBRANCH  13  16
ENDBRANCH   1  13
TORSDOF 9
ENDMDL
MODEL 6
REMARK VINA RESULT:      -7.2      4.390      6.517
REMARK  Name = 
REMARK  9 active torsions:
REMARK  status: ('A' for Active; 'I' for Inactive)
REMARK    1  A    between atoms: S_2  and  C_4
REMARK    2  A    between atoms: S_2  and  C_12
REMARK    3  A    between atoms: C_4  and  C_5
REMARK    4  A    between atoms: C_12  and  C_13
REMARK    5  A    between atoms: C_13  and  O_14
REMARK    6  A    between atoms: C_13  and  C_15
REMARK    7  A    between atoms: C_15  and  O_16
REMARK    8  A    between atoms: O_16  and  C_17
REMARK    9  A    between atoms: C_17  and  C_18
REMARK                            x       y       z     vdW  Elec       q    Type
REMARK                         _______ _______ _______ _____ _____    ______ ____
ROOT
ATOM      1  C   UNL     1       3.434   3.020  19.520  0.00  0.00    +0.000 C 
ENDROOT
BRANCH   1   3
ATOM      2  O   UNL     1       2.312   4.196  21.540  0.00  0.00    +0.000 OA
ATOM      3  S   UNL     1       2.450   4.383  20.106  0.00  0.00    +0.000 S 
ATOM      4  O   UNL     1       1.271   4.491  19.269  0.00  0.00    +0.000 OA
BRANCH   3   5
ATOM      5  C   UNL     1       3.500   5.795  19.776  0.00  0.00    +0.000 C 
BRANCH   5   6
ATOM      6  C   UNL     1       2.619   6.978  19.459  0.00  0.00    +0.000 A 
ATOM      7  C   UNL     1       2.560   7.480  18.149  0.00  0.00    +0.000 A 
ATOM      8  C   UNL     1       1.808   8.620  17.862  0.00  0.00    +0.000 A 
ATOM      9  C   UNL     1       1.111   9.265  18.881  0.00  0.00    +0.000 A 
ATOM     10 CL   UNL     1       0.206  10.685  18.529  0.00  0.00    +0.000 Cl
ATOM     11  C   UNL     1       1.153   8.774  20.184  0.00  0.00    +0.000 A 
ATOM     12  C   UNL     1       1.903   7.632  20.473  0.00  0.00    +0.000 A 
ENDBRANCH   5   6
ENDBRANCH   3   5
ENDBRANCH   1   3
BRANCH   1  13
ATOM     13  C   UNL     1       2.771   2.245  18.382  0.00  0.00    +0.000 C 
BRANCH  13  14
ATOM     14  O   UNL     1       1.427   1.871  18.675  0.00  0.00    +0.000 OA
ATOM     15  H   UNL     1       0.820   2.449  18.169  0.00  0.00    +0.000 HD
ENDBRANCH  13  14
BRANCH  13  16
ATOM     16  C   UNL     1       2.875   2.920  17.009  0.00  0.00    +0.000 C 
BRANCH  16  17
ATOM     17  O   UNL     1       3.667   4.105  17.058  0.00  0.00    +0.000 OA
BRANCH  17  18
ATOM     18  C   UNL     1       4.969   3.936  16.498  0.00  0.00    +0.000 C 
BRANCH  18  19
ATOM     19  C   UNL     1       5.920   4.956  17.067  0.00  0.00    +0.000 A 
ATOM     20  C   UNL     1       5.822   6.297  16.666  0.00  0.00    +0.000 A 
ATOM     21  C   UNL     1       6.679   7.260  17.195  0.00  0.00    +0.000 A 
ATOM     22  C   UNL     1       7.636   6.896  18.143  0.00  0.00    +0.000 A 
ATOM     23  C   UNL     1       7.731   5.570  18.559  0.00  0.00    +0.000 A 
ATOM     24  C   UNL     1       6.876   4.606  18.029  0.00  0.00    +0.000 A 
ENDBRANCH  18  19
ENDBRANCH  17  18
ENDBRANCH  16  17
ENDBRANCH  13  16
ENDBRANCH   1  13
TORSDOF 9
ENDMDL
MODEL 7
REMARK VINA RESULT:      -7.1      1.275      1.884
REMARK  Name = 
REMARK  9 active torsions:
REMARK  status: ('A' for Active; 'I' for Inactive)
REMARK    1  A    between atoms: S_2  and  C_4
REMARK    2  A    between atoms: S_2  and  C_12
REMARK    3  A    between atoms: C_4  and  C_5
REMARK    4  A    between atoms: C_12  and  C_13
REMARK    5  A    between atoms: C_13  and  O_14
REMARK    6  A    between atoms: C_13  and  C_15
REMARK    7  A    between atoms: C_15  and  O_16
REMARK    8  A    between atoms: O_16  and  C_17
REMARK    9  A    between atoms: C_17  and  C_18
REMARK                            x       y       z     vdW  Elec       q    Type
REMARK                         _______ _______ _______ _____ _____    ______ ____
ROOT
ATOM      1  C   UNL     1       7.261   6.411  16.709  0.00  0.00    +0.000 C 
ENDROOT
BRANCH   1   3
ATOM      2  O   UNL     1       6.599   4.650  18.495  0.00  0.00    +0.000 OA
ATOM      3  S   UNL     1       6.812   4.723  17.059  0.00  0.00    +0.000 S 
ATOM      4  O   UNL     1       7.777   3.849  16.421  0.00  0.00    +0.000 OA
BRANCH   3   5
ATOM      5  C   UNL     1       5.249   4.548  16.204  0.00  0.00    +0.000 C 
BRANCH   5   6
ATOM      6  C   UNL     1       4.161   4.377  17.234  0.00  0.00    +0.000 A 
ATOM      7  C   UNL     1       3.719   3.091  17.585  0.00  0.00    +0.000 A 
ATOM      8  C   UNL     1       2.661   2.926  18.479  0.00  0.00    +0.000 A 
ATOM      9  C   UNL     1       2.038   4.043  19.030  0.00  0.00    +0.000 A 
ATOM     10 CL   UNL     1       0.718   3.836  20.113  0.00  0.00    +0.000 Cl
ATOM     11  C   UNL     1       2.471   5.326  18.699  0.00  0.00    +0.000 A 
ATOM     12  C   UNL     1       3.531   5.493  17.805  0.00  0.00    +0.000 A 
ENDBRANCH   5   6
ENDBRANCH   3   5
ENDBRANCH   1   3
BRANCH   1  13
ATOM     13  C   UNL     1       7.306   7.291  17.957  0.00  0.00    +0.000 C 
BRANCH  13  14
ATOM     14  O   UNL     1       8.334   6.912  18.868  0.00  0.00    +0.000 OA
ATOM     15  H   UNL     1       8.606   5.992  18.673  0.00  0.00    +0.000 HD
ENDBRANCH  13  14
BRANCH  13  16
ATOM     16  C   UNL     1       7.342   8.798  17.670  0.00  0.00    +0.000 C 
BRANCH  16  17
ATOM     17  O   UNL     1       8.601   9.374  18.017  0.00  0.00    +0.000 OA
BRANCH  17  18
ATOM     18  C   UNL     1       8.600  10.801  17.967  0.00  0.00    +0.000 C 
BRANCH  18  19
ATOM     19  C   UNL     1       9.866  11.346  18.573  0.00  0.00    +0.000 A 
ATOM     20  C   UNL     1      10.848  11.907  17.743  0.00  0.00    +0.000 A 
ATOM     21  C   UNL     1      12.019  12.435  18.285  0.00  0.00    +0.000 A 
ATOM     22  C   UNL     1      12.214  12.422  19.666  0.00  0.00    +0.000 A 
ATOM     23  C   UNL     1      11.237  11.883  20.501  0.00  0.00    +0.000 A 
ATOM     24  C   UNL     1      10.068  11.353  19.959  0.00  0.00    +0.000 A 
ENDBRANCH  18  19
ENDBRANCH  17  18
ENDBRANCH  16  17
ENDBRANCH  13  16
ENDBRANCH   1  13
TORSDOF 9
ENDMDL
MODEL 8
REMARK VINA RESULT:      -7.0      0.881      1.334
REMARK  Name = 
REMARK  9 active torsions:
REMARK  status: ('A' for Active; 'I' for Inactive)
REMARK    1  A    between atoms: S_2  and  C_4
REMARK    2  A    between atoms: S_2  and  C_12
REMARK    3  A    between atoms: C_4  and  C_5
REMARK    4  A    between atoms: C_12  and  C_13
REMARK    5  A    between atoms: C_13  and  O_14
REMARK    6  A    between atoms: C_13  and  C_15
REMARK    7  A    between atoms: C_15  and  O_16
REMARK    8  A    between atoms: O_16  and  C_17
REMARK    9  A    between atoms: C_17  and  C_18
REMARK                            x       y       z     vdW  Elec       q    Type
REMARK                         _______ _______ _______ _____ _____    ______ ____
ROOT
ATOM      1  C   UNL     1       6.205   6.273  18.073  0.00  0.00    +0.000 C 
ENDROOT
BRANCH   1   3
ATOM      2  O   UNL     1       5.389   6.829  15.675  0.00  0.00    +0.000 OA
ATOM      3  S   UNL     1       4.877   6.214  16.888  0.00  0.00    +0.000 S 
ATOM      4  O   UNL     1       3.677   6.732  17.516  0.00  0.00    +0.000 OA
BRANCH   3   5
ATOM      5  C   UNL     1       4.658   4.456  16.632  0.00  0.00    +0.000 C 
BRANCH   5   6
ATOM      6  C   UNL     1       3.802   3.916  17.750  0.00  0.00    +0.000 A 
ATOM      7  C   UNL     1       2.409   3.828  17.591  0.00  0.00    +0.000 A 
ATOM      8  C   UNL     1       1.603   3.402  18.646  0.00  0.00    +0.000 A 
ATOM      9  C   UNL     1       2.180   3.059  19.865  0.00  0.00    +0.000 A 
ATOM     10 CL   UNL     1       1.181   2.557  21.172  0.00  0.00    +0.000 Cl
ATOM     11  C   UNL     1       3.562   3.131  20.036  0.00  0.00    +0.000 A 
ATOM     12  C   UNL     1       4.371   3.556  18.981  0.00  0.00    +0.000 A 
ENDBRANCH   5   6
ENDBRANCH   3   5
ENDBRANCH   1   3
BRANCH   1  13
ATOM     13  C   UNL     1       7.456   6.967  17.539  0.00  0.00    +0.000 C 
BRANCH  13  14
ATOM     14  O   UNL     1       7.789   6.568  16.212  0.00  0.00    +0.000 OA
ATOM     15  H   UNL     1       7.616   7.316  15.603  0.00  0.00    +0.000 HD
ENDBRANCH  13  14
BRANCH  13  16
ATOM     16  C   UNL     1       7.442   8.495  17.674  0.00  0.00    +0.000 C 
BRANCH  16  17
ATOM     17  O   UNL     1       8.744   9.019  17.932  0.00  0.00    +0.000 OA
BRANCH  17  18
ATOM     18  C   UNL     1       8.817   9.782  19.136  0.00  0.00    +0.000 C 
BRANCH  18  19
ATOM     19  C   UNL     1       9.915  10.808  19.039  0.00  0.00    +0.000 A 
ATOM     20  C   UNL     1      10.327  11.268  17.779  0.00  0.00    +0.000 A 
ATOM     21  C   UNL     1      11.328  12.232  17.669  0.00  0.00    +0.000 A 
ATOM     22  C   UNL     1      11.919  12.757  18.817  0.00  0.00    +0.000 A 
ATOM     23  C   UNL     1      11.506  12.318  20.074  0.00  0.00    +0.000 A 
ATOM     24  C   UNL     1      10.507  11.354  20.185  0.00  0.00    +0.000 A 
ENDBRANCH  18  19
ENDBRANCH  17  18
ENDBRANCH  16  17
ENDBRANCH  13  16
ENDBRANCH   1  13
TORSDOF 9
ENDMDL
MODEL 9
REMARK VINA RESULT:      -7.0      1.352      1.731
REMARK  Name = 
REMARK  9 active torsions:
REMARK  status: ('A' for Active; 'I' for Inactive)
REMARK    1  A    between atoms: S_2  and  C_4
REMARK    2  A    between atoms: S_2  and  C_12
REMARK    3  A    between atoms: C_4  and  C_5
REMARK    4  A    between atoms: C_12  and  C_13
REMARK    5  A    between atoms: C_13  and  O_14
REMARK    6  A    between atoms: C_13  and  C_15
REMARK    7  A    between atoms: C_15  and  O_16
REMARK    8  A    between atoms: O_16  and  C_17
REMARK    9  A    between atoms: C_17  and  C_18
REMARK                            x       y       z     vdW  Elec       q    Type
REMARK                         _______ _______ _______ _____ _____    ______ ____
ROOT
ATOM      1  C   UNL     1       7.204   5.434  17.219  0.00  0.00    +0.000 C 
ENDROOT
BRANCH   1   3
ATOM      2  O   UNL     1       5.198   4.022  16.377  0.00  0.00    +0.000 OA
ATOM      3  S   UNL     1       5.647   5.403  16.354  0.00  0.00    +0.000 S 
ATOM      4  O   UNL     1       5.810   6.095  15.090  0.00  0.00    +0.000 OA
BRANCH   3   5
ATOM      5  C   UNL     1       4.596   6.401  17.405  0.00  0.00    +0.000 C 
BRANCH   5   6
ATOM      6  C   UNL     1       3.731   5.477  18.226  0.00  0.00    +0.000 A 
ATOM      7  C   UNL     1       2.430   5.167  17.801  0.00  0.00    +0.000 A 
ATOM      8  C   UNL     1       1.597   4.375  18.592  0.00  0.00    +0.000 A 
ATOM      9  C   UNL     1       2.058   3.888  19.812  0.00  0.00    +0.000 A 
ATOM     10 CL   UNL     1       1.020   2.933  20.797  0.00  0.00    +0.000 Cl
ATOM     11  C   UNL     1       3.351   4.179  20.244  0.00  0.00    +0.000 A 
ATOM     12  C   UNL     1       4.186   4.970  19.453  0.00  0.00    +0.000 A 
ENDBRANCH   5   6
ENDBRANCH   3   5
ENDBRANCH   1   3
BRANCH   1  13
ATOM     13  C   UNL     1       7.393   6.690  18.069  0.00  0.00    +0.000 C 
BRANCH  13  14
ATOM     14  O   UNL     1       8.113   6.442  19.274  0.00  0.00    +0.000 OA
ATOM     15  H   UNL     1       7.970   5.511  19.543  0.00  0.00    +0.000 HD
ENDBRANCH  13  14
BRANCH  13  16
ATOM     16  C   UNL     1       7.974   7.889  17.309  0.00  0.00    +0.000 C 
BRANCH  16  17
ATOM     17  O   UNL     1       7.783   9.112  18.019  0.00  0.00    +0.000 OA
BRANCH  17  18
ATOM     18  C   UNL     1       8.929   9.513  18.770  0.00  0.00    +0.000 C 
BRANCH  18  19
ATOM     19  C   UNL     1       9.431  10.847  18.286  0.00  0.00    +0.000 A 
ATOM     20  C   UNL     1       8.515  11.823  17.864  0.00  0.00    +0.000 A 
ATOM     21  C   UNL     1       8.957  13.072  17.431  0.00  0.00    +0.000 A 
ATOM     22  C   UNL     1      10.320  13.365  17.429  0.00  0.00    +0.000 A 
ATOM     23  C   UNL     1      11.237  12.409  17.861  0.00  0.00    +0.000 A 
ATOM     24  C   UNL     1      10.796  11.160  18.292  0.00  0.00    +0.000 A 
ENDBRANCH  18  19
ENDBRANCH  17  18
ENDBRANCH  16  17
ENDBRANCH  13  16
ENDBRANCH   1  13
TORSDOF 9
ENDMDL
