MODEL 1
REMARK VINA RESULT:      -7.7      0.000      0.000
REMARK  Name = 
REMARK  10 active torsions:
REMARK  status: ('A' for Active; 'I' for Inactive)
REMARK    1  A    between atoms: C_1  and  C_2
REMARK    2  A    between atoms: C_2  and  C_3
REMARK    3  A    between atoms: C_3  and  C_4
REMARK    4  A    between atoms: C_4  and  C_5
REMARK    5  A    between atoms: C_5  and  N_6
REMARK    6  A    between atoms: C_10  and  N_11
REMARK    7  A    between atoms: N_11  and  C_12
REMARK    8  A    between atoms: C_26  and  O_27
REMARK    9  A    between atoms: O_27  and  C_28
REMARK   10  A    between atoms: C_30  and  C_31
REMARK                            x       y       z     vdW  Elec       q    Type
REMARK                         _______ _______ _______ _____ _____    ______ ____
ROOT
ATOM      1  N   UNL     1      -0.085  10.661  18.710  0.00  0.00    +0.000 N 
ATOM      2  C   UNL     1       1.194  10.094  18.605  0.00  0.00    +0.000 C 
ATOM      3  O   UNL     1       1.953  10.187  17.645  0.00  0.00    +0.000 OA
ATOM      4  C   UNL     1       1.492   9.169  19.702  0.00  0.00    +0.000 C 
ATOM      5  C   UNL     1       1.753   7.896  19.378  0.00  0.00    +0.000 C 
ATOM      6  C   UNL     1       1.157   9.550  21.061  0.00  0.00    +0.000 C 
ATOM      7  O   UNL     1       1.744   9.102  22.044  0.00  0.00    +0.000 OA
ATOM      8  C   UNL     1       0.008  10.465  21.169  0.00  0.00    +0.000 A 
ATOM      9  C   UNL     1      -0.436  10.698  22.482  0.00  0.00    +0.000 A 
ATOM     10  C   UNL     1      -1.578  11.432  22.703  0.00  0.00    +0.000 A 
ATOM     11  C   UNL     1      -2.252  11.946  21.599  0.00  0.00    +0.000 A 
ATOM     12  C   UNL     1      -1.809  11.756  20.261  0.00  0.00    +0.000 A 
ATOM     13  C   UNL     1      -2.653  12.456  19.230  0.00  0.00    +0.000 C 
ATOM     14  C   UNL     1      -0.655  10.965  20.016  0.00  0.00    +0.000 A 
ENDROOT
BRANCH   5  15
ATOM     15  N   UNL     1       1.803   6.792  20.203  0.00  0.00    +0.000 N 
ATOM     16  H   UNL     1       1.893   7.009  21.200  0.00  0.00    +0.000 HD
BRANCH  15  17
ATOM     17  C   UNL     1       2.046   5.414  19.795  0.00  0.00    +0.000 C 
ATOM     18  C   UNL     1       3.532   5.057  20.002  0.00  0.00    +0.000 C 
ATOM     19  C   UNL     1       3.795   3.605  19.575  0.00  0.00    +0.000 C 
ATOM     20  C   UNL     1       2.929   2.663  20.426  0.00  0.00    +0.000 C 
ATOM     21  C   UNL     1       1.440   2.991  20.227  0.00  0.00    +0.000 C 
ATOM     22  C   UNL     1       1.073   2.825  18.742  0.00  0.00    +0.000 C 
ATOM     23  C   UNL     1       1.931   3.764  17.880  0.00  0.00    +0.000 C 
ATOM     24  C   UNL     1       3.419   3.434  18.093  0.00  0.00    +0.000 C 
ATOM     25  C   UNL     1       1.670   5.216  18.305  0.00  0.00    +0.000 C 
ATOM     26  C   UNL     1       1.184   4.451  20.648  0.00  0.00    +0.000 C 
ENDBRANCH  15  17
ENDBRANCH   5  15
BRANCH  10  27
ATOM     27  O   UNL     1      -2.131  11.701  23.923  0.00  0.00    +0.000 OA
ATOM     28  C   UNL     1      -3.422  12.308  23.914  0.00  0.00    +0.000 C 
ENDBRANCH  10  27
BRANCH   1  29
ATOM     29  C   UNL     1      -0.794  10.883  17.449  0.00  0.00    +0.000 C 
BRANCH  29  30
ATOM     30  C   UNL     1      -1.599   9.660  16.957  0.00  0.00    +0.000 C 
BRANCH  30  31
ATOM     31  C   UNL     1      -3.103   9.861  17.081  0.00  0.00    +0.000 C 
BRANCH  31  33
ATOM     32  C   UNL     1      -3.049  10.105  14.579  0.00  0.00    +0.000 C 
ATOM     33  C   UNL     1      -3.627  10.642  15.874  0.00  0.00    +0.000 C 
ENDBRANCH  31  33
ENDBRANCH  30  31
ENDBRANCH  29  30
ENDBRANCH   1  29
TORSDOF 7
ENDMDL
MODEL 2
REMARK VINA RESULT:      -7.7      0.282      1.347
REMARK  Name = 
REMARK  10 active torsions:
REMARK  status: ('A' for Active; 'I' for Inactive)
REMARK    1  A    between atoms: C_1  and  C_2
REMARK    2  A    between atoms: C_2  and  C_3
REMARK    3  A    between atoms: C_3  and  C_4
REMARK    4  A    between atoms: C_4  and  C_5
REMARK    5  A    between atoms: C_5  and  N_6
REMARK    6  A    between atoms: C_10  and  N_11
REMARK    7  A    between atoms: N_11  and  C_12
REMARK    8  A    between atoms: C_26  and  O_27
REMARK    9  A    between atoms: O_27  and  C_28
REMARK   10  A    between atoms: C_30  and  C_31
REMARK                            x       y       z     vdW  Elec       q    Type
REMARK                         _______ _______ _______ _____ _____    ______ ____
ROOT
ATOM      1  N   UNL     1      -0.162  10.569  18.621  0.00  0.00    +0.000 N 
ATOM      2  C   UNL     1       1.124  10.023  18.492  0.00  0.00    +0.000 C 
ATOM      3  O   UNL     1       1.846  10.095  17.502  0.00  0.00    +0.000 OA
ATOM      4  C   UNL     1       1.478   9.147  19.611  0.00  0.00    +0.000 C 
ATOM      5  C   UNL     1       1.755   7.867  19.325  0.00  0.00    +0.000 C 
ATOM      6  C   UNL     1       1.184   9.572  20.966  0.00  0.00    +0.000 C 
ATOM      7  O   UNL     1       1.814   9.173  21.943  0.00  0.00    +0.000 OA
ATOM      8  C   UNL     1       0.020  10.467  21.081  0.00  0.00    +0.000 A 
ATOM      9  C   UNL     1      -0.382  10.742  22.399  0.00  0.00    +0.000 A 
ATOM     10  C   UNL     1      -1.531  11.461  22.634  0.00  0.00    +0.000 A 
ATOM     11  C   UNL     1      -2.254  11.920  21.536  0.00  0.00    +0.000 A 
ATOM     12  C   UNL     1      -1.854  11.688  20.191  0.00  0.00    +0.000 A 
ATOM     13  C   UNL     1      -2.747  12.332  19.165  0.00  0.00    +0.000 C 
ATOM     14  C   UNL     1      -0.693  10.910  19.934  0.00  0.00    +0.000 A 
ENDROOT
BRANCH   5  15
ATOM     15  N   UNL     1       1.857   6.797  20.188  0.00  0.00    +0.000 N 
ATOM     16  H   UNL     1       2.017   7.052  21.167  0.00  0.00    +0.000 HD
BRANCH  15  17
ATOM     17  C   UNL     1       2.063   5.402  19.820  0.00  0.00    +0.000 C 
ATOM     18  C   UNL     1       1.767   5.203  18.319  0.00  0.00    +0.000 C 
ATOM     19  C   UNL     1       1.984   3.734  17.924  0.00  0.00    +0.000 C 
ATOM     20  C   UNL     1       3.444   3.345  18.203  0.00  0.00    +0.000 C 
ATOM     21  C   UNL     1       3.761   3.523  19.698  0.00  0.00    +0.000 C 
ATOM     22  C   UNL     1       2.824   2.631  20.529  0.00  0.00    +0.000 C 
ATOM     23  C   UNL     1       1.360   3.011  20.261  0.00  0.00    +0.000 C 
ATOM     24  C   UNL     1       1.055   2.839  18.762  0.00  0.00    +0.000 C 
ATOM     25  C   UNL     1       1.140   4.479  20.654  0.00  0.00    +0.000 C 
ATOM     26  C   UNL     1       3.533   4.996  20.091  0.00  0.00    +0.000 C 
ENDBRANCH  15  17
ENDBRANCH   5  15
BRANCH  10  27
ATOM     27  O   UNL     1      -2.046  11.765  23.861  0.00  0.00    +0.000 OA
ATOM     28  C   UNL     1      -3.341  12.363  23.875  0.00  0.00    +0.000 C 
ENDBRANCH  10  27
BRANCH   1  29
ATOM     29  C   UNL     1      -0.920  10.729  17.378  0.00  0.00    +0.000 C 
BRANCH  29  30
ATOM     30  C   UNL     1      -1.787   9.506  17.009  0.00  0.00    +0.000 C 
BRANCH  30  31
ATOM     31  C   UNL     1      -3.133   9.900  16.419  0.00  0.00    +0.000 C 
BRANCH  31  33
ATOM     32  C   UNL     1      -3.784  10.036  13.995  0.00  0.00    +0.000 C 
ATOM     33  C   UNL     1      -2.929  10.637  15.094  0.00  0.00    +0.000 C 
ENDBRANCH  31  33
ENDBRANCH  30  31
ENDBRANCH  29  30
ENDBRANCH   1  29
TORSDOF 7
ENDMDL
MODEL 3
REMARK VINA RESULT:      -7.6      0.630      1.615
REMARK  Name = 
REMARK  10 active torsions:
REMARK  status: ('A' for Active; 'I' for Inactive)
REMARK    1  A    between atoms: C_1  and  C_2
REMARK    2  A    between atoms: C_2  and  C_3
REMARK    3  A    between atoms: C_3  and  C_4
REMARK    4  A    between atoms: C_4  and  C_5
REMARK    5  A    between atoms: C_5  and  N_6
REMARK    6  A    between atoms: C_10  and  N_11
REMARK    7  A    between atoms: N_11  and  C_12
REMARK    8  A    between atoms: C_26  and  O_27
REMARK    9  A    between atoms: O_27  and  C_28
REMARK   10  A    between atoms: C_30  and  C_31
REMARK                            x       y       z     vdW  Elec       q    Type
REMARK                         _______ _______ _______ _____ _____    ______ ____
ROOT
ATOM      1  N   UNL     1      -0.147  10.639  18.991  0.00  0.00    +0.000 N 
ATOM      2  C   UNL     1       1.142  10.085  18.970  0.00  0.00    +0.000 C 
ATOM      3  O   UNL     1       1.942  10.147  18.041  0.00  0.00    +0.000 OA
ATOM      4  C   UNL     1       1.401   9.215  20.119  0.00  0.00    +0.000 C 
ATOM      5  C   UNL     1       1.692   7.933  19.865  0.00  0.00    +0.000 C 
ATOM      6  C   UNL     1       1.000   9.651  21.443  0.00  0.00    +0.000 C 
ATOM      7  O   UNL     1       1.548   9.256  22.471  0.00  0.00    +0.000 OA
ATOM      8  C   UNL     1      -0.164  10.553  21.458  0.00  0.00    +0.000 A 
ATOM      9  C   UNL     1      -0.669  10.839  22.738  0.00  0.00    +0.000 A 
ATOM     10  C   UNL     1      -1.829  11.565  22.875  0.00  0.00    +0.000 A 
ATOM     11  C   UNL     1      -2.459  12.020  21.720  0.00  0.00    +0.000 A 
ATOM     12  C   UNL     1      -1.953  11.777  20.413  0.00  0.00    +0.000 A 
ATOM     13  C   UNL     1      -2.758  12.417  19.314  0.00  0.00    +0.000 C 
ATOM     14  C   UNL     1      -0.780  10.992  20.256  0.00  0.00    +0.000 A 
ENDROOT
BRANCH   5  15
ATOM     15  N   UNL     1       1.719   6.867  20.740  0.00  0.00    +0.000 N 
ATOM     16  H   UNL     1       1.866   7.125  21.721  0.00  0.00    +0.000 HD
BRANCH  15  17
ATOM     17  C   UNL     1       1.865   5.460  20.391  0.00  0.00    +0.000 C 
ATOM     18  C   UNL     1       0.476   4.801  20.264  0.00  0.00    +0.000 C 
ATOM     19  C   UNL     1       0.622   3.317  19.895  0.00  0.00    +0.000 C 
ATOM     20  C   UNL     1       1.358   3.200  18.551  0.00  0.00    +0.000 C 
ATOM     21  C   UNL     1       2.753   3.840  18.656  0.00  0.00    +0.000 C 
ATOM     22  C   UNL     1       3.564   3.123  19.749  0.00  0.00    +0.000 C 
ATOM     23  C   UNL     1       2.839   3.234  21.100  0.00  0.00    +0.000 C 
ATOM     24  C   UNL     1       1.442   2.601  20.982  0.00  0.00    +0.000 C 
ATOM     25  C   UNL     1       2.691   4.717  21.471  0.00  0.00    +0.000 C 
ATOM     26  C   UNL     1       2.601   5.325  19.035  0.00  0.00    +0.000 C 
ENDBRANCH  15  17
ENDBRANCH   5  15
BRANCH  10  27
ATOM     27  O   UNL     1      -2.440  11.880  24.055  0.00  0.00    +0.000 OA
ATOM     28  C   UNL     1      -3.589  12.720  23.970  0.00  0.00    +0.000 C 
ENDBRANCH  10  27
BRANCH   1  29
ATOM     29  C   UNL     1      -0.801  10.793  17.691  0.00  0.00    +0.000 C 
BRANCH  29  30
ATOM     30  C   UNL     1      -1.602   9.552  17.238  0.00  0.00    +0.000 C 
BRANCH  30  31
ATOM     31  C   UNL     1      -2.982   9.909  16.706  0.00  0.00    +0.000 C 
BRANCH  31  33
ATOM     32  C   UNL     1      -3.363  10.118  14.230  0.00  0.00    +0.000 C 
ATOM     33  C   UNL     1      -2.853  10.812  15.478  0.00  0.00    +0.000 C 
ENDBRANCH  31  33
ENDBRANCH  30  31
ENDBRANCH  29  30
ENDBRANCH   1  29
TORSDOF 7
ENDMDL
MODEL 4
REMARK VINA RESULT:      -7.4      2.433      4.684
REMARK  Name = 
REMARK  10 active torsions:
REMARK  status: ('A' for Active; 'I' for Inactive)
REMARK    1  A    between atoms: C_1  and  C_2
REMARK    2  A    between atoms: C_2  and  C_3
REMARK    3  A    between atoms: C_3  and  C_4
REMARK    4  A    between atoms: C_4  and  C_5
REMARK    5  A    between atoms: C_5  and  N_6
REMARK    6  A    between atoms: C_10  and  N_11
REMARK    7  A    between atoms: N_11  and  C_12
REMARK    8  A    between atoms: C_26  and  O_27
REMARK    9  A    between atoms: O_27  and  C_28
REMARK   10  A    between atoms: C_30  and  C_31
REMARK                            x       y       z     vdW  Elec       q    Type
REMARK                         _______ _______ _______ _____ _____    ______ ____
ROOT
ATOM      1  N   UNL     1      -0.204  11.655  19.866  0.00  0.00    +0.000 N 
ATOM      2  C   UNL     1      -0.442  10.396  19.295  0.00  0.00    +0.000 C 
ATOM      3  O   UNL     1      -1.517   9.804  19.267  0.00  0.00    +0.000 OA
ATOM      4  C   UNL     1       0.792   9.718  18.890  0.00  0.00    +0.000 C 
ATOM      5  C   UNL     1       1.062   8.539  19.466  0.00  0.00    +0.000 C 
ATOM      6  C   UNL     1       1.815  10.468  18.187  0.00  0.00    +0.000 C 
ATOM      7  O   UNL     1       2.628   9.941  17.430  0.00  0.00    +0.000 OA
ATOM      8  C   UNL     1       1.843  11.905  18.510  0.00  0.00    +0.000 A 
ATOM      9  C   UNL     1       2.937  12.606  17.974  0.00  0.00    +0.000 A 
ATOM     10  C   UNL     1       3.143  13.924  18.309  0.00  0.00    +0.000 A 
ATOM     11  C   UNL     1       2.229  14.533  19.165  0.00  0.00    +0.000 A 
ATOM     12  C   UNL     1       1.093  13.860  19.695  0.00  0.00    +0.000 A 
ATOM     13  C   UNL     1       0.205  14.730  20.543  0.00  0.00    +0.000 C 
ATOM     14  C   UNL     1       0.893  12.487  19.391  0.00  0.00    +0.000 A 
ENDROOT
BRANCH   5  15
ATOM     15  N   UNL     1       2.248   7.835  19.467  0.00  0.00    +0.000 N 
ATOM     16  H   UNL     1       3.086   8.411  19.346  0.00  0.00    +0.000 HD
BRANCH  15  17
ATOM     17  C   UNL     1       2.401   6.393  19.314  0.00  0.00    +0.000 C 
ATOM     18  C   UNL     1       1.628   5.659  20.429  0.00  0.00    +0.000 C 
ATOM     19  C   UNL     1       1.785   4.139  20.274  0.00  0.00    +0.000 C 
ATOM     20  C   UNL     1       1.225   3.710  18.909  0.00  0.00    +0.000 C 
ATOM     21  C   UNL     1       1.989   4.420  17.778  0.00  0.00    +0.000 C 
ATOM     22  C   UNL     1       3.481   4.053  17.860  0.00  0.00    +0.000 C 
ATOM     23  C   UNL     1       4.054   4.479  19.220  0.00  0.00    +0.000 C 
ATOM     24  C   UNL     1       3.277   3.771  20.345  0.00  0.00    +0.000 C 
ATOM     25  C   UNL     1       3.898   5.999  19.379  0.00  0.00    +0.000 C 
ATOM     26  C   UNL     1       1.836   5.944  17.944  0.00  0.00    +0.000 C 
ENDBRANCH  15  17
ENDBRANCH   5  15
BRANCH  10  27
ATOM     27  O   UNL     1       4.181  14.703  17.886  0.00  0.00    +0.000 OA
ATOM     28  C   UNL     1       4.839  15.480  18.885  0.00  0.00    +0.000 C 
ENDBRANCH  10  27
BRANCH   1  29
ATOM     29  C   UNL     1      -1.090  12.039  20.966  0.00  0.00    +0.000 C 
BRANCH  29  30
ATOM     30  C   UNL     1      -0.491  11.800  22.369  0.00  0.00    +0.000 C 
BRANCH  30  31
ATOM     31  C   UNL     1      -1.188  10.675  23.120  0.00  0.00    +0.000 C 
BRANCH  31  33
ATOM     32  C   UNL     1       0.941   9.364  22.858  0.00  0.00    +0.000 C 
ATOM     33  C   UNL     1      -0.570   9.329  22.737  0.00  0.00    +0.000 C 
ENDBRANCH  31  33
ENDBRANCH  30  31
ENDBRANCH  29  30
ENDBRANCH   1  29
TORSDOF 7
ENDMDL
MODEL 5
REMARK VINA RESULT:      -7.3      2.481      4.436
REMARK  Name = 
REMARK  10 active torsions:
REMARK  status: ('A' for Active; 'I' for Inactive)
REMARK    1  A    between atoms: C_1  and  C_2
REMARK    2  A    between atoms: C_2  and  C_3
REMARK    3  A    between atoms: C_3  and  C_4
REMARK    4  A    between atoms: C_4  and  C_5
REMARK    5  A    between atoms: C_5  and  N_6
REMARK    6  A    between atoms: C_10  and  N_11
REMARK    7  A    between atoms: N_11  and  C_12
REMARK    8  A    between atoms: C_26  and  O_27
REMARK    9  A    between atoms: O_27  and  C_28
REMARK   10  A    between atoms: C_30  and  C_31
REMARK                            x       y       z     vdW  Elec       q    Type
REMARK                         _______ _______ _______ _____ _____    ______ ____
ROOT
ATOM      1  N   UNL     1       0.197  10.633  21.345  0.00  0.00    +0.000 N 
ATOM      2  C   UNL     1      -0.110   9.320  20.958  0.00  0.00    +0.000 C 
ATOM      3  O   UNL     1      -1.013   8.623  21.412  0.00  0.00    +0.000 OA
ATOM      4  C   UNL     1       0.901   8.744  20.069  0.00  0.00    +0.000 C 
ATOM      5  C   UNL     1       1.533   7.641  20.492  0.00  0.00    +0.000 C 
ATOM      6  C   UNL     1       1.424   9.542  18.977  0.00  0.00    +0.000 C 
ATOM      7  O   UNL     1       1.888   9.049  17.951  0.00  0.00    +0.000 OA
ATOM      8  C   UNL     1       1.415  10.994  19.228  0.00  0.00    +0.000 A 
ATOM      9  C   UNL     1       2.078  11.762  18.256  0.00  0.00    +0.000 A 
ATOM     10  C   UNL     1       2.248  13.114  18.445  0.00  0.00    +0.000 A 
ATOM     11  C   UNL     1       1.725  13.686  19.601  0.00  0.00    +0.000 A 
ATOM     12  C   UNL     1       1.018  12.941  20.585  0.00  0.00    +0.000 A 
ATOM     13  C   UNL     1       0.484  13.774  21.719  0.00  0.00    +0.000 C 
ATOM     14  C   UNL     1       0.874  11.537  20.424  0.00  0.00    +0.000 A 
ENDROOT
BRANCH   5  15
ATOM     15  N   UNL     1       2.679   7.060  19.989  0.00  0.00    +0.000 N 
ATOM     16  H   UNL     1       3.415   7.725  19.732  0.00  0.00    +0.000 HD
BRANCH  15  17
ATOM     17  C   UNL     1       2.822   5.689  19.516  0.00  0.00    +0.000 C 
ATOM     18  C   UNL     1       4.316   5.317  19.422  0.00  0.00    +0.000 C 
ATOM     19  C   UNL     1       4.475   3.872  18.925  0.00  0.00    +0.000 C 
ATOM     20  C   UNL     1       3.781   2.919  19.911  0.00  0.00    +0.000 C 
ATOM     21  C   UNL     1       2.285   3.262  20.012  0.00  0.00    +0.000 C 
ATOM     22  C   UNL     1       1.634   3.130  18.625  0.00  0.00    +0.000 C 
ATOM     23  C   UNL     1       2.318   4.080  17.630  0.00  0.00    +0.000 C 
ATOM     24  C   UNL     1       3.815   3.735  17.542  0.00  0.00    +0.000 C 
ATOM     25  C   UNL     1       2.162   5.525  18.124  0.00  0.00    +0.000 C 
ATOM     26  C   UNL     1       2.132   4.715  20.502  0.00  0.00    +0.000 C 
ENDBRANCH  15  17
ENDBRANCH   5  15
BRANCH  10  27
ATOM     27  O   UNL     1       2.901  13.963  17.597  0.00  0.00    +0.000 OA
ATOM     28  C   UNL     1       3.001  15.323  18.014  0.00  0.00    +0.000 C 
ENDBRANCH  10  27
BRANCH   1  29
ATOM     29  C   UNL     1      -0.169  11.001  22.714  0.00  0.00    +0.000 C 
BRANCH  29  30
ATOM     30  C   UNL     1      -1.691  11.073  22.961  0.00  0.00    +0.000 C 
BRANCH  30  31
ATOM     31  C   UNL     1      -2.141  12.443  23.447  0.00  0.00    +0.000 C 
BRANCH  31  33
ATOM     32  C   UNL     1      -4.340  12.492  24.666  0.00  0.00    +0.000 C 
ATOM     33  C   UNL     1      -3.659  12.574  23.312  0.00  0.00    +0.000 C 
ENDBRANCH  31  33
ENDBRANCH  30  31
ENDBRANCH  29  30
ENDBRANCH   1  29
TORSDOF 7
ENDMDL
MODEL 6
REMARK VINA RESULT:      -7.3      2.306      4.800
REMARK  Name = 
REMARK  10 active torsions:
REMARK  status: ('A' for Active; 'I' for Inactive)
REMARK    1  A    between atoms: C_1  and  C_2
REMARK    2  A    between atoms: C_2  and  C_3
REMARK    3  A    between atoms: C_3  and  C_4
REMARK    4  A    between atoms: C_4  and  C_5
REMARK    5  A    between atoms: C_5  and  N_6
REMARK    6  A    between atoms: C_10  and  N_11
REMARK    7  A    between atoms: N_11  and  C_12
REMARK    8  A    between atoms: C_26  and  O_27
REMARK    9  A    between atoms: O_27  and  C_28
REMARK   10  A    between atoms: C_30  and  C_31
REMARK                            x       y       z     vdW  Elec       q    Type
REMARK                         _______ _______ _______ _____ _____    ______ ____
ROOT
ATOM      1  N   UNL     1       0.194  11.262  20.799  0.00  0.00    +0.000 N 
ATOM      2  C   UNL     1      -0.201  10.014  20.293  0.00  0.00    +0.000 C 
ATOM      3  O   UNL     1      -1.228   9.408  20.581  0.00  0.00    +0.000 OA
ATOM      4  C   UNL     1       0.852   9.366  19.507  0.00  0.00    +0.000 C 
ATOM      5  C   UNL     1       1.295   8.177  19.937  0.00  0.00    +0.000 C 
ATOM      6  C   UNL     1       1.603  10.149  18.544  0.00  0.00    +0.000 C 
ATOM      7  O   UNL     1       2.145   9.654  17.558  0.00  0.00    +0.000 OA
ATOM      8  C   UNL     1       1.721  11.578  18.884  0.00  0.00    +0.000 A 
ATOM      9  C   UNL     1       2.591  12.308  18.058  0.00  0.00    +0.000 A 
ATOM     10  C   UNL     1       2.882  13.620  18.352  0.00  0.00    +0.000 A 
ATOM     11  C   UNL     1       2.274  14.194  19.465  0.00  0.00    +0.000 A 
ATOM     12  C   UNL     1       1.362  13.490  20.300  0.00  0.00    +0.000 A 
ATOM     13  C   UNL     1       0.774  14.324  21.406  0.00  0.00    +0.000 C 
ATOM     14  C   UNL     1       1.086  12.123  20.032  0.00  0.00    +0.000 A 
ENDROOT
BRANCH   5  15
ATOM     15  N   UNL     1       2.427   7.490  19.550  0.00  0.00    +0.000 N 
ATOM     16  H   UNL     1       3.181   8.082  19.187  0.00  0.00    +0.000 HD
BRANCH  15  17
ATOM     17  C   UNL     1       2.536   6.055  19.324  0.00  0.00    +0.000 C 
ATOM     18  C   UNL     1       2.050   5.707  17.902  0.00  0.00    +0.000 C 
ATOM     19  C   UNL     1       2.163   4.195  17.656  0.00  0.00    +0.000 C 
ATOM     20  C   UNL     1       3.632   3.767  17.802  0.00  0.00    +0.000 C 
ATOM     21  C   UNL     1       4.138   4.093  19.218  0.00  0.00    +0.000 C 
ATOM     22  C   UNL     1       3.279   3.345  20.253  0.00  0.00    +0.000 C 
ATOM     23  C   UNL     1       1.808   3.765  20.118  0.00  0.00    +0.000 C 
ATOM     24  C   UNL     1       1.314   3.444  18.696  0.00  0.00    +0.000 C 
ATOM     25  C   UNL     1       1.691   5.277  20.363  0.00  0.00    +0.000 C 
ATOM     26  C   UNL     1       4.013   5.609  19.463  0.00  0.00    +0.000 C 
ENDBRANCH  15  17
ENDBRANCH   5  15
BRANCH  10  27
ATOM     27  O   UNL     1       3.734  14.426  17.652  0.00  0.00    +0.000 OA
ATOM     28  C   UNL     1       4.887  14.890  18.351  0.00  0.00    +0.000 C 
ENDBRANCH  10  27
BRANCH   1  29
ATOM     29  C   UNL     1      -0.310  11.604  22.130  0.00  0.00    +0.000 C 
BRANCH  29  30
ATOM     30  C   UNL     1      -1.754  12.151  22.134  0.00  0.00    +0.000 C 
BRANCH  30  31
ATOM     31  C   UNL     1      -2.473  11.896  23.451  0.00  0.00    +0.000 C 
BRANCH  31  33
ATOM     32  C   UNL     1      -4.617  12.344  24.685  0.00  0.00    +0.000 C 
ATOM     33  C   UNL     1      -3.710  12.790  23.554  0.00  0.00    +0.000 C 
ENDBRANCH  31  33
ENDBRANCH  30  31
ENDBRANCH  29  30
ENDBRANCH   1  29
TORSDOF 7
ENDMDL
MODEL 7
REMARK VINA RESULT:      -7.1      2.458      4.534
REMARK  Name = 
REMARK  10 active torsions:
REMARK  status: ('A' for Active; 'I' for Inactive)
REMARK    1  A    between atoms: C_1  and  C_2
REMARK    2  A    between atoms: C_2  and  C_3
REMARK    3  A    between atoms: C_3  and  C_4
REMARK    4  A    between atoms: C_4  and  C_5
REMARK    5  A    between atoms: C_5  and  N_6
REMARK    6  A    between atoms: C_10  and  N_11
REMARK    7  A    between atoms: N_11  and  C_12
REMARK    8  A    between atoms: C_26  and  O_27
REMARK    9  A    between atoms: O_27  and  C_28
REMARK   10  A    between atoms: C_30  and  C_31
REMARK                            x       y       z     vdW  Elec       q    Type
REMARK                         _______ _______ _______ _____ _____    ______ ____
ROOT
ATOM      1  N   UNL     1       0.200  10.573  21.435  0.00  0.00    +0.000 N 
ATOM      2  C   UNL     1      -0.090   9.254  21.055  0.00  0.00    +0.000 C 
ATOM      3  O   UNL     1      -0.963   8.537  21.536  0.00  0.00    +0.000 OA
ATOM      4  C   UNL     1       0.905   8.701  20.133  0.00  0.00    +0.000 C 
ATOM      5  C   UNL     1       1.573   7.611  20.534  0.00  0.00    +0.000 C 
ATOM      6  C   UNL     1       1.374   9.512  19.026  0.00  0.00    +0.000 C 
ATOM      7  O   UNL     1       1.817   9.030  17.986  0.00  0.00    +0.000 OA
ATOM      8  C   UNL     1       1.342  10.962  19.281  0.00  0.00    +0.000 A 
ATOM      9  C   UNL     1       1.958  11.746  18.290  0.00  0.00    +0.000 A 
ATOM     10  C   UNL     1       2.104  13.101  18.475  0.00  0.00    +0.000 A 
ATOM     11  C   UNL     1       1.606  13.661  19.648  0.00  0.00    +0.000 A 
ATOM     12  C   UNL     1       0.947  12.899  20.653  0.00  0.00    +0.000 A 
ATOM     13  C   UNL     1       0.431  13.719  21.805  0.00  0.00    +0.000 C 
ATOM     14  C   UNL     1       0.828  11.493  20.494  0.00  0.00    +0.000 A 
ENDROOT
BRANCH   5  15
ATOM     15  N   UNL     1       2.715   7.057  19.994  0.00  0.00    +0.000 N 
ATOM     16  H   UNL     1       3.429   7.737  19.717  0.00  0.00    +0.000 HD
BRANCH  15  17
ATOM     17  C   UNL     1       2.872   5.690  19.511  0.00  0.00    +0.000 C 
ATOM     18  C   UNL     1       2.179   4.707  20.477  0.00  0.00    +0.000 C 
ATOM     19  C   UNL     1       2.340   3.265  19.974  0.00  0.00    +0.000 C 
ATOM     20  C   UNL     1       1.697   3.139  18.584  0.00  0.00    +0.000 C 
ATOM     21  C   UNL     1       2.380   4.102  17.598  0.00  0.00    +0.000 C 
ATOM     22  C   UNL     1       3.877   3.762  17.504  0.00  0.00    +0.000 C 
ATOM     23  C   UNL     1       4.533   3.886  18.888  0.00  0.00    +0.000 C 
ATOM     24  C   UNL     1       3.837   2.926  19.869  0.00  0.00    +0.000 C 
ATOM     25  C   UNL     1       4.373   5.327  19.394  0.00  0.00    +0.000 C 
ATOM     26  C   UNL     1       2.224   5.546  18.112  0.00  0.00    +0.000 C 
ENDBRANCH  15  17
ENDBRANCH   5  15
BRANCH  10  27
ATOM     27  O   UNL     1       2.711  13.965  17.609  0.00  0.00    +0.000 OA
ATOM     28  C   UNL     1       2.980  15.275  18.104  0.00  0.00    +0.000 C 
ENDBRANCH  10  27
BRANCH   1  29
ATOM     29  C   UNL     1      -0.129  10.932  22.815  0.00  0.00    +0.000 C 
BRANCH  29  30
ATOM     30  C   UNL     1      -1.638  10.870  23.138  0.00  0.00    +0.000 C 
BRANCH  30  31
ATOM     31  C   UNL     1      -2.369  12.152  22.764  0.00  0.00    +0.000 C 
BRANCH  31  33
ATOM     32  C   UNL     1      -4.190  13.738  23.463  0.00  0.00    +0.000 C 
ATOM     33  C   UNL     1      -3.486  12.430  23.771  0.00  0.00    +0.000 C 
ENDBRANCH  31  33
ENDBRANCH  30  31
ENDBRANCH  29  30
ENDBRANCH   1  29
TORSDOF 7
ENDMDL
MODEL 8
REMARK VINA RESULT:      -7.1      2.522      4.760
REMARK  Name = 
REMARK  10 active torsions:
REMARK  status: ('A' for Active; 'I' for Inactive)
REMARK    1  A    between atoms: C_1  and  C_2
REMARK    2  A    between atoms: C_2  and  C_3
REMARK    3  A    between atoms: C_3  and  C_4
REMARK    4  A    between atoms: C_4  and  C_5
REMARK    5  A    between atoms: C_5  and  N_6
REMARK    6  A    between atoms: C_10  and  N_11
REMARK    7  A    between atoms: N_11  and  C_12
REMARK    8  A    between atoms: C_26  and  O_27
REMARK    9  A    between atoms: O_27  and  C_28
REMARK   10  A    between atoms: C_30  and  C_31
REMARK                            x       y       z     vdW  Elec       q    Type
REMARK                         _______ _______ _______ _____ _____    ______ ____
ROOT
ATOM      1  N   UNL     1      -0.282  11.863  19.888  0.00  0.00    +0.000 N 
ATOM      2  C   UNL     1      -0.478  10.643  19.224  0.00  0.00    +0.000 C 
ATOM      3  O   UNL     1      -1.541  10.038  19.121  0.00  0.00    +0.000 OA
ATOM      4  C   UNL     1       0.780  10.015  18.815  0.00  0.00    +0.000 C 
ATOM      5  C   UNL     1       1.054   8.804  19.317  0.00  0.00    +0.000 C 
ATOM      6  C   UNL     1       1.810  10.829  18.198  0.00  0.00    +0.000 C 
ATOM      7  O   UNL     1       2.656  10.369  17.433  0.00  0.00    +0.000 OA
ATOM      8  C   UNL     1       1.802  12.240  18.619  0.00  0.00    +0.000 A 
ATOM      9  C   UNL     1       2.899  12.994  18.168  0.00  0.00    +0.000 A 
ATOM     10  C   UNL     1       3.070  14.289  18.600  0.00  0.00    +0.000 A 
ATOM     11  C   UNL     1       2.119  14.823  19.465  0.00  0.00    +0.000 A 
ATOM     12  C   UNL     1       0.979  14.097  19.911  0.00  0.00    +0.000 A 
ATOM     13  C   UNL     1       0.050  14.891  20.788  0.00  0.00    +0.000 C 
ATOM     14  C   UNL     1       0.814  12.745  19.507  0.00  0.00    +0.000 A 
ENDROOT
BRANCH   5  15
ATOM     15  N   UNL     1       2.252   8.121  19.307  0.00  0.00    +0.000 N 
ATOM     16  H   UNL     1       3.075   8.706  19.133  0.00  0.00    +0.000 HD
BRANCH  15  17
ATOM     17  C   UNL     1       2.427   6.677  19.212  0.00  0.00    +0.000 C 
ATOM     18  C   UNL     1       1.780   6.152  17.913  0.00  0.00    +0.000 C 
ATOM     19  C   UNL     1       1.962   4.630  17.806  0.00  0.00    +0.000 C 
ATOM     20  C   UNL     1       3.462   4.300  17.789  0.00  0.00    +0.000 C 
ATOM     21  C   UNL     1       4.129   4.803  19.081  0.00  0.00    +0.000 C 
ATOM     22  C   UNL     1       3.467   4.127  20.295  0.00  0.00    +0.000 C 
ATOM     23  C   UNL     1       1.966   4.451  20.324  0.00  0.00    +0.000 C 
ATOM     24  C   UNL     1       1.311   3.953  19.024  0.00  0.00    +0.000 C 
ATOM     25  C   UNL     1       1.781   5.972  20.431  0.00  0.00    +0.000 C 
ATOM     26  C   UNL     1       3.935   6.328  19.188  0.00  0.00    +0.000 C 
ENDBRANCH  15  17
ENDBRANCH   5  15
BRANCH  10  27
ATOM     27  O   UNL     1       4.106  15.113  18.266  0.00  0.00    +0.000 OA
ATOM     28  C   UNL     1       5.334  14.477  17.915  0.00  0.00    +0.000 C 
ENDBRANCH  10  27
BRANCH   1  29
ATOM     29  C   UNL     1      -1.209  12.156  20.983  0.00  0.00    +0.000 C 
BRANCH  29  30
ATOM     30  C   UNL     1      -0.607  11.944  22.390  0.00  0.00    +0.000 C 
BRANCH  30  31
ATOM     31  C   UNL     1      -1.160  10.706  23.082  0.00  0.00    +0.000 C 
BRANCH  31  33
ATOM     32  C   UNL     1      -0.533   8.437  22.200  0.00  0.00    +0.000 C 
ATOM     33  C   UNL     1      -0.110   9.595  23.084  0.00  0.00    +0.000 C 
ENDBRANCH  31  33
ENDBRANCH  30  31
ENDBRANCH  29  30
ENDBRANCH   1  29
TORSDOF 7
ENDMDL
MODEL 9
REMARK VINA RESULT:      -7.0      2.406      4.718
REMARK  Name = 
REMARK  10 active torsions:
REMARK  status: ('A' for Active; 'I' for Inactive)
REMARK    1  A    between atoms: C_1  and  C_2
REMARK    2  A    between atoms: C_2  and  C_3
REMARK    3  A    between atoms: C_3  and  C_4
REMARK    4  A    between atoms: C_4  and  C_5
REMARK    5  A    between atoms: C_5  and  N_6
REMARK    6  A    between atoms: C_10  and  N_11
REMARK    7  A    between atoms: N_11  and  C_12
REMARK    8  A    between atoms: C_26  and  O_27
REMARK    9  A    between atoms: O_27  and  C_28
REMARK   10  A    between atoms: C_30  and  C_31
REMARK                            x       y       z     vdW  Elec       q    Type
REMARK                         _______ _______ _______ _____ _____    ______ ____
ROOT
ATOM      1  N   UNL     1      -0.155  11.624  19.955  0.00  0.00    +0.000 N 
ATOM      2  C   UNL     1      -0.409  10.365  19.390  0.00  0.00    +0.000 C 
ATOM      3  O   UNL     1      -1.486   9.776  19.387  0.00  0.00    +0.000 OA
ATOM      4  C   UNL     1       0.814   9.685  18.956  0.00  0.00    +0.000 C 
ATOM      5  C   UNL     1       1.095   8.506  19.526  0.00  0.00    +0.000 C 
ATOM      6  C   UNL     1       1.822  10.433  18.229  0.00  0.00    +0.000 C 
ATOM      7  O   UNL     1       2.616   9.905  17.454  0.00  0.00    +0.000 OA
ATOM      8  C   UNL     1       1.860  11.870  18.551  0.00  0.00    +0.000 A 
ATOM      9  C   UNL     1       2.943  12.568  17.990  0.00  0.00    +0.000 A 
ATOM     10  C   UNL     1       3.159  13.886  18.321  0.00  0.00    +0.000 A 
ATOM     11  C   UNL     1       2.267  14.497  19.197  0.00  0.00    +0.000 A 
ATOM     12  C   UNL     1       1.142  13.827  19.754  0.00  0.00    +0.000 A 
ATOM     13  C   UNL     1       0.276  14.698  20.623  0.00  0.00    +0.000 C 
ATOM     14  C   UNL     1       0.932  12.454  19.454  0.00  0.00    +0.000 A 
ENDROOT
BRANCH   5  15
ATOM     15  N   UNL     1       2.279   7.799  19.499  0.00  0.00    +0.000 N 
ATOM     16  H   UNL     1       3.117   8.375  19.373  0.00  0.00    +0.000 HD
BRANCH  15  17
ATOM     17  C   UNL     1       2.427   6.359  19.324  0.00  0.00    +0.000 C 
ATOM     18  C   UNL     1       1.619   5.611  20.405  0.00  0.00    +0.000 C 
ATOM     19  C   UNL     1       1.770   4.093  20.227  0.00  0.00    +0.000 C 
ATOM     20  C   UNL     1       1.244   3.692  18.840  0.00  0.00    +0.000 C 
ATOM     21  C   UNL     1       2.043   4.416  17.743  0.00  0.00    +0.000 C 
ATOM     22  C   UNL     1       3.530   4.037  17.858  0.00  0.00    +0.000 C 
ATOM     23  C   UNL     1       4.069   4.435  19.241  0.00  0.00    +0.000 C 
ATOM     24  C   UNL     1       3.257   3.713  20.332  0.00  0.00    +0.000 C 
ATOM     25  C   UNL     1       3.919   5.953  19.422  0.00  0.00    +0.000 C 
ATOM     26  C   UNL     1       1.896   5.938  17.932  0.00  0.00    +0.000 C 
ENDBRANCH  15  17
ENDBRANCH   5  15
BRANCH  10  27
ATOM     27  O   UNL     1       4.189  14.663  17.874  0.00  0.00    +0.000 OA
ATOM     28  C   UNL     1       3.948  16.069  17.826  0.00  0.00    +0.000 C 
ENDBRANCH  10  27
BRANCH   1  29
ATOM     29  C   UNL     1      -1.014  12.009  21.076  0.00  0.00    +0.000 C 
BRANCH  29  30
ATOM     30  C   UNL     1      -0.726  11.240  22.383  0.00  0.00    +0.000 C 
BRANCH  30  31
ATOM     31  C   UNL     1      -1.846  11.381  23.405  0.00  0.00    +0.000 C 
BRANCH  31  33
ATOM     32  C   UNL     1      -3.937  12.655  23.975  0.00  0.00    +0.000 C 
ATOM     33  C   UNL     1      -2.802  12.498  22.981  0.00  0.00    +0.000 C 
ENDBRANCH  31  33
ENDBRANCH  30  31
ENDBRANCH  29  30
ENDBRANCH   1  29
TORSDOF 7
ENDMDL
