MODEL 1
REMARK VINA RESULT:      -7.0      0.000      0.000
REMARK  Name = 
REMARK  5 active torsions:
REMARK  status: ('A' for Active; 'I' for Inactive)
REMARK    1  A    between atoms: C_1  and  N_2
REMARK    2  A    between atoms: C_4  and  C_5
REMARK    3  A    between atoms: C_5  and  O_7
REMARK    4  A    between atoms: O_7  and  C_8
REMARK    5  A    between atoms: N_24  and  C_25
REMARK                            x       y       z     vdW  Elec       q    Type
REMARK                         _______ _______ _______ _____ _____    ______ ____
ROOT
ATOM      1  C   UNL     1       1.190  13.151  19.320  0.00  0.00    +0.000 C 
ATOM      2  N   UNL     1       0.831  11.762  19.258  0.00  0.00    +0.000 NA
ATOM      3  C   UNL     1       1.796  11.067  18.478  0.00  0.00    +0.000 C 
ATOM      4  C   UNL     1       1.319   9.689  18.046  0.00  0.00    +0.000 C 
ATOM      5  C   UNL     1      -0.113   9.272  17.722  0.00  0.00    +0.000 C 
ATOM      6  C   UNL     1      -1.100  10.054  18.544  0.00  0.00    +0.000 C 
ATOM      7  C   UNL     1      -2.289  10.630  17.797  0.00  0.00    +0.000 A 
ATOM      8  C   UNL     1      -2.811  10.244  16.550  0.00  0.00    +0.000 A 
ATOM      9  C   UNL     1      -4.038  10.754  16.088  0.00  0.00    +0.000 A 
ATOM     10  C   UNL     1      -4.810  11.623  16.866  0.00  0.00    +0.000 A 
ATOM     11  C   UNL     1      -4.305  11.982  18.100  0.00  0.00    +0.000 A 
ATOM     12  C   UNL     1      -3.063  11.513  18.551  0.00  0.00    +0.000 A 
ATOM     13  C   UNL     1      -2.789  12.029  19.814  0.00  0.00    +0.000 A 
ATOM     14  C   UNL     1      -3.927  12.682  20.227  0.00  0.00    +0.000 A 
ATOM     15  N   UNL     1      -4.785  12.740  19.149  0.00  0.00    +0.000 N 
ATOM     16  C   UNL     1      -5.992  13.541  19.116  0.00  0.00    +0.000 C 
ATOM     17  C   UNL     1      -1.512  11.724  20.500  0.00  0.00    +0.000 C 
ATOM     18  C   UNL     1      -0.419  11.050  19.612  0.00  0.00    +0.000 C 
ENDROOT
BRANCH   4  19
ATOM     19  C   UNL     1       1.856   8.677  19.131  0.00  0.00    +0.000 C 
ATOM     20  O   UNL     1       1.504   8.547  20.295  0.00  0.00    +0.000 OA
BRANCH  19  21
ATOM     21  O   UNL     1       2.933   7.985  18.519  0.00  0.00    +0.000 OA
BRANCH  21  22
ATOM     22  C   UNL     1       2.637   6.803  17.819  0.00  0.00    +0.000 C 
ATOM     23  C   UNL     1       3.979   6.514  17.051  0.00  0.00    +0.000 C 
ATOM     24  C   UNL     1       5.109   6.351  18.078  0.00  0.00    +0.000 C 
ATOM     25  C   UNL     1       4.814   5.310  19.162  0.00  0.00    +0.000 C 
ATOM     26  C   UNL     1       3.409   5.413  19.751  0.00  0.00    +0.000 C 
ATOM     27  C   UNL     1       2.355   5.565  18.664  0.00  0.00    +0.000 C 
ENDBRANCH  21  22
ENDBRANCH  19  21
ENDBRANCH   4  19
TORSDOF 3
ENDMDL
MODEL 2
REMARK VINA RESULT:      -7.0      0.864      1.455
REMARK  Name = 
REMARK  5 active torsions:
REMARK  status: ('A' for Active; 'I' for Inactive)
REMARK    1  A    between atoms: C_1  and  N_2
REMARK    2  A    between atoms: C_4  and  C_5
REMARK    3  A    between atoms: C_5  and  O_7
REMARK    4  A    between atoms: O_7  and  C_8
REMARK    5  A    between atoms: N_24  and  C_25
REMARK                            x       y       z     vdW  Elec       q    Type
REMARK                         _______ _______ _______ _____ _____    ______ ____
ROOT
ATOM      1  C   UNL     1       0.856  13.031  19.419  0.00  0.00    +0.000 C 
ATOM      2  N   UNL     1       0.587  11.627  19.293  0.00  0.00    +0.000 NA
ATOM      3  C   UNL     1       1.721  10.985  18.722  0.00  0.00    +0.000 C 
ATOM      4  C   UNL     1       1.409   9.588  18.209  0.00  0.00    +0.000 C 
ATOM      5  C   UNL     1       0.092   9.103  17.608  0.00  0.00    +0.000 C 
ATOM      6  C   UNL     1      -1.076   9.829  18.215  0.00  0.00    +0.000 C 
ATOM      7  C   UNL     1      -2.120  10.350  17.244  0.00  0.00    +0.000 A 
ATOM      8  C   UNL     1      -2.364   9.946  15.919  0.00  0.00    +0.000 A 
ATOM      9  C   UNL     1      -3.499  10.398  15.221  0.00  0.00    +0.000 A 
ATOM     10  C   UNL     1      -4.452  11.223  15.827  0.00  0.00    +0.000 A 
ATOM     11  C   UNL     1      -4.221  11.598  17.135  0.00  0.00    +0.000 A 
ATOM     12  C   UNL     1      -3.071  11.189  17.826  0.00  0.00    +0.000 A 
ATOM     13  C   UNL     1      -3.081  11.710  19.116  0.00  0.00    +0.000 A 
ATOM     14  C   UNL     1      -4.309  12.302  19.292  0.00  0.00    +0.000 A 
ATOM     15  N   UNL     1      -4.938  12.325  18.065  0.00  0.00    +0.000 N 
ATOM     16  C   UNL     1      -6.152  13.064  17.790  0.00  0.00    +0.000 C 
ATOM     17  C   UNL     1      -1.951  11.464  20.044  0.00  0.00    +0.000 C 
ATOM     18  C   UNL     1      -0.671  10.852  19.393  0.00  0.00    +0.000 C 
ENDROOT
BRANCH   4  19
ATOM     19  C   UNL     1       1.769   8.597  19.383  0.00  0.00    +0.000 C 
ATOM     20  O   UNL     1       1.709   8.788  20.589  0.00  0.00    +0.000 OA
BRANCH  19  21
ATOM     21  O   UNL     1       2.293   7.434  18.763  0.00  0.00    +0.000 OA
BRANCH  21  22
ATOM     22  C   UNL     1       2.856   6.448  19.593  0.00  0.00    +0.000 C 
ATOM     23  C   UNL     1       1.831   5.262  19.462  0.00  0.00    +0.000 C 
ATOM     24  C   UNL     1       1.747   4.846  17.986  0.00  0.00    +0.000 C 
ATOM     25  C   UNL     1       3.106   4.524  17.356  0.00  0.00    +0.000 C 
ATOM     26  C   UNL     1       4.195   5.542  17.684  0.00  0.00    +0.000 C 
ATOM     27  C   UNL     1       4.209   5.891  19.164  0.00  0.00    +0.000 C 
ENDBRANCH  21  22
ENDBRANCH  19  21
ENDBRANCH   4  19
TORSDOF 3
ENDMDL
MODEL 3
REMARK VINA RESULT:      -6.8      3.864      8.715
REMARK  Name = 
REMARK  5 active torsions:
REMARK  status: ('A' for Active; 'I' for Inactive)
REMARK    1  A    between atoms: C_1  and  N_2
REMARK    2  A    between atoms: C_4  and  C_5
REMARK    3  A    between atoms: C_5  and  O_7
REMARK    4  A    between atoms: O_7  and  C_8
REMARK    5  A    between atoms: N_24  and  C_25
REMARK                            x       y       z     vdW  Elec       q    Type
REMARK                         _______ _______ _______ _____ _____    ______ ____
ROOT
ATOM      1  C   UNL     1      -0.081  15.404  19.979  0.00  0.00    +0.000 C 
ATOM      2  N   UNL     1      -1.261  14.722  20.427  0.00  0.00    +0.000 NA
ATOM      3  C   UNL     1      -1.838  15.448  21.506  0.00  0.00    +0.000 C 
ATOM      4  C   UNL     1      -2.860  14.633  22.282  0.00  0.00    +0.000 C 
ATOM      5  C   UNL     1      -2.837  13.127  22.531  0.00  0.00    +0.000 C 
ATOM      6  C   UNL     1      -2.191  12.402  21.384  0.00  0.00    +0.000 C 
ATOM      7  C   UNL     1      -1.164  11.346  21.750  0.00  0.00    +0.000 A 
ATOM      8  C   UNL     1      -0.991  10.679  22.976  0.00  0.00    +0.000 A 
ATOM      9  C   UNL     1      -0.113   9.586  23.089  0.00  0.00    +0.000 A 
ATOM     10  C   UNL     1       0.584   9.088  21.983  0.00  0.00    +0.000 A 
ATOM     11  C   UNL     1       0.394   9.730  20.776  0.00  0.00    +0.000 A 
ATOM     12  C   UNL     1      -0.446  10.848  20.662  0.00  0.00    +0.000 A 
ATOM     13  C   UNL     1      -0.453  11.305  19.347  0.00  0.00    +0.000 A 
ATOM     14  C   UNL     1       0.244  10.380  18.606  0.00  0.00    +0.000 A 
ATOM     15  N   UNL     1       0.837   9.503  19.489  0.00  0.00    +0.000 N 
ATOM     16  C   UNL     1       1.834   8.523  19.111  0.00  0.00    +0.000 C 
ATOM     17  C   UNL     1      -1.229  12.509  18.965  0.00  0.00    +0.000 C 
ATOM     18  C   UNL     1      -1.775  13.359  20.155  0.00  0.00    +0.000 C 
ENDROOT
BRANCH   4  19
ATOM     19  C   UNL     1      -4.266  14.971  21.651  0.00  0.00    +0.000 C 
ATOM     20  O   UNL     1      -4.535  15.783  20.776  0.00  0.00    +0.000 OA
BRANCH  19  21
ATOM     21  O   UNL     1      -5.214  14.209  22.380  0.00  0.00    +0.000 OA
BRANCH  21  22
ATOM     22  C   UNL     1      -6.529  14.701  22.455  0.00  0.00    +0.000 C 
ATOM     23  C   UNL     1      -7.275  13.856  21.358  0.00  0.00    +0.000 C 
ATOM     24  C   UNL     1      -7.156  12.368  21.719  0.00  0.00    +0.000 C 
ATOM     25  C   UNL     1      -7.625  12.036  23.139  0.00  0.00    +0.000 C 
ATOM     26  C   UNL     1      -7.111  13.006  24.200  0.00  0.00    +0.000 C 
ATOM     27  C   UNL     1      -7.273  14.453  23.763  0.00  0.00    +0.000 C 
ENDBRANCH  21  22
ENDBRANCH  19  21
ENDBRANCH   4  19
TORSDOF 3
ENDMDL
MODEL 4
REMARK VINA RESULT:      -6.6      1.038      1.603
REMARK  Name = 
REMARK  5 active torsions:
REMARK  status: ('A' for Active; 'I' for Inactive)
REMARK    1  A    between atoms: C_1  and  N_2
REMARK    2  A    between atoms: C_4  and  C_5
REMARK    3  A    between atoms: C_5  and  O_7
REMARK    4  A    between atoms: O_7  and  C_8
REMARK    5  A    between atoms: N_24  and  C_25
REMARK                            x       y       z     vdW  Elec       q    Type
REMARK                         _______ _______ _______ _____ _____    ______ ____
ROOT
ATOM      1  C   UNL     1       2.021  12.613  18.909  0.00  0.00    +0.000 C 
ATOM      2  N   UNL     1       1.538  11.262  18.917  0.00  0.00    +0.000 NA
ATOM      3  C   UNL     1       2.267  10.501  17.961  0.00  0.00    +0.000 C 
ATOM      4  C   UNL     1       1.596   9.177  17.630  0.00  0.00    +0.000 C 
ATOM      5  C   UNL     1       0.097   8.891  17.592  0.00  0.00    +0.000 C 
ATOM      6  C   UNL     1      -0.638   9.738  18.592  0.00  0.00    +0.000 C 
ATOM      7  C   UNL     1      -1.895  10.428  18.093  0.00  0.00    +0.000 A 
ATOM      8  C   UNL     1      -2.681  10.111  16.972  0.00  0.00    +0.000 A 
ATOM      9  C   UNL     1      -3.926  10.732  16.760  0.00  0.00    +0.000 A 
ATOM     10  C   UNL     1      -4.452  11.650  17.676  0.00  0.00    +0.000 A 
ATOM     11  C   UNL     1      -3.687  11.941  18.787  0.00  0.00    +0.000 A 
ATOM     12  C   UNL     1      -2.426  11.359  18.986  0.00  0.00    +0.000 A 
ATOM     13  C   UNL     1      -1.868  11.827  20.172  0.00  0.00    +0.000 A 
ATOM     14  C   UNL     1      -2.841  12.566  20.800  0.00  0.00    +0.000 A 
ATOM     15  N   UNL     1      -3.885  12.718  19.911  0.00  0.00    +0.000 N 
ATOM     16  C   UNL     1      -5.000  13.619  20.116  0.00  0.00    +0.000 C 
ATOM     17  C   UNL     1      -0.512  11.401  20.594  0.00  0.00    +0.000 C 
ATOM     18  C   UNL     1       0.323  10.653  19.508  0.00  0.00    +0.000 C 
ENDROOT
BRANCH   4  19
ATOM     19  C   UNL     1       2.244   8.103  18.587  0.00  0.00    +0.000 C 
ATOM     20  O   UNL     1       2.148   8.006  19.802  0.00  0.00    +0.000 OA
BRANCH  19  21
ATOM     21  O   UNL     1       3.073   7.298  17.764  0.00  0.00    +0.000 OA
BRANCH  21  22
ATOM     22  C   UNL     1       4.300   6.866  18.297  0.00  0.00    +0.000 C 
ATOM     23  C   UNL     1       3.995   5.376  18.698  0.00  0.00    +0.000 C 
ATOM     24  C   UNL     1       3.568   4.605  17.440  0.00  0.00    +0.000 C 
ATOM     25  C   UNL     1       4.564   4.712  16.281  0.00  0.00    +0.000 C 
ATOM     26  C   UNL     1       5.073   6.130  16.034  0.00  0.00    +0.000 C 
ATOM     27  C   UNL     1       5.479   6.814  17.330  0.00  0.00    +0.000 C 
ENDBRANCH  21  22
ENDBRANCH  19  21
ENDBRANCH   4  19
TORSDOF 3
ENDMDL
MODEL 5
REMARK VINA RESULT:      -6.5      4.191      8.555
REMARK  Name = 
REMARK  5 active torsions:
REMARK  status: ('A' for Active; 'I' for Inactive)
REMARK    1  A    between atoms: C_1  and  N_2
REMARK    2  A    between atoms: C_4  and  C_5
REMARK    3  A    between atoms: C_5  and  O_7
REMARK    4  A    between atoms: O_7  and  C_8
REMARK    5  A    between atoms: N_24  and  C_25
REMARK                            x       y       z     vdW  Elec       q    Type
REMARK                         _______ _______ _______ _____ _____    ______ ____
ROOT
ATOM      1  C   UNL     1       1.378  15.430  21.859  0.00  0.00    +0.000 C 
ATOM      2  N   UNL     1       0.031  14.973  22.059  0.00  0.00    +0.000 NA
ATOM      3  C   UNL     1      -0.431  15.426  23.326  0.00  0.00    +0.000 C 
ATOM      4  C   UNL     1      -1.683  14.699  23.788  0.00  0.00    +0.000 C 
ATOM      5  C   UNL     1      -2.058  13.246  23.509  0.00  0.00    +0.000 C 
ATOM      6  C   UNL     1      -1.523  12.799  22.177  0.00  0.00    +0.000 C 
ATOM      7  C   UNL     1      -0.826  11.450  22.152  0.00  0.00    +0.000 A 
ATOM      8  C   UNL     1      -0.925  10.395  23.076  0.00  0.00    +0.000 A 
ATOM      9  C   UNL     1      -0.360   9.136  22.802  0.00  0.00    +0.000 A 
ATOM     10  C   UNL     1       0.277   8.868  21.587  0.00  0.00    +0.000 A 
ATOM     11  C   UNL     1       0.352   9.899  20.672  0.00  0.00    +0.000 A 
ATOM     12  C   UNL     1      -0.170  11.170  20.953  0.00  0.00    +0.000 A 
ATOM     13  C   UNL     1       0.045  12.022  19.873  0.00  0.00    +0.000 A 
ATOM     14  C   UNL     1       0.546  11.246  18.855  0.00  0.00    +0.000 A 
ATOM     15  N   UNL     1       0.828  10.003  19.380  0.00  0.00    +0.000 N 
ATOM     16  C   UNL     1       1.574   8.977  18.682  0.00  0.00    +0.000 C 
ATOM     17  C   UNL     1      -0.372  13.443  19.931  0.00  0.00    +0.000 C 
ATOM     18  C   UNL     1      -0.783  13.964  21.344  0.00  0.00    +0.000 C 
ENDROOT
BRANCH   4  19
ATOM     19  C   UNL     1      -2.904  15.584  23.323  0.00  0.00    +0.000 C 
ATOM     20  O   UNL     1      -2.920  16.773  23.036  0.00  0.00    +0.000 OA
BRANCH  19  21
ATOM     21  O   UNL     1      -4.045  14.745  23.398  0.00  0.00    +0.000 OA
BRANCH  21  22
ATOM     22  C   UNL     1      -5.271  15.267  22.951  0.00  0.00    +0.000 C 
ATOM     23  C   UNL     1      -5.379  14.688  21.492  0.00  0.00    +0.000 C 
ATOM     24  C   UNL     1      -5.358  13.155  21.569  0.00  0.00    +0.000 C 
ATOM     25  C   UNL     1      -6.410  12.568  22.516  0.00  0.00    +0.000 C 
ATOM     26  C   UNL     1      -6.498  13.286  23.860  0.00  0.00    +0.000 C 
ATOM     27  C   UNL     1      -6.520  14.797  23.689  0.00  0.00    +0.000 C 
ENDBRANCH  21  22
ENDBRANCH  19  21
ENDBRANCH   4  19
TORSDOF 3
ENDMDL
MODEL 6
REMARK VINA RESULT:      -6.5      3.956      8.750
REMARK  Name = 
REMARK  5 active torsions:
REMARK  status: ('A' for Active; 'I' for Inactive)
REMARK    1  A    between atoms: C_1  and  N_2
REMARK    2  A    between atoms: C_4  and  C_5
REMARK    3  A    between atoms: C_5  and  O_7
REMARK    4  A    between atoms: O_7  and  C_8
REMARK    5  A    between atoms: N_24  and  C_25
REMARK                            x       y       z     vdW  Elec       q    Type
REMARK                         _______ _______ _______ _____ _____    ______ ____
ROOT
ATOM      1  C   UNL     1       0.701  15.369  20.377  0.00  0.00    +0.000 C 
ATOM      2  N   UNL     1      -0.563  14.802  20.751  0.00  0.00    +0.000 NA
ATOM      3  C   UNL     1      -1.088  15.523  21.859  0.00  0.00    +0.000 C 
ATOM      4  C   UNL     1      -2.220  14.786  22.557  0.00  0.00    +0.000 C 
ATOM      5  C   UNL     1      -2.376  13.275  22.710  0.00  0.00    +0.000 C 
ATOM      6  C   UNL     1      -1.780  12.551  21.535  0.00  0.00    +0.000 C 
ATOM      7  C   UNL     1      -0.891  11.363  21.859  0.00  0.00    +0.000 A 
ATOM      8  C   UNL     1      -0.835  10.609  23.044  0.00  0.00    +0.000 A 
ATOM      9  C   UNL     1      -0.090   9.417  23.110  0.00  0.00    +0.000 A 
ATOM     10  C   UNL     1       0.581   8.910  21.993  0.00  0.00    +0.000 A 
ATOM     11  C   UNL     1       0.504   9.641  20.825  0.00  0.00    +0.000 A 
ATOM     12  C   UNL     1      -0.200  10.853  20.760  0.00  0.00    +0.000 A 
ATOM     13  C   UNL     1      -0.112  11.386  19.478  0.00  0.00    +0.000 A 
ATOM     14  C   UNL     1       0.498  10.434  18.697  0.00  0.00    +0.000 A 
ATOM     15  N   UNL     1       0.960   9.443  19.537  0.00  0.00    +0.000 N 
ATOM     16  C   UNL     1       1.850   8.378  19.122  0.00  0.00    +0.000 C 
ATOM     17  C   UNL     1      -0.734  12.692  19.153  0.00  0.00    +0.000 C 
ATOM     18  C   UNL     1      -1.219  13.526  20.380  0.00  0.00    +0.000 C 
ENDROOT
BRANCH   4  19
ATOM     19  C   UNL     1      -3.558  15.321  21.913  0.00  0.00    +0.000 C 
ATOM     20  O   UNL     1      -3.708  16.235  21.114  0.00  0.00    +0.000 OA
BRANCH  19  21
ATOM     21  O   UNL     1      -4.606  14.591  22.529  0.00  0.00    +0.000 OA
BRANCH  21  22
ATOM     22  C   UNL     1      -5.768  14.354  21.774  0.00  0.00    +0.000 C 
ATOM     23  C   UNL     1      -6.139  12.877  22.171  0.00  0.00    +0.000 C 
ATOM     24  C   UNL     1      -6.371  12.819  23.688  0.00  0.00    +0.000 C 
ATOM     25  C   UNL     1      -7.392  13.841  24.197  0.00  0.00    +0.000 C 
ATOM     26  C   UNL     1      -7.202  15.242  23.621  0.00  0.00    +0.000 C 
ATOM     27  C   UNL     1      -6.986  15.206  22.116  0.00  0.00    +0.000 C 
ENDBRANCH  21  22
ENDBRANCH  19  21
ENDBRANCH   4  19
TORSDOF 3
ENDMDL
MODEL 7
REMARK VINA RESULT:      -6.4      3.865      7.519
REMARK  Name = 
REMARK  5 active torsions:
REMARK  status: ('A' for Active; 'I' for Inactive)
REMARK    1  A    between atoms: C_1  and  N_2
REMARK    2  A    between atoms: C_4  and  C_5
REMARK    3  A    between atoms: C_5  and  O_7
REMARK    4  A    between atoms: O_7  and  C_8
REMARK    5  A    between atoms: N_24  and  C_25
REMARK                            x       y       z     vdW  Elec       q    Type
REMARK                         _______ _______ _______ _____ _____    ______ ____
ROOT
ATOM      1  C   UNL     1      -0.167   9.820  21.116  0.00  0.00    +0.000 C 
ATOM      2  N   UNL     1      -0.607  11.187  21.116  0.00  0.00    +0.000 NA
ATOM      3  C   UNL     1      -0.860  11.595  22.455  0.00  0.00    +0.000 C 
ATOM      4  C   UNL     1      -1.671  12.878  22.535  0.00  0.00    +0.000 C 
ATOM      5  C   UNL     1      -2.752  13.344  21.563  0.00  0.00    +0.000 C 
ATOM      6  C   UNL     1      -2.464  12.864  20.168  0.00  0.00    +0.000 C 
ATOM      7  C   UNL     1      -3.630  12.248  19.415  0.00  0.00    +0.000 A 
ATOM      8  C   UNL     1      -5.006  12.391  19.664  0.00  0.00    +0.000 A 
ATOM      9  C   UNL     1      -5.962  11.907  18.751  0.00  0.00    +0.000 A 
ATOM     10  C   UNL     1      -5.586  11.313  17.543  0.00  0.00    +0.000 A 
ATOM     11  C   UNL     1      -4.233  11.196  17.292  0.00  0.00    +0.000 A 
ATOM     12  C   UNL     1      -3.273  11.635  18.214  0.00  0.00    +0.000 A 
ATOM     13  C   UNL     1      -1.994  11.393  17.721  0.00  0.00    +0.000 A 
ATOM     14  C   UNL     1      -2.147  10.961  16.425  0.00  0.00    +0.000 A 
ATOM     15  N   UNL     1      -3.493  10.742  16.218  0.00  0.00    +0.000 N 
ATOM     16  C   UNL     1      -4.036  10.072  15.054  0.00  0.00    +0.000 C 
ATOM     17  C   UNL     1      -0.794  11.724  18.525  0.00  0.00    +0.000 C 
ATOM     18  C   UNL     1      -1.066  12.074  20.022  0.00  0.00    +0.000 C 
ENDROOT
BRANCH   4  19
ATOM     19  C   UNL     1      -0.625  14.054  22.654  0.00  0.00    +0.000 C 
ATOM     20  O   UNL     1       0.596  13.997  22.613  0.00  0.00    +0.000 OA
BRANCH  19  21
ATOM     21  O   UNL     1      -1.382  15.221  22.931  0.00  0.00    +0.000 OA
BRANCH  21  22
ATOM     22  C   UNL     1      -1.026  15.978  24.061  0.00  0.00    +0.000 C 
ATOM     23  C   UNL     1      -1.826  17.316  23.844  0.00  0.00    +0.000 C 
ATOM     24  C   UNL     1      -3.324  16.986  23.774  0.00  0.00    +0.000 C 
ATOM     25  C   UNL     1      -3.837  16.180  24.971  0.00  0.00    +0.000 C 
ATOM     26  C   UNL     1      -2.932  15.014  25.362  0.00  0.00    +0.000 C 
ATOM     27  C   UNL     1      -1.471  15.431  25.413  0.00  0.00    +0.000 C 
ENDBRANCH  21  22
ENDBRANCH  19  21
ENDBRANCH   4  19
TORSDOF 3
ENDMDL
MODEL 8
REMARK VINA RESULT:      -6.4      4.402      8.047
REMARK  Name = 
REMARK  5 active torsions:
REMARK  status: ('A' for Active; 'I' for Inactive)
REMARK    1  A    between atoms: C_1  and  N_2
REMARK    2  A    between atoms: C_4  and  C_5
REMARK    3  A    between atoms: C_5  and  O_7
REMARK    4  A    between atoms: O_7  and  C_8
REMARK    5  A    between atoms: N_24  and  C_25
REMARK                            x       y       z     vdW  Elec       q    Type
REMARK                         _______ _______ _______ _____ _____    ______ ____
ROOT
ATOM      1  C   UNL     1      -0.469  10.227  21.691  0.00  0.00    +0.000 C 
ATOM      2  N   UNL     1      -1.147  11.490  21.755  0.00  0.00    +0.000 NA
ATOM      3  C   UNL     1      -1.610  11.703  23.084  0.00  0.00    +0.000 C 
ATOM      4  C   UNL     1      -2.645  12.813  23.174  0.00  0.00    +0.000 C 
ATOM      5  C   UNL     1      -3.684  13.189  22.121  0.00  0.00    +0.000 C 
ATOM      6  C   UNL     1      -3.168  12.917  20.735  0.00  0.00    +0.000 C 
ATOM      7  C   UNL     1      -4.116  12.195  19.795  0.00  0.00    +0.000 A 
ATOM      8  C   UNL     1      -5.514  12.073  19.885  0.00  0.00    +0.000 A 
ATOM      9  C   UNL     1      -6.264  11.534  18.823  0.00  0.00    +0.000 A 
ATOM     10  C   UNL     1      -5.660  11.145  17.623  0.00  0.00    +0.000 A 
ATOM     11  C   UNL     1      -4.291  11.289  17.530  0.00  0.00    +0.000 A 
ATOM     12  C   UNL     1      -3.529  11.784  18.598  0.00  0.00    +0.000 A 
ATOM     13  C   UNL     1      -2.183  11.819  18.247  0.00  0.00    +0.000 A 
ATOM     14  C   UNL     1      -2.117  11.507  16.909  0.00  0.00    +0.000 A 
ATOM     15  N   UNL     1      -3.371  11.085  16.521  0.00  0.00    +0.000 N 
ATOM     16  C   UNL     1      -3.657  10.461  15.245  0.00  0.00    +0.000 C 
ATOM     17  C   UNL     1      -1.154  12.262  19.218  0.00  0.00    +0.000 C 
ATOM     18  C   UNL     1      -1.642  12.398  20.695  0.00  0.00    +0.000 C 
ENDROOT
BRANCH   4  19
ATOM     19  C   UNL     1      -1.849  14.131  23.522  0.00  0.00    +0.000 C 
ATOM     20  O   UNL     1      -0.797  14.248  24.135  0.00  0.00    +0.000 OA
BRANCH  19  21
ATOM     21  O   UNL     1      -2.656  15.205  23.068  0.00  0.00    +0.000 OA
BRANCH  21  22
ATOM     22  C   UNL     1      -2.747  16.345  23.885  0.00  0.00    +0.000 C 
ATOM     23  C   UNL     1      -3.006  17.495  22.841  0.00  0.00    +0.000 C 
ATOM     24  C   UNL     1      -4.302  17.183  22.078  0.00  0.00    +0.000 C 
ATOM     25  C   UNL     1      -5.509  16.926  22.987  0.00  0.00    +0.000 C 
ATOM     26  C   UNL     1      -5.209  16.003  24.164  0.00  0.00    +0.000 C 
ATOM     27  C   UNL     1      -3.915  16.388  24.864  0.00  0.00    +0.000 C 
ENDBRANCH  21  22
ENDBRANCH  19  21
ENDBRANCH   4  19
TORSDOF 3
ENDMDL
MODEL 9
REMARK VINA RESULT:      -6.4      3.637      8.185
REMARK  Name = 
REMARK  5 active torsions:
REMARK  status: ('A' for Active; 'I' for Inactive)
REMARK    1  A    between atoms: C_1  and  N_2
REMARK    2  A    between atoms: C_4  and  C_5
REMARK    3  A    between atoms: C_5  and  O_7
REMARK    4  A    between atoms: O_7  and  C_8
REMARK    5  A    between atoms: N_24  and  C_25
REMARK                            x       y       z     vdW  Elec       q    Type
REMARK                         _______ _______ _______ _____ _____    ______ ____
ROOT
ATOM      1  C   UNL     1       0.462  15.343  19.683  0.00  0.00    +0.000 C 
ATOM      2  N   UNL     1      -0.818  14.800  20.040  0.00  0.00    +0.000 NA
ATOM      3  C   UNL     1      -1.440  15.659  20.988  0.00  0.00    +0.000 C 
ATOM      4  C   UNL     1      -2.611  14.998  21.698  0.00  0.00    +0.000 C 
ATOM      5  C   UNL     1      -2.753  13.522  22.058  0.00  0.00    +0.000 C 
ATOM      6  C   UNL     1      -2.055  12.653  21.050  0.00  0.00    +0.000 C 
ATOM      7  C   UNL     1      -1.174  11.550  21.610  0.00  0.00    +0.000 A 
ATOM      8  C   UNL     1      -1.199  10.976  22.894  0.00  0.00    +0.000 A 
ATOM      9  C   UNL     1      -0.442   9.827  23.189  0.00  0.00    +0.000 A 
ATOM     10  C   UNL     1       0.324   9.183  22.212  0.00  0.00    +0.000 A 
ATOM     11  C   UNL     1       0.326   9.736  20.947  0.00  0.00    +0.000 A 
ATOM     12  C   UNL     1      -0.391  10.905  20.653  0.00  0.00    +0.000 A 
ATOM     13  C   UNL     1      -0.211  11.250  19.317  0.00  0.00    +0.000 A 
ATOM     14  C   UNL     1       0.474  10.213  18.731  0.00  0.00    +0.000 A 
ATOM     15  N   UNL     1       0.885   9.366  19.740  0.00  0.00    +0.000 N 
ATOM     16  C   UNL     1       1.823   8.279  19.553  0.00  0.00    +0.000 C 
ATOM     17  C   UNL     1      -0.828  12.477  18.759  0.00  0.00    +0.000 C 
ATOM     18  C   UNL     1      -1.421  13.466  19.811  0.00  0.00    +0.000 C 
ENDROOT
BRANCH   4  19
ATOM     19  C   UNL     1      -3.903  15.398  20.885  0.00  0.00    +0.000 C 
ATOM     20  O   UNL     1      -4.171  16.466  20.354  0.00  0.00    +0.000 OA
BRANCH  19  21
ATOM     21  O   UNL     1      -4.777  14.284  20.969  0.00  0.00    +0.000 OA
BRANCH  21  22
ATOM     22  C   UNL     1      -6.047  14.404  20.380  0.00  0.00    +0.000 C 
ATOM     23  C   UNL     1      -5.960  13.402  19.170  0.00  0.00    +0.000 C 
ATOM     24  C   UNL     1      -5.668  11.996  19.715  0.00  0.00    +0.000 C 
ATOM     25  C   UNL     1      -6.653  11.534  20.794  0.00  0.00    +0.000 C 
ATOM     26  C   UNL     1      -6.950  12.594  21.852  0.00  0.00    +0.000 C 
ATOM     27  C   UNL     1      -7.234  13.949  21.224  0.00  0.00    +0.000 C 
ENDBRANCH  21  22
ENDBRANCH  19  21
ENDBRANCH   4  19
TORSDOF 3
ENDMDL
