MODEL 1
REMARK VINA RESULT:      -7.8      0.000      0.000
REMARK  Name = 
REMARK  12 active torsions:
REMARK  status: ('A' for Active; 'I' for Inactive)
REMARK    1  A    between atoms: C_1  and  O_2
REMARK    2  A    between atoms: O_2  and  C_3
REMARK    3  A    between atoms: C_6  and  S_7
REMARK    4  A    between atoms: S_7  and  C_8
REMARK    5  A    between atoms: C_8  and  C_9
REMARK    6  A    between atoms: C_9  and  C_10
REMARK    7  A    between atoms: C_9  and  N_17
REMARK    8  A    between atoms: C_10  and  C_11
REMARK    9  A    between atoms: N_20  and  C_21
REMARK   10  A    between atoms: C_21  and  C_22
REMARK   11  A    between atoms: C_22  and  C_23
REMARK   12  A    between atoms: C_22  and  C_24
REMARK                            x       y       z     vdW  Elec       q    Type
REMARK                         _______ _______ _______ _____ _____    ______ ____
ROOT
ATOM      1  C   UNL     1       4.401   5.862  18.739  0.00  0.00    +0.000 C 
ENDROOT
BRANCH   1   2
ATOM      2  N   UNL     1       5.087   5.623  17.409  0.00  0.00    +0.000 N 
ATOM      3  C   UNL     1       4.413   4.691  16.497  0.00  0.00    +0.000 C 
ATOM      4  C   UNL     1       5.228   3.466  16.058  0.00  0.00    +0.000 C 
ATOM      5  N   UNL     1       6.201   3.696  14.976  0.00  0.00    +0.000 NA
ATOM      6  C   UNL     1       7.267   4.582  15.451  0.00  0.00    +0.000 C 
ATOM      7  C   UNL     1       6.873   6.032  15.678  0.00  0.00    +0.000 C 
ATOM      8  C   UNL     1       6.232   6.322  17.018  0.00  0.00    +0.000 C 
ATOM      9  O   UNL     1       6.762   7.206  17.698  0.00  0.00    +0.000 OA
BRANCH   5  10
ATOM     10  C   UNL     1       5.531   4.126  13.733  0.00  0.00    +0.000 C 
BRANCH  10  11
ATOM     11  C   UNL     1       5.720   3.254  12.475  0.00  0.00    +0.000 C 
ATOM     12  C   UNL     1       4.528   3.326  11.526  0.00  0.00    +0.000 C 
ATOM     13  C   UNL     1       6.995   3.713  11.755  0.00  0.00    +0.000 C 
ENDBRANCH  10  11
ENDBRANCH   5  10
ENDBRANCH   1   2
BRANCH   1  14
ATOM     14  C   UNL     1       2.945   6.384  18.627  0.00  0.00    +0.000 C 
BRANCH  14  15
ATOM     15  S   UNL     1       2.729   7.998  17.799  0.00  0.00    +0.000 S 
BRANCH  15  19
ATOM     16  C   UNL     1       0.026   9.951  20.960  0.00  0.00    +0.000 A 
ATOM     17  C   UNL     1       0.234  10.602  19.744  0.00  0.00    +0.000 A 
ATOM     18  C   UNL     1       1.084  10.046  18.781  0.00  0.00    +0.000 A 
ATOM     19  C   UNL     1       1.748   8.840  19.037  0.00  0.00    +0.000 A 
ATOM     20  C   UNL     1       1.592   8.235  20.286  0.00  0.00    +0.000 A 
ATOM     21  C   UNL     1       0.738   8.788  21.247  0.00  0.00    +0.000 A 
BRANCH  16  23
ATOM     22  C   UNL     1      -0.745  10.146  23.171  0.00  0.00    +0.000 C 
ATOM     23  O   UNL     1      -0.877  10.536  21.806  0.00  0.00    +0.000 OA
ENDBRANCH  16  23
ENDBRANCH  15  19
ENDBRANCH  14  15
ENDBRANCH   1  14
BRANCH   1  24
ATOM     24  C   UNL     1       4.531   4.661  19.744  0.00  0.00    +0.000 C 
BRANCH  24  25
ATOM     25  C   UNL     1       3.285   3.819  19.889  0.00  0.00    +0.000 A 
ATOM     26  C   UNL     1       3.024   2.768  19.006  0.00  0.00    +0.000 A 
ATOM     27  C   UNL     1       1.803   2.094  19.044  0.00  0.00    +0.000 A 
ATOM     28  C   UNL     1       0.847   2.449  19.990  0.00  0.00    +0.000 A 
ATOM     29  C   UNL     1       1.133   3.437  20.928  0.00  0.00    +0.000 A 
ATOM     30  C   UNL     1       2.349   4.114  20.885  0.00  0.00    +0.000 A 
ENDBRANCH  24  25
ENDBRANCH   1  24
TORSDOF 9
ENDMDL
MODEL 2
REMARK VINA RESULT:      -7.8      0.913      1.389
REMARK  Name = 
REMARK  12 active torsions:
REMARK  status: ('A' for Active; 'I' for Inactive)
REMARK    1  A    between atoms: C_1  and  O_2
REMARK    2  A    between atoms: O_2  and  C_3
REMARK    3  A    between atoms: C_6  and  S_7
REMARK    4  A    between atoms: S_7  and  C_8
REMARK    5  A    between atoms: C_8  and  C_9
REMARK    6  A    between atoms: C_9  and  C_10
REMARK    7  A    between atoms: C_9  and  N_17
REMARK    8  A    between atoms: C_10  and  C_11
REMARK    9  A    between atoms: N_20  and  C_21
REMARK   10  A    between atoms: C_21  and  C_22
REMARK   11  A    between atoms: C_22  and  C_23
REMARK   12  A    between atoms: C_22  and  C_24
REMARK                            x       y       z     vdW  Elec       q    Type
REMARK                         _______ _______ _______ _____ _____    ______ ____
ROOT
ATOM      1  C   UNL     1       3.744   6.354  18.210  0.00  0.00    +0.000 C 
ENDROOT
BRANCH   1   2
ATOM      2  N   UNL     1       4.817   5.918  17.233  0.00  0.00    +0.000 N 
ATOM      3  C   UNL     1       4.351   5.182  16.052  0.00  0.00    +0.000 C 
ATOM      4  C   UNL     1       4.938   3.777  15.854  0.00  0.00    +0.000 C 
ATOM      5  N   UNL     1       6.284   3.723  15.258  0.00  0.00    +0.000 NA
ATOM      6  C   UNL     1       7.259   4.302  16.186  0.00  0.00    +0.000 C 
ATOM      7  C   UNL     1       7.184   5.809  16.372  0.00  0.00    +0.000 C 
ATOM      8  C   UNL     1       6.159   6.282  17.380  0.00  0.00    +0.000 C 
ATOM      9  O   UNL     1       6.578   7.005  18.289  0.00  0.00    +0.000 OA
BRANCH   5  10
ATOM     10  C   UNL     1       6.293   4.293  13.897  0.00  0.00    +0.000 C 
BRANCH  10  11
ATOM     11  C   UNL     1       6.083   3.329  12.711  0.00  0.00    +0.000 C 
ATOM     12  C   UNL     1       4.719   3.502  12.050  0.00  0.00    +0.000 C 
ATOM     13  C   UNL     1       7.200   3.571  11.686  0.00  0.00    +0.000 C 
ENDBRANCH  10  11
ENDBRANCH   5  10
ENDBRANCH   1   2
BRANCH   1  14
ATOM     14  C   UNL     1       3.545   7.889  18.303  0.00  0.00    +0.000 C 
BRANCH  14  15
ATOM     15  S   UNL     1       1.919   8.524  17.766  0.00  0.00    +0.000 S 
BRANCH  15  19
ATOM     16  C   UNL     1       0.319   9.952  21.830  0.00  0.00    +0.000 A 
ATOM     17  C   UNL     1       1.105   8.801  21.772  0.00  0.00    +0.000 A 
ATOM     18  C   UNL     1       1.572   8.325  20.542  0.00  0.00    +0.000 A 
ATOM     19  C   UNL     1       1.238   8.988  19.355  0.00  0.00    +0.000 A 
ATOM     20  C   UNL     1       0.388  10.095  19.416  0.00  0.00    +0.000 A 
ATOM     21  C   UNL     1      -0.074  10.575  20.647  0.00  0.00    +0.000 A 
BRANCH  16  23
ATOM     22  C   UNL     1      -1.287  11.043  23.153  0.00  0.00    +0.000 C 
ATOM     23  O   UNL     1      -0.027  10.378  23.083  0.00  0.00    +0.000 OA
ENDBRANCH  16  23
ENDBRANCH  15  19
ENDBRANCH  14  15
ENDBRANCH   1  14
BRANCH   1  24
ATOM     24  C   UNL     1       2.385   5.583  18.043  0.00  0.00    +0.000 C 
BRANCH  24  25
ATOM     25  C   UNL     1       2.091   4.575  19.129  0.00  0.00    +0.000 A 
ATOM     26  C   UNL     1       1.315   3.443  18.865  0.00  0.00    +0.000 A 
ATOM     27  C   UNL     1       0.914   2.598  19.900  0.00  0.00    +0.000 A 
ATOM     28  C   UNL     1       1.317   2.864  21.205  0.00  0.00    +0.000 A 
ATOM     29  C   UNL     1       2.161   3.941  21.463  0.00  0.00    +0.000 A 
ATOM     30  C   UNL     1       2.554   4.788  20.431  0.00  0.00    +0.000 A 
ENDBRANCH  24  25
ENDBRANCH   1  24
TORSDOF 9
ENDMDL
MODEL 3
REMARK VINA RESULT:      -7.5      1.294      1.709
REMARK  Name = 
REMARK  12 active torsions:
REMARK  status: ('A' for Active; 'I' for Inactive)
REMARK    1  A    between atoms: C_1  and  O_2
REMARK    2  A    between atoms: O_2  and  C_3
REMARK    3  A    between atoms: C_6  and  S_7
REMARK    4  A    between atoms: S_7  and  C_8
REMARK    5  A    between atoms: C_8  and  C_9
REMARK    6  A    between atoms: C_9  and  C_10
REMARK    7  A    between atoms: C_9  and  N_17
REMARK    8  A    between atoms: C_10  and  C_11
REMARK    9  A    between atoms: N_20  and  C_21
REMARK   10  A    between atoms: C_21  and  C_22
REMARK   11  A    between atoms: C_22  and  C_23
REMARK   12  A    between atoms: C_22  and  C_24
REMARK                            x       y       z     vdW  Elec       q    Type
REMARK                         _______ _______ _______ _____ _____    ______ ____
ROOT
ATOM      1  C   UNL     1       3.574   6.619  18.373  0.00  0.00    +0.000 C 
ENDROOT
BRANCH   1   2
ATOM      2  N   UNL     1       4.807   6.035  17.714  0.00  0.00    +0.000 N 
ATOM      3  C   UNL     1       4.829   6.068  16.247  0.00  0.00    +0.000 C 
ATOM      4  C   UNL     1       4.975   4.713  15.541  0.00  0.00    +0.000 C 
ATOM      5  N   UNL     1       6.342   4.170  15.469  0.00  0.00    +0.000 NA
ATOM      6  C   UNL     1       6.810   3.832  16.816  0.00  0.00    +0.000 C 
ATOM      7  C   UNL     1       7.110   5.009  17.729  0.00  0.00    +0.000 C 
ATOM      8  C   UNL     1       5.910   5.588  18.448  0.00  0.00    +0.000 C 
ATOM      9  O   UNL     1       5.989   5.656  19.677  0.00  0.00    +0.000 OA
BRANCH   5  10
ATOM     10  C   UNL     1       7.233   5.056  14.696  0.00  0.00    +0.000 C 
BRANCH  10  11
ATOM     11  C   UNL     1       7.030   5.126  13.169  0.00  0.00    +0.000 C 
ATOM     12  C   UNL     1       8.248   5.684  12.440  0.00  0.00    +0.000 C 
ATOM     13  C   UNL     1       6.710   3.715  12.657  0.00  0.00    +0.000 C 
ENDBRANCH  10  11
ENDBRANCH   5  10
ENDBRANCH   1   2
BRANCH   1  14
ATOM     14  C   UNL     1       3.379   8.139  18.138  0.00  0.00    +0.000 C 
BRANCH  14  15
ATOM     15  S   UNL     1       1.687   8.676  17.707  0.00  0.00    +0.000 S 
BRANCH  15  19
ATOM     16  C   UNL     1       0.067   9.689  21.886  0.00  0.00    +0.000 A 
ATOM     17  C   UNL     1      -0.349  10.446  20.791  0.00  0.00    +0.000 A 
ATOM     18  C   UNL     1       0.159  10.182  19.514  0.00  0.00    +0.000 A 
ATOM     19  C   UNL     1       1.106   9.167  19.327  0.00  0.00    +0.000 A 
ATOM     20  C   UNL     1       1.573   8.465  20.441  0.00  0.00    +0.000 A 
ATOM     21  C   UNL     1       1.061   8.726  21.717  0.00  0.00    +0.000 A 
BRANCH  16  23
ATOM     22  C   UNL     1      -1.268  11.202  23.091  0.00  0.00    +0.000 C 
ATOM     23  O   UNL     1      -0.540   9.976  23.078  0.00  0.00    +0.000 OA
ENDBRANCH  16  23
ENDBRANCH  15  19
ENDBRANCH  14  15
ENDBRANCH   1  14
BRANCH   1  24
ATOM     24  C   UNL     1       2.262   5.798  18.101  0.00  0.00    +0.000 C 
BRANCH  24  25
ATOM     25  C   UNL     1       2.012   4.664  19.068  0.00  0.00    +0.000 A 
ATOM     26  C   UNL     1       1.448   3.462  18.633  0.00  0.00    +0.000 A 
ATOM     27  C   UNL     1       1.073   2.479  19.549  0.00  0.00    +0.000 A 
ATOM     28  C   UNL     1       1.292   2.682  20.907  0.00  0.00    +0.000 A 
ATOM     29  C   UNL     1       1.931   3.840  21.342  0.00  0.00    +0.000 A 
ATOM     30  C   UNL     1       2.298   4.824  20.427  0.00  0.00    +0.000 A 
ENDBRANCH  24  25
ENDBRANCH   1  24
TORSDOF 9
ENDMDL
MODEL 4
REMARK VINA RESULT:      -7.5      0.809      1.591
REMARK  Name = 
REMARK  12 active torsions:
REMARK  status: ('A' for Active; 'I' for Inactive)
REMARK    1  A    between atoms: C_1  and  O_2
REMARK    2  A    between atoms: O_2  and  C_3
REMARK    3  A    between atoms: C_6  and  S_7
REMARK    4  A    between atoms: S_7  and  C_8
REMARK    5  A    between atoms: C_8  and  C_9
REMARK    6  A    between atoms: C_9  and  C_10
REMARK    7  A    between atoms: C_9  and  N_17
REMARK    8  A    between atoms: C_10  and  C_11
REMARK    9  A    between atoms: N_20  and  C_21
REMARK   10  A    between atoms: C_21  and  C_22
REMARK   11  A    between atoms: C_22  and  C_23
REMARK   12  A    between atoms: C_22  and  C_24
REMARK                            x       y       z     vdW  Elec       q    Type
REMARK                         _______ _______ _______ _____ _____    ______ ____
ROOT
ATOM      1  C   UNL     1       5.109   4.838  18.811  0.00  0.00    +0.000 C 
ENDROOT
BRANCH   1   2
ATOM      2  N   UNL     1       5.474   4.963  17.346  0.00  0.00    +0.000 N 
ATOM      3  C   UNL     1       4.821   4.014  16.437  0.00  0.00    +0.000 C 
ATOM      4  C   UNL     1       5.754   3.116  15.612  0.00  0.00    +0.000 C 
ATOM      5  N   UNL     1       6.345   3.734  14.413  0.00  0.00    +0.000 NA
ATOM      6  C   UNL     1       7.268   4.800  14.811  0.00  0.00    +0.000 C 
ATOM      7  C   UNL     1       6.627   6.052  15.386  0.00  0.00    +0.000 C 
ATOM      8  C   UNL     1       6.296   5.986  16.861  0.00  0.00    +0.000 C 
ATOM      9  O   UNL     1       6.766   6.881  17.569  0.00  0.00    +0.000 OA
BRANCH   5  10
ATOM     10  C   UNL     1       5.305   4.130  13.443  0.00  0.00    +0.000 C 
BRANCH  10  11
ATOM     11  C   UNL     1       5.457   3.647  11.987  0.00  0.00    +0.000 C 
ATOM     12  C   UNL     1       6.411   2.463  11.858  0.00  0.00    +0.000 C 
ATOM     13  C   UNL     1       4.069   3.264  11.455  0.00  0.00    +0.000 C 
ENDBRANCH  10  11
ENDBRANCH   5  10
ENDBRANCH   1   2
BRANCH   1  14
ATOM     14  C   UNL     1       4.157   5.945  19.333  0.00  0.00    +0.000 C 
BRANCH  14  15
ATOM     15  S   UNL     1       3.123   6.776  18.078  0.00  0.00    +0.000 S 
BRANCH  15  19
ATOM     16  C   UNL     1       0.668   9.516  20.830  0.00  0.00    +0.000 A 
ATOM     17  C   UNL     1       1.091   8.275  21.305  0.00  0.00    +0.000 A 
ATOM     18  C   UNL     1       1.807   7.407  20.473  0.00  0.00    +0.000 A 
ATOM     19  C   UNL     1       2.088   7.768  19.150  0.00  0.00    +0.000 A 
ATOM     20  C   UNL     1       1.594   8.980  18.661  0.00  0.00    +0.000 A 
ATOM     21  C   UNL     1       0.884   9.851  19.494  0.00  0.00    +0.000 A 
BRANCH  16  23
ATOM     22  C   UNL     1      -0.268   9.688  22.979  0.00  0.00    +0.000 C 
ATOM     23  O   UNL     1       0.039  10.323  21.740  0.00  0.00    +0.000 OA
ENDBRANCH  16  23
ENDBRANCH  15  19
ENDBRANCH  14  15
ENDBRANCH   1  14
BRANCH   1  24
ATOM     24  C   UNL     1       4.637   3.397  19.225  0.00  0.00    +0.000 C 
BRANCH  24  25
ATOM     25  C   UNL     1       3.161   3.276  19.526  0.00  0.00    +0.000 A 
ATOM     26  C   UNL     1       2.687   3.377  20.836  0.00  0.00    +0.000 A 
ATOM     27  C   UNL     1       1.349   3.110  21.131  0.00  0.00    +0.000 A 
ATOM     28  C   UNL     1       0.471   2.771  20.107  0.00  0.00    +0.000 A 
ATOM     29  C   UNL     1       0.917   2.753  18.788  0.00  0.00    +0.000 A 
ATOM     30  C   UNL     1       2.253   3.012  18.496  0.00  0.00    +0.000 A 
ENDBRANCH  24  25
ENDBRANCH   1  24
TORSDOF 9
ENDMDL
MODEL 5
REMARK VINA RESULT:      -7.3      0.561      1.094
REMARK  Name = 
REMARK  12 active torsions:
REMARK  status: ('A' for Active; 'I' for Inactive)
REMARK    1  A    between atoms: C_1  and  O_2
REMARK    2  A    between atoms: O_2  and  C_3
REMARK    3  A    between atoms: C_6  and  S_7
REMARK    4  A    between atoms: S_7  and  C_8
REMARK    5  A    between atoms: C_8  and  C_9
REMARK    6  A    between atoms: C_9  and  C_10
REMARK    7  A    between atoms: C_9  and  N_17
REMARK    8  A    between atoms: C_10  and  C_11
REMARK    9  A    between atoms: N_20  and  C_21
REMARK   10  A    between atoms: C_21  and  C_22
REMARK   11  A    between atoms: C_22  and  C_23
REMARK   12  A    between atoms: C_22  and  C_24
REMARK                            x       y       z     vdW  Elec       q    Type
REMARK                         _______ _______ _______ _____ _____    ______ ____
ROOT
ATOM      1  C   UNL     1       4.372   5.986  18.777  0.00  0.00    +0.000 C 
ENDROOT
BRANCH   1   2
ATOM      2  N   UNL     1       5.091   5.721  17.470  0.00  0.00    +0.000 N 
ATOM      3  C   UNL     1       4.413   4.817  16.534  0.00  0.00    +0.000 C 
ATOM      4  C   UNL     1       5.194   3.562  16.119  0.00  0.00    +0.000 C 
ATOM      5  N   UNL     1       6.210   3.757  15.070  0.00  0.00    +0.000 NA
ATOM      6  C   UNL     1       7.293   4.600  15.582  0.00  0.00    +0.000 C 
ATOM      7  C   UNL     1       6.947   6.064  15.799  0.00  0.00    +0.000 C 
ATOM      8  C   UNL     1       6.275   6.377  17.118  0.00  0.00    +0.000 C 
ATOM      9  O   UNL     1       6.815   7.239  17.817  0.00  0.00    +0.000 OA
BRANCH   5  10
ATOM     10  C   UNL     1       5.598   4.213  13.807  0.00  0.00    +0.000 C 
BRANCH  10  11
ATOM     11  C   UNL     1       5.775   3.324  12.559  0.00  0.00    +0.000 C 
ATOM     12  C   UNL     1       4.547   3.333  11.654  0.00  0.00    +0.000 C 
ATOM     13  C   UNL     1       7.004   3.816  11.783  0.00  0.00    +0.000 C 
ENDBRANCH  10  11
ENDBRANCH   5  10
ENDBRANCH   1   2
BRANCH   1  14
ATOM     14  C   UNL     1       2.924   6.518  18.618  0.00  0.00    +0.000 C 
BRANCH  14  15
ATOM     15  S   UNL     1       2.733   8.058  17.655  0.00  0.00    +0.000 S 
BRANCH  15  19
ATOM     16  C   UNL     1       0.009  10.317  20.586  0.00  0.00    +0.000 A 
ATOM     17  C   UNL     1       0.364  10.921  19.381  0.00  0.00    +0.000 A 
ATOM     18  C   UNL     1       1.223  10.270  18.488  0.00  0.00    +0.000 A 
ATOM     19  C   UNL     1       1.751   9.012  18.807  0.00  0.00    +0.000 A 
ATOM     20  C   UNL     1       1.450   8.449  20.050  0.00  0.00    +0.000 A 
ATOM     21  C   UNL     1       0.586   9.098  20.939  0.00  0.00    +0.000 A 
BRANCH  16  23
ATOM     22  C   UNL     1      -1.641  11.989  20.653  0.00  0.00    +0.000 C 
ATOM     23  O   UNL     1      -0.892  11.000  21.357  0.00  0.00    +0.000 OA
ENDBRANCH  16  23
ENDBRANCH  15  19
ENDBRANCH  14  15
ENDBRANCH   1  14
BRANCH   1  24
ATOM     24  C   UNL     1       4.465   4.798  19.802  0.00  0.00    +0.000 C 
BRANCH  24  25
ATOM     25  C   UNL     1       3.209   3.967  19.924  0.00  0.00    +0.000 A 
ATOM     26  C   UNL     1       2.279   4.219  20.936  0.00  0.00    +0.000 A 
ATOM     27  C   UNL     1       1.203   3.356  21.144  0.00  0.00    +0.000 A 
ATOM     28  C   UNL     1       1.034   2.251  20.316  0.00  0.00    +0.000 A 
ATOM     29  C   UNL     1       1.908   2.041  19.252  0.00  0.00    +0.000 A 
ATOM     30  C   UNL     1       2.985   2.899  19.051  0.00  0.00    +0.000 A 
ENDBRANCH  24  25
ENDBRANCH   1  24
TORSDOF 9
ENDMDL
MODEL 6
REMARK VINA RESULT:      -7.3      2.577      8.559
REMARK  Name = 
REMARK  12 active torsions:
REMARK  status: ('A' for Active; 'I' for Inactive)
REMARK    1  A    between atoms: C_1  and  O_2
REMARK    2  A    between atoms: O_2  and  C_3
REMARK    3  A    between atoms: C_6  and  S_7
REMARK    4  A    between atoms: S_7  and  C_8
REMARK    5  A    between atoms: C_8  and  C_9
REMARK    6  A    between atoms: C_9  and  C_10
REMARK    7  A    between atoms: C_9  and  N_17
REMARK    8  A    between atoms: C_10  and  C_11
REMARK    9  A    between atoms: N_20  and  C_21
REMARK   10  A    between atoms: C_21  and  C_22
REMARK   11  A    between atoms: C_22  and  C_23
REMARK   12  A    between atoms: C_22  and  C_24
REMARK                            x       y       z     vdW  Elec       q    Type
REMARK                         _______ _______ _______ _____ _____    ______ ____
ROOT
ATOM      1  C   UNL     1       2.462   7.018  19.055  0.00  0.00    +0.000 C 
ENDROOT
BRANCH   1   2
ATOM      2  N   UNL     1       1.791   8.348  19.334  0.00  0.00    +0.000 N 
ATOM      3  C   UNL     1       1.438   8.609  20.733  0.00  0.00    +0.000 C 
ATOM      4  C   UNL     1      -0.047   8.882  21.017  0.00  0.00    +0.000 C 
ATOM      5  N   UNL     1      -0.515  10.248  20.727  0.00  0.00    +0.000 NA
ATOM      6  C   UNL     1      -0.460  10.492  19.283  0.00  0.00    +0.000 C 
ATOM      7  C   UNL     1       0.931  10.627  18.686  0.00  0.00    +0.000 C 
ATOM      8  C   UNL     1       1.614   9.320  18.345  0.00  0.00    +0.000 C 
ATOM      9  O   UNL     1       2.009   9.196  17.182  0.00  0.00    +0.000 OA
BRANCH   5  10
ATOM     10  C   UNL     1       0.182  11.244  21.563  0.00  0.00    +0.000 C 
BRANCH  10  11
ATOM     11  C   UNL     1      -0.680  12.250  22.353  0.00  0.00    +0.000 C 
ATOM     12  C   UNL     1      -1.327  13.300  21.456  0.00  0.00    +0.000 C 
ATOM     13  C   UNL     1      -1.760  11.469  23.114  0.00  0.00    +0.000 C 
ENDBRANCH  10  11
ENDBRANCH   5  10
ENDBRANCH   1   2
BRANCH   1  14
ATOM     14  C   UNL     1       3.886   7.129  18.451  0.00  0.00    +0.000 C 
BRANCH  14  15
ATOM     15  S   UNL     1       5.062   5.811  18.913  0.00  0.00    +0.000 S 
BRANCH  15  19
ATOM     16  C   UNL     1       6.437   4.410  14.758  0.00  0.00    +0.000 A 
ATOM     17  C   UNL     1       7.378   4.547  15.778  0.00  0.00    +0.000 A 
ATOM     18  C   UNL     1       6.991   5.009  17.041  0.00  0.00    +0.000 A 
ATOM     19  C   UNL     1       5.657   5.356  17.287  0.00  0.00    +0.000 A 
ATOM     20  C   UNL     1       4.736   5.287  16.238  0.00  0.00    +0.000 A 
ATOM     21  C   UNL     1       5.123   4.820  14.977  0.00  0.00    +0.000 A 
BRANCH  16  23
ATOM     22  C   UNL     1       5.877   3.486  12.671  0.00  0.00    +0.000 C 
ATOM     23  O   UNL     1       6.899   3.883  13.583  0.00  0.00    +0.000 OA
ENDBRANCH  16  23
ENDBRANCH  15  19
ENDBRANCH  14  15
ENDBRANCH   1  14
BRANCH   1  24
ATOM     24  C   UNL     1       2.401   6.013  20.263  0.00  0.00    +0.000 C 
BRANCH  24  25
ATOM     25  C   UNL     1       1.848   4.649  19.925  0.00  0.00    +0.000 A 
ATOM     26  C   UNL     1       1.531   3.735  20.933  0.00  0.00    +0.000 A 
ATOM     27  C   UNL     1       1.171   2.424  20.617  0.00  0.00    +0.000 A 
ATOM     28  C   UNL     1       1.095   2.031  19.285  0.00  0.00    +0.000 A 
ATOM     29  C   UNL     1       1.327   2.959  18.273  0.00  0.00    +0.000 A 
ATOM     30  C   UNL     1       1.693   4.264  18.590  0.00  0.00    +0.000 A 
ENDBRANCH  24  25
ENDBRANCH   1  24
TORSDOF 9
ENDMDL
MODEL 7
REMARK VINA RESULT:      -7.3      0.505      1.181
REMARK  Name = 
REMARK  12 active torsions:
REMARK  status: ('A' for Active; 'I' for Inactive)
REMARK    1  A    between atoms: C_1  and  O_2
REMARK    2  A    between atoms: O_2  and  C_3
REMARK    3  A    between atoms: C_6  and  S_7
REMARK    4  A    between atoms: S_7  and  C_8
REMARK    5  A    between atoms: C_8  and  C_9
REMARK    6  A    between atoms: C_9  and  C_10
REMARK    7  A    between atoms: C_9  and  N_17
REMARK    8  A    between atoms: C_10  and  C_11
REMARK    9  A    between atoms: N_20  and  C_21
REMARK   10  A    between atoms: C_21  and  C_22
REMARK   11  A    between atoms: C_22  and  C_23
REMARK   12  A    between atoms: C_22  and  C_24
REMARK                            x       y       z     vdW  Elec       q    Type
REMARK                         _______ _______ _______ _____ _____    ______ ____
ROOT
ATOM      1  C   UNL     1       4.490   5.644  18.561  0.00  0.00    +0.000 C 
ENDROOT
BRANCH   1   2
ATOM      2  N   UNL     1       5.064   5.514  17.165  0.00  0.00    +0.000 N 
ATOM      3  C   UNL     1       4.389   4.559  16.279  0.00  0.00    +0.000 C 
ATOM      4  C   UNL     1       5.260   3.427  15.714  0.00  0.00    +0.000 C 
ATOM      5  N   UNL     1       6.102   3.781  14.559  0.00  0.00    +0.000 NA
ATOM      6  C   UNL     1       7.130   4.741  14.973  0.00  0.00    +0.000 C 
ATOM      7  C   UNL     1       6.637   6.141  15.297  0.00  0.00    +0.000 C 
ATOM      8  C   UNL     1       6.104   6.326  16.702  0.00  0.00    +0.000 C 
ATOM      9  O   UNL     1       6.619   7.228  17.369  0.00  0.00    +0.000 OA
BRANCH   5  10
ATOM     10  C   UNL     1       5.284   4.194  13.402  0.00  0.00    +0.000 C 
BRANCH  10  11
ATOM     11  C   UNL     1       5.593   3.549  12.036  0.00  0.00    +0.000 C 
ATOM     12  C   UNL     1       6.481   2.314  12.157  0.00  0.00    +0.000 C 
ATOM     13  C   UNL     1       4.264   3.177  11.364  0.00  0.00    +0.000 C 
ENDBRANCH  10  11
ENDBRANCH   5  10
ENDBRANCH   1   2
BRANCH   1  14
ATOM     14  C   UNL     1       3.025   6.152  18.608  0.00  0.00    +0.000 C 
BRANCH  14  15
ATOM     15  S   UNL     1       2.707   7.768  17.818  0.00  0.00    +0.000 S 
BRANCH  15  19
ATOM     16  C   UNL     1       0.687  10.073  21.242  0.00  0.00    +0.000 A 
ATOM     17  C   UNL     1       1.170   8.786  21.477  0.00  0.00    +0.000 A 
ATOM     18  C   UNL     1       1.754   8.049  20.442  0.00  0.00    +0.000 A 
ATOM     19  C   UNL     1       1.842   8.590  19.153  0.00  0.00    +0.000 A 
ATOM     20  C   UNL     1       1.288   9.849  18.909  0.00  0.00    +0.000 A 
ATOM     21  C   UNL     1       0.709  10.588  19.947  0.00  0.00    +0.000 A 
BRANCH  16  23
ATOM     22  C   UNL     1      -0.699   9.978  23.137  0.00  0.00    +0.000 C 
ATOM     23  O   UNL     1       0.200  10.739  22.333  0.00  0.00    +0.000 OA
ENDBRANCH  16  23
ENDBRANCH  15  19
ENDBRANCH  14  15
ENDBRANCH   1  14
BRANCH   1  24
ATOM     24  C   UNL     1       4.712   4.374  19.459  0.00  0.00    +0.000 C 
BRANCH  24  25
ATOM     25  C   UNL     1       3.455   3.606  19.793  0.00  0.00    +0.000 A 
ATOM     26  C   UNL     1       2.988   2.594  18.949  0.00  0.00    +0.000 A 
ATOM     27  C   UNL     1       1.748   1.995  19.175  0.00  0.00    +0.000 A 
ATOM     28  C   UNL     1       0.982   2.385  20.269  0.00  0.00    +0.000 A 
ATOM     29  C   UNL     1       1.479   3.331  21.162  0.00  0.00    +0.000 A 
ATOM     30  C   UNL     1       2.712   3.933  20.931  0.00  0.00    +0.000 A 
ENDBRANCH  24  25
ENDBRANCH   1  24
TORSDOF 9
ENDMDL
MODEL 8
REMARK VINA RESULT:      -7.2      2.648      8.394
REMARK  Name = 
REMARK  12 active torsions:
REMARK  status: ('A' for Active; 'I' for Inactive)
REMARK    1  A    between atoms: C_1  and  O_2
REMARK    2  A    between atoms: O_2  and  C_3
REMARK    3  A    between atoms: C_6  and  S_7
REMARK    4  A    between atoms: S_7  and  C_8
REMARK    5  A    between atoms: C_8  and  C_9
REMARK    6  A    between atoms: C_9  and  C_10
REMARK    7  A    between atoms: C_9  and  N_17
REMARK    8  A    between atoms: C_10  and  C_11
REMARK    9  A    between atoms: N_20  and  C_21
REMARK   10  A    between atoms: C_21  and  C_22
REMARK   11  A    between atoms: C_22  and  C_23
REMARK   12  A    between atoms: C_22  and  C_24
REMARK                            x       y       z     vdW  Elec       q    Type
REMARK                         _______ _______ _______ _____ _____    ______ ____
ROOT
ATOM      1  C   UNL     1       2.311   6.900  19.372  0.00  0.00    +0.000 C 
ENDROOT
BRANCH   1   2
ATOM      2  N   UNL     1       1.737   8.290  19.550  0.00  0.00    +0.000 N 
ATOM      3  C   UNL     1       1.383   8.669  20.923  0.00  0.00    +0.000 C 
ATOM      4  C   UNL     1      -0.081   9.067  21.159  0.00  0.00    +0.000 C 
ATOM      5  N   UNL     1      -0.443  10.441  20.772  0.00  0.00    +0.000 NA
ATOM      6  C   UNL     1      -0.349  10.585  19.317  0.00  0.00    +0.000 C 
ATOM      7  C   UNL     1       1.057  10.579  18.740  0.00  0.00    +0.000 C 
ATOM      8  C   UNL     1       1.646   9.206  18.497  0.00  0.00    +0.000 C 
ATOM      9  O   UNL     1       2.048   8.977  17.352  0.00  0.00    +0.000 OA
BRANCH   5  10
ATOM     10  C   UNL     1       0.314  11.438  21.555  0.00  0.00    +0.000 C 
BRANCH  10  11
ATOM     11  C   UNL     1      -0.023  12.927  21.340  0.00  0.00    +0.000 C 
ATOM     12  C   UNL     1      -0.770  13.536  22.522  0.00  0.00    +0.000 C 
ATOM     13  C   UNL     1       1.287  13.690  21.097  0.00  0.00    +0.000 C 
ENDBRANCH  10  11
ENDBRANCH   5  10
ENDBRANCH   1   2
BRANCH   1  14
ATOM     14  C   UNL     1       3.837   6.864  19.100  0.00  0.00    +0.000 C 
BRANCH  14  15
ATOM     15  S   UNL     1       4.681   5.283  19.453  0.00  0.00    +0.000 S 
BRANCH  15  19
ATOM     16  C   UNL     1       6.516   4.643  15.289  0.00  0.00    +0.000 A 
ATOM     17  C   UNL     1       5.129   4.622  15.435  0.00  0.00    +0.000 A 
ATOM     18  C   UNL     1       4.547   4.776  16.698  0.00  0.00    +0.000 A 
ATOM     19  C   UNL     1       5.354   4.934  17.832  0.00  0.00    +0.000 A 
ATOM     20  C   UNL     1       6.742   4.878  17.687  0.00  0.00    +0.000 A 
ATOM     21  C   UNL     1       7.323   4.730  16.422  0.00  0.00    +0.000 A 
BRANCH  16  23
ATOM     22  C   UNL     1       6.213   3.720  13.150  0.00  0.00    +0.000 C 
ATOM     23  O   UNL     1       6.985   4.557  14.007  0.00  0.00    +0.000 OA
ENDBRANCH  16  23
ENDBRANCH  15  19
ENDBRANCH  14  15
ENDBRANCH   1  14
BRANCH   1  24
ATOM     24  C   UNL     1       1.879   5.887  20.494  0.00  0.00    +0.000 C 
BRANCH  24  25
ATOM     25  C   UNL     1       1.594   4.486  20.007  0.00  0.00    +0.000 A 
ATOM     26  C   UNL     1       1.530   3.416  20.904  0.00  0.00    +0.000 A 
ATOM     27  C   UNL     1       1.424   2.104  20.440  0.00  0.00    +0.000 A 
ATOM     28  C   UNL     1       1.349   1.860  19.073  0.00  0.00    +0.000 A 
ATOM     29  C   UNL     1       1.327   2.926  18.177  0.00  0.00    +0.000 A 
ATOM     30  C   UNL     1       1.440   4.233  18.641  0.00  0.00    +0.000 A 
ENDBRANCH  24  25
ENDBRANCH   1  24
TORSDOF 9
ENDMDL
MODEL 9
REMARK VINA RESULT:      -7.0      2.650      8.511
REMARK  Name = 
REMARK  12 active torsions:
REMARK  status: ('A' for Active; 'I' for Inactive)
REMARK    1  A    between atoms: C_1  and  O_2
REMARK    2  A    between atoms: O_2  and  C_3
REMARK    3  A    between atoms: C_6  and  S_7
REMARK    4  A    between atoms: S_7  and  C_8
REMARK    5  A    between atoms: C_8  and  C_9
REMARK    6  A    between atoms: C_9  and  C_10
REMARK    7  A    between atoms: C_9  and  N_17
REMARK    8  A    between atoms: C_10  and  C_11
REMARK    9  A    between atoms: N_20  and  C_21
REMARK   10  A    between atoms: C_21  and  C_22
REMARK   11  A    between atoms: C_22  and  C_23
REMARK   12  A    between atoms: C_22  and  C_24
REMARK                            x       y       z     vdW  Elec       q    Type
REMARK                         _______ _______ _______ _____ _____    ______ ____
ROOT
ATOM      1  C   UNL     1       2.382   7.094  19.145  0.00  0.00    +0.000 C 
ENDROOT
BRANCH   1   2
ATOM      2  N   UNL     1       1.749   8.458  19.328  0.00  0.00    +0.000 N 
ATOM      3  C   UNL     1       1.347   8.803  20.696  0.00  0.00    +0.000 C 
ATOM      4  C   UNL     1      -0.136   9.140  20.902  0.00  0.00    +0.000 C 
ATOM      5  N   UNL     1      -0.543  10.504  20.524  0.00  0.00    +0.000 NA
ATOM      6  C   UNL     1      -0.419  10.673  19.074  0.00  0.00    +0.000 C 
ATOM      7  C   UNL     1       1.000  10.730  18.532  0.00  0.00    +0.000 C 
ATOM      8  C   UNL     1       1.648   9.384  18.285  0.00  0.00    +0.000 C 
ATOM      9  O   UNL     1       2.086   9.188  17.148  0.00  0.00    +0.000 OA
BRANCH   5  10
ATOM     10  C   UNL     1       0.155  11.518  21.339  0.00  0.00    +0.000 C 
BRANCH  10  11
ATOM     11  C   UNL     1      -0.647  12.757  21.786  0.00  0.00    +0.000 C 
ATOM     12  C   UNL     1      -1.383  12.535  23.104  0.00  0.00    +0.000 C 
ATOM     13  C   UNL     1       0.323  13.940  21.919  0.00  0.00    +0.000 C 
ENDBRANCH  10  11
ENDBRANCH   5  10
ENDBRANCH   1   2
BRANCH   1  14
ATOM     14  C   UNL     1       3.857   7.128  18.669  0.00  0.00    +0.000 C 
BRANCH  14  15
ATOM     15  S   UNL     1       4.862   5.651  19.054  0.00  0.00    +0.000 S 
BRANCH  15  19
ATOM     16  C   UNL     1       6.300   4.283  14.909  0.00  0.00    +0.000 A 
ATOM     17  C   UNL     1       7.032   5.246  15.602  0.00  0.00    +0.000 A 
ATOM     18  C   UNL     1       6.594   5.707  16.849  0.00  0.00    +0.000 A 
ATOM     19  C   UNL     1       5.405   5.220  17.404  0.00  0.00    +0.000 A 
ATOM     20  C   UNL     1       4.638   4.311  16.668  0.00  0.00    +0.000 A 
ATOM     21  C   UNL     1       5.080   3.846  15.425  0.00  0.00    +0.000 A 
BRANCH  16  23
ATOM     22  C   UNL     1       5.896   3.561  12.710  0.00  0.00    +0.000 C 
ATOM     23  O   UNL     1       6.846   3.844  13.735  0.00  0.00    +0.000 OA
ENDBRANCH  16  23
ENDBRANCH  15  19
ENDBRANCH  14  15
ENDBRANCH   1  14
BRANCH   1  24
ATOM     24  C   UNL     1       2.169   6.128  20.367  0.00  0.00    +0.000 C 
BRANCH  24  25
ATOM     25  C   UNL     1       1.827   4.704  19.998  0.00  0.00    +0.000 A 
ATOM     26  C   UNL     1       1.595   4.345  18.668  0.00  0.00    +0.000 A 
ATOM     27  C   UNL     1       1.127   3.070  18.346  0.00  0.00    +0.000 A 
ATOM     28  C   UNL     1       0.921   2.136  19.355  0.00  0.00    +0.000 A 
ATOM     29  C   UNL     1       1.231   2.458  20.674  0.00  0.00    +0.000 A 
ATOM     30  C   UNL     1       1.691   3.733  20.994  0.00  0.00    +0.000 A 
ENDBRANCH  24  25
ENDBRANCH   1  24
TORSDOF 9
ENDMDL
