MODEL 1
REMARK VINA RESULT:      -7.1      0.000      0.000
REMARK  Name = 
REMARK  6 active torsions:
REMARK  status: ('A' for Active; 'I' for Inactive)
REMARK    1  A    between atoms: C_1  and  C_2
REMARK    2  A    between atoms: N_4  and  C_5
REMARK    3  A    between atoms: C_5  and  C_6
REMARK    4  A    between atoms: C_5  and  C_8
REMARK    5  A    between atoms: N_10  and  C_11
REMARK    6  A    between atoms: C_11  and  C_12
REMARK                            x       y       z     vdW  Elec       q    Type
REMARK                         _______ _______ _______ _____ _____    ______ ____
ROOT
ATOM      1  C   UNL     1       6.376   4.796  18.635  0.00  0.00    +0.000 C 
ATOM      2  O   UNL     1       6.804   5.161  19.726  0.00  0.00    +0.000 OA
ATOM      3  N   UNL     1       5.452   3.777  18.483  0.00  0.00    +0.000 N 
ATOM      4  H   UNL     1       4.864   3.829  17.658  0.00  0.00    +0.000 HD
ENDROOT
BRANCH   1   5
ATOM      5  C   UNL     1       6.738   5.509  17.318  0.00  0.00    +0.000 C 
BRANCH   5   9
ATOM      6  C   UNL     1       6.116   3.882  13.940  0.00  0.00    +0.000 C 
ATOM      7  C   UNL     1       6.782   4.789  14.938  0.00  0.00    +0.000 C 
ATOM      8  O   UNL     1       7.755   5.481  14.665  0.00  0.00    +0.000 OA
ATOM      9  N   UNL     1       6.199   4.748  16.182  0.00  0.00    +0.000 N 
ATOM     10  H   UNL     1       5.678   3.907  16.410  0.00  0.00    +0.000 HD
ENDBRANCH   5   9
BRANCH   5  11
ATOM     11  C   UNL     1       6.292   6.971  17.372  0.00  0.00    +0.000 C 
ATOM     12 BR   UNL     1       7.788   8.197  17.683  0.00  0.00    +0.000 Br
ENDBRANCH   5  11
ENDBRANCH   1   5
BRANCH   3  13
ATOM     13  C   UNL     1       4.908   3.068  19.617  0.00  0.00    +0.000 C 
BRANCH  13  14
ATOM     14  C   UNL     1       3.476   3.472  19.843  0.00  0.00    +0.000 A 
ATOM     15  C   UNL     1       3.159   4.812  20.109  0.00  0.00    +0.000 A 
ATOM     16  C   UNL     1       1.836   5.202  20.321  0.00  0.00    +0.000 A 
ATOM     17  C   UNL     1       0.816   4.254  20.282  0.00  0.00    +0.000 A 
ATOM     18  C   UNL     1       1.119   2.915  20.039  0.00  0.00    +0.000 A 
ATOM     19  C   UNL     1       2.443   2.523  19.825  0.00  0.00    +0.000 A 
ENDBRANCH  13  14
ENDBRANCH   3  13
TORSDOF 5
ENDMDL
MODEL 2
REMARK VINA RESULT:      -7.0      1.388      1.537
REMARK  Name = 
REMARK  6 active torsions:
REMARK  status: ('A' for Active; 'I' for Inactive)
REMARK    1  A    between atoms: C_1  and  C_2
REMARK    2  A    between atoms: N_4  and  C_5
REMARK    3  A    between atoms: C_5  and  C_6
REMARK    4  A    between atoms: C_5  and  C_8
REMARK    5  A    between atoms: N_10  and  C_11
REMARK    6  A    between atoms: C_11  and  C_12
REMARK                            x       y       z     vdW  Elec       q    Type
REMARK                         _______ _______ _______ _____ _____    ______ ____
ROOT
ATOM      1  C   UNL     1       5.987   4.711  18.560  0.00  0.00    +0.000 C 
ATOM      2  O   UNL     1       6.325   5.096  19.676  0.00  0.00    +0.000 OA
ATOM      3  N   UNL     1       5.235   3.568  18.346  0.00  0.00    +0.000 N 
ATOM      4  H   UNL     1       4.668   3.560  17.505  0.00  0.00    +0.000 HD
ENDROOT
BRANCH   1   5
ATOM      5  C   UNL     1       6.269   5.519  17.280  0.00  0.00    +0.000 C 
BRANCH   5   9
ATOM      6  C   UNL     1       6.192   3.796  13.893  0.00  0.00    +0.000 C 
ATOM      7  C   UNL     1       6.672   4.755  14.948  0.00  0.00    +0.000 C 
ATOM      8  O   UNL     1       7.640   5.489  14.791  0.00  0.00    +0.000 OA
ATOM      9  N   UNL     1       5.926   4.710  16.102  0.00  0.00    +0.000 N 
ATOM     10  H   UNL     1       5.418   3.849  16.279  0.00  0.00    +0.000 HD
ENDBRANCH   5   9
BRANCH   5  11
ATOM     11  C   UNL     1       5.562   6.874  17.347  0.00  0.00    +0.000 C 
ATOM     12 BR   UNL     1       3.662   6.703  17.794  0.00  0.00    +0.000 Br
ENDBRANCH   5  11
ENDBRANCH   1   5
BRANCH   3  13
ATOM     13  C   UNL     1       4.778   2.742  19.439  0.00  0.00    +0.000 C 
BRANCH  13  14
ATOM     14  C   UNL     1       3.290   2.889  19.612  0.00  0.00    +0.000 A 
ATOM     15  C   UNL     1       2.451   2.901  18.488  0.00  0.00    +0.000 A 
ATOM     16  C   UNL     1       1.070   3.037  18.634  0.00  0.00    +0.000 A 
ATOM     17  C   UNL     1       0.513   3.174  19.903  0.00  0.00    +0.000 A 
ATOM     18  C   UNL     1       1.338   3.184  21.027  0.00  0.00    +0.000 A 
ATOM     19  C   UNL     1       2.721   3.047  20.884  0.00  0.00    +0.000 A 
ENDBRANCH  13  14
ENDBRANCH   3  13
TORSDOF 5
ENDMDL
MODEL 3
REMARK VINA RESULT:      -6.9      0.732      1.307
REMARK  Name = 
REMARK  6 active torsions:
REMARK  status: ('A' for Active; 'I' for Inactive)
REMARK    1  A    between atoms: C_1  and  C_2
REMARK    2  A    between atoms: N_4  and  C_5
REMARK    3  A    between atoms: C_5  and  C_6
REMARK    4  A    between atoms: C_5  and  C_8
REMARK    5  A    between atoms: N_10  and  C_11
REMARK    6  A    between atoms: C_11  and  C_12
REMARK                            x       y       z     vdW  Elec       q    Type
REMARK                         _______ _______ _______ _____ _____    ______ ____
ROOT
ATOM      1  C   UNL     1       6.611   4.714  18.130  0.00  0.00    +0.000 C 
ATOM      2  O   UNL     1       7.426   4.735  19.048  0.00  0.00    +0.000 OA
ATOM      3  N   UNL     1       5.384   4.081  18.218  0.00  0.00    +0.000 N 
ATOM      4  H   UNL     1       4.647   4.455  17.630  0.00  0.00    +0.000 HD
ENDROOT
BRANCH   1   5
ATOM      5  C   UNL     1       6.819   5.488  16.815  0.00  0.00    +0.000 C 
BRANCH   5   9
ATOM      6  C   UNL     1       6.015   3.860  13.475  0.00  0.00    +0.000 C 
ATOM      7  C   UNL     1       6.754   4.744  14.443  0.00  0.00    +0.000 C 
ATOM      8  O   UNL     1       7.750   5.386  14.132  0.00  0.00    +0.000 OA
ATOM      9  N   UNL     1       6.209   4.742  15.704  0.00  0.00    +0.000 N 
ATOM     10  H   UNL     1       5.656   3.930  15.957  0.00  0.00    +0.000 HD
ENDBRANCH   5   9
BRANCH   5  11
ATOM     11  C   UNL     1       6.320   6.925  16.965  0.00  0.00    +0.000 C 
ATOM     12 BR   UNL     1       7.703   8.128  17.656  0.00  0.00    +0.000 Br
ENDBRANCH   5  11
ENDBRANCH   1   5
BRANCH   3  13
ATOM     13  C   UNL     1       4.964   3.399  19.420  0.00  0.00    +0.000 C 
BRANCH  13  14
ATOM     14  C   UNL     1       3.463   3.291  19.458  0.00  0.00    +0.000 A 
ATOM     15  C   UNL     1       2.802   2.410  18.589  0.00  0.00    +0.000 A 
ATOM     16  C   UNL     1       1.411   2.299  18.612  0.00  0.00    +0.000 A 
ATOM     17  C   UNL     1       0.664   3.076  19.495  0.00  0.00    +0.000 A 
ATOM     18  C   UNL     1       1.308   3.971  20.349  0.00  0.00    +0.000 A 
ATOM     19  C   UNL     1       2.701   4.083  20.329  0.00  0.00    +0.000 A 
ENDBRANCH  13  14
ENDBRANCH   3  13
TORSDOF 5
ENDMDL
MODEL 4
REMARK VINA RESULT:      -6.9      1.965      2.240
REMARK  Name = 
REMARK  6 active torsions:
REMARK  status: ('A' for Active; 'I' for Inactive)
REMARK    1  A    between atoms: C_1  and  C_2
REMARK    2  A    between atoms: N_4  and  C_5
REMARK    3  A    between atoms: C_5  and  C_6
REMARK    4  A    between atoms: C_5  and  C_8
REMARK    5  A    between atoms: N_10  and  C_11
REMARK    6  A    between atoms: C_11  and  C_12
REMARK                            x       y       z     vdW  Elec       q    Type
REMARK                         _______ _______ _______ _____ _____    ______ ____
ROOT
ATOM      1  C   UNL     1       5.261   6.005  16.625  0.00  0.00    +0.000 C 
ATOM      2  O   UNL     1       4.845   6.742  15.736  0.00  0.00    +0.000 OA
ATOM      3  N   UNL     1       4.509   5.646  17.730  0.00  0.00    +0.000 N 
ATOM      4  H   UNL     1       4.743   4.756  18.157  0.00  0.00    +0.000 HD
ENDROOT
BRANCH   1   5
ATOM      5  C   UNL     1       6.632   5.306  16.552  0.00  0.00    +0.000 C 
BRANCH   5   9
ATOM      6  C   UNL     1       7.679   5.178  12.900  0.00  0.00    +0.000 C 
ATOM      7  C   UNL     1       7.026   4.707  14.171  0.00  0.00    +0.000 C 
ATOM      8  O   UNL     1       6.362   3.679  14.237  0.00  0.00    +0.000 OA
ATOM      9  N   UNL     1       7.238   5.550  15.235  0.00  0.00    +0.000 N 
ATOM     10  H   UNL     1       7.455   6.516  15.011  0.00  0.00    +0.000 HD
ENDBRANCH   5   9
BRANCH   5  11
ATOM     11  C   UNL     1       7.501   5.726  17.738  0.00  0.00    +0.000 C 
ATOM     12 BR   UNL     1       7.761   7.665  17.823  0.00  0.00    +0.000 Br
ENDBRANCH   5  11
ENDBRANCH   1   5
BRANCH   3  13
ATOM     13  C   UNL     1       3.155   6.112  17.912  0.00  0.00    +0.000 C 
BRANCH  13  14
ATOM     14  C   UNL     1       2.327   5.052  18.587  0.00  0.00    +0.000 A 
ATOM     15  C   UNL     1       2.016   5.167  19.950  0.00  0.00    +0.000 A 
ATOM     16  C   UNL     1       1.251   4.192  20.590  0.00  0.00    +0.000 A 
ATOM     17  C   UNL     1       0.798   3.083  19.878  0.00  0.00    +0.000 A 
ATOM     18  C   UNL     1       1.117   2.946  18.528  0.00  0.00    +0.000 A 
ATOM     19  C   UNL     1       1.883   3.922  17.885  0.00  0.00    +0.000 A 
ENDBRANCH  13  14
ENDBRANCH   3  13
TORSDOF 5
ENDMDL
MODEL 5
REMARK VINA RESULT:      -6.9      1.480      1.523
REMARK  Name = 
REMARK  6 active torsions:
REMARK  status: ('A' for Active; 'I' for Inactive)
REMARK    1  A    between atoms: C_1  and  C_2
REMARK    2  A    between atoms: N_4  and  C_5
REMARK    3  A    between atoms: C_5  and  C_6
REMARK    4  A    between atoms: C_5  and  C_8
REMARK    5  A    between atoms: N_10  and  C_11
REMARK    6  A    between atoms: C_11  and  C_12
REMARK                            x       y       z     vdW  Elec       q    Type
REMARK                         _______ _______ _______ _____ _____    ______ ____
ROOT
ATOM      1  C   UNL     1       5.815   4.516  18.408  0.00  0.00    +0.000 C 
ATOM      2  O   UNL     1       6.149   4.834  19.546  0.00  0.00    +0.000 OA
ATOM      3  N   UNL     1       5.083   3.376  18.121  0.00  0.00    +0.000 N 
ATOM      4  H   UNL     1       4.514   3.413  17.282  0.00  0.00    +0.000 HD
ENDROOT
BRANCH   1   5
ATOM      5  C   UNL     1       6.079   5.410  17.182  0.00  0.00    +0.000 C 
BRANCH   5   9
ATOM      6  C   UNL     1       6.135   3.818  13.731  0.00  0.00    +0.000 C 
ATOM      7  C   UNL     1       6.593   4.711  14.852  0.00  0.00    +0.000 C 
ATOM      8  O   UNL     1       7.605   5.398  14.785  0.00  0.00    +0.000 OA
ATOM      9  N   UNL     1       5.773   4.663  15.954  0.00  0.00    +0.000 N 
ATOM     10  H   UNL     1       5.212   3.825  16.064  0.00  0.00    +0.000 HD
ENDBRANCH   5   9
BRANCH   5  11
ATOM     11  C   UNL     1       5.327   6.734  17.324  0.00  0.00    +0.000 C 
ATOM     12 BR   UNL     1       3.475   6.480  17.911  0.00  0.00    +0.000 Br
ENDBRANCH   5  11
ENDBRANCH   1   5
BRANCH   3  13
ATOM     13  C   UNL     1       4.643   2.474  19.159  0.00  0.00    +0.000 C 
BRANCH  13  14
ATOM     14  C   UNL     1       3.197   2.729  19.490  0.00  0.00    +0.000 A 
ATOM     15  C   UNL     1       2.817   2.998  20.813  0.00  0.00    +0.000 A 
ATOM     16  C   UNL     1       1.480   3.236  21.135  0.00  0.00    +0.000 A 
ATOM     17  C   UNL     1       0.506   3.197  20.139  0.00  0.00    +0.000 A 
ATOM     18  C   UNL     1       0.868   2.911  18.823  0.00  0.00    +0.000 A 
ATOM     19  C   UNL     1       2.206   2.673  18.499  0.00  0.00    +0.000 A 
ENDBRANCH  13  14
ENDBRANCH   3  13
TORSDOF 5
ENDMDL
MODEL 6
REMARK VINA RESULT:      -6.8      1.162      1.532
REMARK  Name = 
REMARK  6 active torsions:
REMARK  status: ('A' for Active; 'I' for Inactive)
REMARK    1  A    between atoms: C_1  and  C_2
REMARK    2  A    between atoms: N_4  and  C_5
REMARK    3  A    between atoms: C_5  and  C_6
REMARK    4  A    between atoms: C_5  and  C_8
REMARK    5  A    between atoms: N_10  and  C_11
REMARK    6  A    between atoms: C_11  and  C_12
REMARK                            x       y       z     vdW  Elec       q    Type
REMARK                         _______ _______ _______ _____ _____    ______ ____
ROOT
ATOM      1  C   UNL     1       5.613   5.235  18.471  0.00  0.00    +0.000 C 
ATOM      2  O   UNL     1       6.077   4.442  19.285  0.00  0.00    +0.000 OA
ATOM      3  N   UNL     1       4.401   5.881  18.643  0.00  0.00    +0.000 N 
ATOM      4  H   UNL     1       4.306   6.778  18.181  0.00  0.00    +0.000 HD
ENDROOT
BRANCH   1   5
ATOM      5  C   UNL     1       6.386   5.686  17.216  0.00  0.00    +0.000 C 
BRANCH   5   9
ATOM      6  C   UNL     1       6.062   3.905  13.874  0.00  0.00    +0.000 C 
ATOM      7  C   UNL     1       6.686   4.795  14.914  0.00  0.00    +0.000 C 
ATOM      8  O   UNL     1       7.771   5.342  14.759  0.00  0.00    +0.000 OA
ATOM      9  N   UNL     1       5.925   4.915  16.052  0.00  0.00    +0.000 N 
ATOM     10  H   UNL     1       5.270   4.163  16.241  0.00  0.00    +0.000 HD
ENDBRANCH   5   9
BRANCH   5  11
ATOM     11  C   UNL     1       6.285   7.203  17.053  0.00  0.00    +0.000 C 
ATOM     12 BR   UNL     1       7.868   8.134  17.736  0.00  0.00    +0.000 Br
ENDBRANCH   5  11
ENDBRANCH   1   5
BRANCH   3  13
ATOM     13  C   UNL     1       3.588   5.671  19.818  0.00  0.00    +0.000 C 
BRANCH  13  14
ATOM     14  C   UNL     1       2.596   4.566  19.572  0.00  0.00    +0.000 A 
ATOM     15  C   UNL     1       2.182   4.274  18.264  0.00  0.00    +0.000 A 
ATOM     16  C   UNL     1       1.262   3.253  18.020  0.00  0.00    +0.000 A 
ATOM     17  C   UNL     1       0.738   2.520  19.082  0.00  0.00    +0.000 A 
ATOM     18  C   UNL     1       1.126   2.813  20.389  0.00  0.00    +0.000 A 
ATOM     19  C   UNL     1       2.048   3.835  20.635  0.00  0.00    +0.000 A 
ENDBRANCH  13  14
ENDBRANCH   3  13
TORSDOF 5
ENDMDL
MODEL 7
REMARK VINA RESULT:      -6.8      1.014      1.364
REMARK  Name = 
REMARK  6 active torsions:
REMARK  status: ('A' for Active; 'I' for Inactive)
REMARK    1  A    between atoms: C_1  and  C_2
REMARK    2  A    between atoms: N_4  and  C_5
REMARK    3  A    between atoms: C_5  and  C_6
REMARK    4  A    between atoms: C_5  and  C_8
REMARK    5  A    between atoms: N_10  and  C_11
REMARK    6  A    between atoms: C_11  and  C_12
REMARK                            x       y       z     vdW  Elec       q    Type
REMARK                         _______ _______ _______ _____ _____    ______ ____
ROOT
ATOM      1  C   UNL     1       6.117   5.299  18.477  0.00  0.00    +0.000 C 
ATOM      2  O   UNL     1       6.787   4.874  19.414  0.00  0.00    +0.000 OA
ATOM      3  N   UNL     1       4.748   5.492  18.547  0.00  0.00    +0.000 N 
ATOM      4  H   UNL     1       4.368   6.203  17.932  0.00  0.00    +0.000 HD
ENDROOT
BRANCH   1   5
ATOM      5  C   UNL     1       6.745   5.770  17.151  0.00  0.00    +0.000 C 
BRANCH   5   9
ATOM      6  C   UNL     1       6.188   3.933  13.870  0.00  0.00    +0.000 C 
ATOM      7  C   UNL     1       6.870   4.858  14.841  0.00  0.00    +0.000 C 
ATOM      8  O   UNL     1       7.917   5.440  14.583  0.00  0.00    +0.000 OA
ATOM      9  N   UNL     1       6.210   4.968  16.042  0.00  0.00    +0.000 N 
ATOM     10  H   UNL     1       5.602   4.196  16.296  0.00  0.00    +0.000 HD
ENDBRANCH   5   9
BRANCH   5  11
ATOM     11  C   UNL     1       6.562   7.279  16.989  0.00  0.00    +0.000 C 
ATOM     12 BR   UNL     1       8.020   8.300  17.807  0.00  0.00    +0.000 Br
ENDBRANCH   5  11
ENDBRANCH   1   5
BRANCH   3  13
ATOM     13  C   UNL     1       4.002   5.214  19.751  0.00  0.00    +0.000 C 
BRANCH  13  14
ATOM     14  C   UNL     1       2.901   4.229  19.463  0.00  0.00    +0.000 A 
ATOM     15  C   UNL     1       1.813   4.117  20.342  0.00  0.00    +0.000 A 
ATOM     16  C   UNL     1       0.785   3.208  20.088  0.00  0.00    +0.000 A 
ATOM     17  C   UNL     1       0.839   2.392  18.960  0.00  0.00    +0.000 A 
ATOM     18  C   UNL     1       1.925   2.479  18.090  0.00  0.00    +0.000 A 
ATOM     19  C   UNL     1       2.955   3.389  18.341  0.00  0.00    +0.000 A 
ENDBRANCH  13  14
ENDBRANCH   3  13
TORSDOF 5
ENDMDL
MODEL 8
REMARK VINA RESULT:      -6.6      0.991      1.530
REMARK  Name = 
REMARK  6 active torsions:
REMARK  status: ('A' for Active; 'I' for Inactive)
REMARK    1  A    between atoms: C_1  and  C_2
REMARK    2  A    between atoms: N_4  and  C_5
REMARK    3  A    between atoms: C_5  and  C_6
REMARK    4  A    between atoms: C_5  and  C_8
REMARK    5  A    between atoms: N_10  and  C_11
REMARK    6  A    between atoms: C_11  and  C_12
REMARK                            x       y       z     vdW  Elec       q    Type
REMARK                         _______ _______ _______ _____ _____    ______ ____
ROOT
ATOM      1  C   UNL     1       6.649   4.679  18.147  0.00  0.00    +0.000 C 
ATOM      2  O   UNL     1       7.443   4.737  19.081  0.00  0.00    +0.000 OA
ATOM      3  N   UNL     1       5.447   3.995  18.213  0.00  0.00    +0.000 N 
ATOM      4  H   UNL     1       4.708   4.336  17.607  0.00  0.00    +0.000 HD
ENDROOT
BRANCH   1   5
ATOM      5  C   UNL     1       6.851   5.457  16.833  0.00  0.00    +0.000 C 
BRANCH   5   9
ATOM      6  C   UNL     1       6.064   3.844  13.482  0.00  0.00    +0.000 C 
ATOM      7  C   UNL     1       6.784   4.741  14.453  0.00  0.00    +0.000 C 
ATOM      8  O   UNL     1       7.754   5.420  14.139  0.00  0.00    +0.000 OA
ATOM      9  N   UNL     1       6.254   4.705  15.720  0.00  0.00    +0.000 N 
ATOM     10  H   UNL     1       5.732   3.871  15.969  0.00  0.00    +0.000 HD
ENDBRANCH   5   9
BRANCH   5  11
ATOM     11  C   UNL     1       6.333   6.888  16.983  0.00  0.00    +0.000 C 
ATOM     12 BR   UNL     1       4.385   6.960  17.174  0.00  0.00    +0.000 Br
ENDBRANCH   5  11
ENDBRANCH   1   5
BRANCH   3  13
ATOM     13  C   UNL     1       5.032   3.301  19.409  0.00  0.00    +0.000 C 
BRANCH  13  14
ATOM     14  C   UNL     1       3.573   3.560  19.679  0.00  0.00    +0.000 A 
ATOM     15  C   UNL     1       2.636   2.530  19.511  0.00  0.00    +0.000 A 
ATOM     16  C   UNL     1       1.281   2.755  19.757  0.00  0.00    +0.000 A 
ATOM     17  C   UNL     1       0.846   4.016  20.161  0.00  0.00    +0.000 A 
ATOM     18  C   UNL     1       1.765   5.054  20.312  0.00  0.00    +0.000 A 
ATOM     19  C   UNL     1       3.123   4.830  20.067  0.00  0.00    +0.000 A 
ENDBRANCH  13  14
ENDBRANCH   3  13
TORSDOF 5
ENDMDL
MODEL 9
REMARK VINA RESULT:      -6.6      1.682      2.080
REMARK  Name = 
REMARK  6 active torsions:
REMARK  status: ('A' for Active; 'I' for Inactive)
REMARK    1  A    between atoms: C_1  and  C_2
REMARK    2  A    between atoms: N_4  and  C_5
REMARK    3  A    between atoms: C_5  and  C_6
REMARK    4  A    between atoms: C_5  and  C_8
REMARK    5  A    between atoms: N_10  and  C_11
REMARK    6  A    between atoms: C_11  and  C_12
REMARK                            x       y       z     vdW  Elec       q    Type
REMARK                         _______ _______ _______ _____ _____    ______ ____
ROOT
ATOM      1  C   UNL     1       5.346   6.130  17.842  0.00  0.00    +0.000 C 
ATOM      2  O   UNL     1       4.735   6.873  17.079  0.00  0.00    +0.000 OA
ATOM      3  N   UNL     1       4.775   5.559  18.966  0.00  0.00    +0.000 N 
ATOM      4  H   UNL     1       5.178   4.680  19.272  0.00  0.00    +0.000 HD
ENDROOT
BRANCH   1   5
ATOM      5  C   UNL     1       6.787   5.660  17.570  0.00  0.00    +0.000 C 
BRANCH   5   9
ATOM      6  C   UNL     1       7.009   4.895  13.853  0.00  0.00    +0.000 C 
ATOM      7  C   UNL     1       6.725   4.631  15.307  0.00  0.00    +0.000 C 
ATOM      8  O   UNL     1       6.240   3.581  15.711  0.00  0.00    +0.000 OA
ATOM      9  N   UNL     1       7.048   5.688  16.123  0.00  0.00    +0.000 N 
ATOM     10  H   UNL     1       7.075   6.605  15.688  0.00  0.00    +0.000 HD
ENDBRANCH   5   9
BRANCH   5  11
ATOM     11  C   UNL     1       7.774   6.474  18.408  0.00  0.00    +0.000 C 
ATOM     12 BR   UNL     1       7.957   8.316  17.766  0.00  0.00    +0.000 Br
ENDBRANCH   5  11
ENDBRANCH   1   5
BRANCH   3  13
ATOM     13  C   UNL     1       3.394   5.792  19.320  0.00  0.00    +0.000 C 
BRANCH  13  14
ATOM     14  C   UNL     1       2.589   4.536  19.122  0.00  0.00    +0.000 A 
ATOM     15  C   UNL     1       1.520   4.245  19.983  0.00  0.00    +0.000 A 
ATOM     16  C   UNL     1       0.765   3.085  19.813  0.00  0.00    +0.000 A 
ATOM     17  C   UNL     1       1.077   2.195  18.787  0.00  0.00    +0.000 A 
ATOM     18  C   UNL     1       2.149   2.462  17.936  0.00  0.00    +0.000 A 
ATOM     19  C   UNL     1       2.906   3.625  18.105  0.00  0.00    +0.000 A 
ENDBRANCH  13  14
ENDBRANCH   3  13
TORSDOF 5
ENDMDL
