MODEL 1
REMARK VINA RESULT:      -7.5      0.000      0.000
REMARK  Name = 
REMARK  12 active torsions:
REMARK  status: ('A' for Active; 'I' for Inactive)
REMARK    1  A    between atoms: C_1  and  O_2
REMARK    2  A    between atoms: O_2  and  C_3
REMARK    3  A    between atoms: C_10  and  S_11
REMARK    4  A    between atoms: S_11  and  N_14
REMARK    5  A    between atoms: N_14  and  C_15
REMARK    6  A    between atoms: C_15  and  C_16
REMARK    7  A    between atoms: C_15  and  C_20
REMARK    8  A    between atoms: C_16  and  C_17
REMARK    9  A    between atoms: C_17  and  C_18
REMARK   10  A    between atoms: C_17  and  C_19
REMARK   11  A    between atoms: C_20  and  O_22
REMARK   12  A    between atoms: O_22  and  C_23
REMARK                            x       y       z     vdW  Elec       q    Type
REMARK                         _______ _______ _______ _____ _____    ______ ____
ROOT
ATOM      1  C   UNL     1      -0.762  11.003  22.983  0.00  0.00    +0.000 C 
ATOM      2  O   UNL     1      -0.497   9.988  23.607  0.00  0.00    +0.000 OA
ATOM      3  N   UNL     1      -0.503  11.298  21.673  0.00  0.00    +0.000 N 
ATOM      4  C   UNL     1       0.147  10.420  20.848  0.00  0.00    +0.000 A 
ATOM      5  N   UNL     1       0.595   9.224  21.141  0.00  0.00    +0.000 NA
ATOM      6  C   UNL     1       1.229   8.764  20.022  0.00  0.00    +0.000 A 
ATOM      7  C   UNL     1       1.933   7.570  19.835  0.00  0.00    +0.000 A 
ATOM      8  C   UNL     1       2.545   7.361  18.594  0.00  0.00    +0.000 A 
ATOM      9  C   UNL     1       2.428   8.294  17.553  0.00  0.00    +0.000 A 
ATOM     10  C   UNL     1       1.708   9.484  17.728  0.00  0.00    +0.000 A 
ATOM     11  C   UNL     1       1.139   9.688  18.988  0.00  0.00    +0.000 A 
ATOM     12  N   UNL     1       0.431  10.730  19.539  0.00  0.00    +0.000 N 
ATOM     13  H   UNL     1      -0.791  12.207  21.355  0.00  0.00    +0.000 HD
ATOM     14  H   UNL     1       0.195  11.592  19.074  0.00  0.00    +0.000 HD
ENDROOT
BRANCH   8  15
ATOM     15  S   UNL     1       3.591   5.945  18.382  0.00  0.00    +0.000 S 
ATOM     16  O   UNL     1       4.232   5.701  19.650  0.00  0.00    +0.000 OA
ATOM     17  O   UNL     1       2.866   4.905  17.683  0.00  0.00    +0.000 OA
BRANCH  15  18
ATOM     18  N   UNL     1       4.799   6.501  17.366  0.00  0.00    +0.000 NA
ATOM     19  H   UNL     1       5.257   7.310  17.791  0.00  0.00    +0.000 HD
BRANCH  18  20
ATOM     20  C   UNL     1       5.715   5.540  16.694  0.00  0.00    +0.000 C 
BRANCH  20  21
ATOM     21  C   UNL     1       7.137   5.943  17.113  0.00  0.00    +0.000 C 
ATOM     22  O   UNL     1       7.765   6.886  16.647  0.00  0.00    +0.000 OA
BRANCH  21  23
ATOM     23  O   UNL     1       7.608   5.105  18.082  0.00  0.00    +0.000 OA
ATOM     24  C   UNL     1       7.805   5.733  19.351  0.00  0.00    +0.000 C 
ENDBRANCH  21  23
ENDBRANCH  20  21
BRANCH  20  25
ATOM     25  C   UNL     1       5.607   5.590  15.161  0.00  0.00    +0.000 C 
BRANCH  25  26
ATOM     26  C   UNL     1       6.430   4.503  14.433  0.00  0.00    +0.000 C 
ATOM     27  C   UNL     1       5.575   3.644  13.498  0.00  0.00    +0.000 C 
ATOM     28  C   UNL     1       7.573   5.134  13.634  0.00  0.00    +0.000 C 
ENDBRANCH  25  26
ENDBRANCH  20  25
ENDBRANCH  18  20
ENDBRANCH  15  18
ENDBRANCH   8  15
BRANCH   1  30
ATOM     29  C   UNL     1      -2.275  12.752  22.635  0.00  0.00    +0.000 C 
ATOM     30  O   UNL     1      -1.399  12.075  23.541  0.00  0.00    +0.000 OA
ENDBRANCH   1  30
TORSDOF 8
ENDMDL
MODEL 2
REMARK VINA RESULT:      -7.4      1.037      1.446
REMARK  Name = 
REMARK  12 active torsions:
REMARK  status: ('A' for Active; 'I' for Inactive)
REMARK    1  A    between atoms: C_1  and  O_2
REMARK    2  A    between atoms: O_2  and  C_3
REMARK    3  A    between atoms: C_10  and  S_11
REMARK    4  A    between atoms: S_11  and  N_14
REMARK    5  A    between atoms: N_14  and  C_15
REMARK    6  A    between atoms: C_15  and  C_16
REMARK    7  A    between atoms: C_15  and  C_20
REMARK    8  A    between atoms: C_16  and  C_17
REMARK    9  A    between atoms: C_17  and  C_18
REMARK   10  A    between atoms: C_17  and  C_19
REMARK   11  A    between atoms: C_20  and  O_22
REMARK   12  A    between atoms: O_22  and  C_23
REMARK                            x       y       z     vdW  Elec       q    Type
REMARK                         _______ _______ _______ _____ _____    ______ ____
ROOT
ATOM      1  C   UNL     1      -0.421  10.395  22.876  0.00  0.00    +0.000 C 
ATOM      2  O   UNL     1      -0.214   9.363  23.493  0.00  0.00    +0.000 OA
ATOM      3  N   UNL     1      -0.099  10.702  21.582  0.00  0.00    +0.000 N 
ATOM      4  C   UNL     1       0.557   9.816  20.770  0.00  0.00    +0.000 A 
ATOM      5  N   UNL     1       0.954   8.602  21.062  0.00  0.00    +0.000 NA
ATOM      6  C   UNL     1       1.619   8.139  19.962  0.00  0.00    +0.000 A 
ATOM      7  C   UNL     1       2.292   6.926  19.783  0.00  0.00    +0.000 A 
ATOM      8  C   UNL     1       2.948   6.716  18.566  0.00  0.00    +0.000 A 
ATOM      9  C   UNL     1       2.905   7.668  17.536  0.00  0.00    +0.000 A 
ATOM     10  C   UNL     1       2.216   8.878  17.701  0.00  0.00    +0.000 A 
ATOM     11  C   UNL     1       1.601   9.081  18.941  0.00  0.00    +0.000 A 
ATOM     12  N   UNL     1       0.904  10.137  19.480  0.00  0.00    +0.000 N 
ATOM     13  H   UNL     1      -0.345  11.625  21.268  0.00  0.00    +0.000 HD
ATOM     14  H   UNL     1       0.715  11.013  19.019  0.00  0.00    +0.000 HD
ENDROOT
BRANCH   8  15
ATOM     15  S   UNL     1       3.957   5.271  18.372  0.00  0.00    +0.000 S 
ATOM     16  O   UNL     1       4.460   4.931  19.680  0.00  0.00    +0.000 OA
ATOM     17  O   UNL     1       3.267   4.303  17.547  0.00  0.00    +0.000 OA
BRANCH  15  18
ATOM     18  N   UNL     1       5.279   5.830  17.512  0.00  0.00    +0.000 NA
ATOM     19  H   UNL     1       5.275   6.852  17.506  0.00  0.00    +0.000 HD
BRANCH  18  20
ATOM     20  C   UNL     1       6.616   5.205  17.704  0.00  0.00    +0.000 C 
BRANCH  20  21
ATOM     21  C   UNL     1       7.564   6.345  18.111  0.00  0.00    +0.000 C 
ATOM     22  O   UNL     1       8.218   6.376  19.146  0.00  0.00    +0.000 OA
BRANCH  21  23
ATOM     23  O   UNL     1       7.580   7.320  17.157  0.00  0.00    +0.000 OA
ATOM     24  C   UNL     1       7.862   8.627  17.663  0.00  0.00    +0.000 C 
ENDBRANCH  21  23
ENDBRANCH  20  21
BRANCH  20  25
ATOM     25  C   UNL     1       7.149   4.539  16.426  0.00  0.00    +0.000 C 
BRANCH  25  26
ATOM     26  C   UNL     1       6.384   4.930  15.141  0.00  0.00    +0.000 C 
ATOM     27  C   UNL     1       7.317   5.203  13.959  0.00  0.00    +0.000 C 
ATOM     28  C   UNL     1       5.384   3.837  14.753  0.00  0.00    +0.000 C 
ENDBRANCH  25  26
ENDBRANCH  20  25
ENDBRANCH  18  20
ENDBRANCH  15  18
ENDBRANCH   8  15
BRANCH   1  30
ATOM     29  C   UNL     1      -1.558  12.394  22.453  0.00  0.00    +0.000 C 
ATOM     30  O   UNL     1      -1.046  11.478  23.425  0.00  0.00    +0.000 OA
ENDBRANCH   1  30
TORSDOF 8
ENDMDL
MODEL 3
REMARK VINA RESULT:      -7.4      2.021      2.734
REMARK  Name = 
REMARK  12 active torsions:
REMARK  status: ('A' for Active; 'I' for Inactive)
REMARK    1  A    between atoms: C_1  and  O_2
REMARK    2  A    between atoms: O_2  and  C_3
REMARK    3  A    between atoms: C_10  and  S_11
REMARK    4  A    between atoms: S_11  and  N_14
REMARK    5  A    between atoms: N_14  and  C_15
REMARK    6  A    between atoms: C_15  and  C_16
REMARK    7  A    between atoms: C_15  and  C_20
REMARK    8  A    between atoms: C_16  and  C_17
REMARK    9  A    between atoms: C_17  and  C_18
REMARK   10  A    between atoms: C_17  and  C_19
REMARK   11  A    between atoms: C_20  and  O_22
REMARK   12  A    between atoms: O_22  and  C_23
REMARK                            x       y       z     vdW  Elec       q    Type
REMARK                         _______ _______ _______ _____ _____    ______ ____
ROOT
ATOM      1  C   UNL     1       0.334  11.101  19.673  0.00  0.00    +0.000 C 
ATOM      2  O   UNL     1       0.876  11.174  18.582  0.00  0.00    +0.000 OA
ATOM      3  N   UNL     1       0.350  10.070  20.573  0.00  0.00    +0.000 N 
ATOM      4  C   UNL     1       1.022   8.903  20.325  0.00  0.00    +0.000 A 
ATOM      5  N   UNL     1       1.726   8.592  19.265  0.00  0.00    +0.000 NA
ATOM      6  C   UNL     1       2.142   7.303  19.444  0.00  0.00    +0.000 A 
ATOM      7  C   UNL     1       2.867   6.482  18.573  0.00  0.00    +0.000 A 
ATOM      8  C   UNL     1       3.119   5.166  18.977  0.00  0.00    +0.000 A 
ATOM      9  C   UNL     1       2.698   4.689  20.227  0.00  0.00    +0.000 A 
ATOM     10  C   UNL     1       1.989   5.513  21.112  0.00  0.00    +0.000 A 
ATOM     11  C   UNL     1       1.715   6.811  20.670  0.00  0.00    +0.000 A 
ATOM     12  N   UNL     1       1.014   7.860  21.219  0.00  0.00    +0.000 N 
ATOM     13  H   UNL     1      -0.182  10.206  21.415  0.00  0.00    +0.000 HD
ATOM     14  H   UNL     1       0.540   7.849  22.108  0.00  0.00    +0.000 HD
ENDROOT
BRANCH   8  15
ATOM     15  S   UNL     1       3.876   4.047  17.828  0.00  0.00    +0.000 S 
ATOM     16  O   UNL     1       4.764   3.202  18.588  0.00  0.00    +0.000 OA
ATOM     17  O   UNL     1       2.867   3.496  16.949  0.00  0.00    +0.000 OA
BRANCH  15  18
ATOM     18  N   UNL     1       4.869   5.037  16.915  0.00  0.00    +0.000 NA
ATOM     19  H   UNL     1       5.203   5.811  17.492  0.00  0.00    +0.000 HD
BRANCH  18  20
ATOM     20  C   UNL     1       5.885   4.444  16.004  0.00  0.00    +0.000 C 
BRANCH  20  21
ATOM     21  C   UNL     1       7.252   4.899  16.538  0.00  0.00    +0.000 C 
ATOM     22  O   UNL     1       8.046   4.182  17.135  0.00  0.00    +0.000 OA
BRANCH  21  23
ATOM     23  O   UNL     1       7.466   6.216  16.250  0.00  0.00    +0.000 OA
ATOM     24  C   UNL     1       7.492   7.068  17.398  0.00  0.00    +0.000 C 
ENDBRANCH  21  23
ENDBRANCH  20  21
BRANCH  20  25
ATOM     25  C   UNL     1       5.728   4.917  14.550  0.00  0.00    +0.000 C 
BRANCH  25  26
ATOM     26  C   UNL     1       6.501   4.063  13.519  0.00  0.00    +0.000 C 
ATOM     27  C   UNL     1       5.581   3.414  12.483  0.00  0.00    +0.000 C 
ATOM     28  C   UNL     1       7.556   4.909  12.799  0.00  0.00    +0.000 C 
ENDBRANCH  25  26
ENDBRANCH  20  25
ENDBRANCH  18  20
ENDBRANCH  15  18
ENDBRANCH   8  15
BRANCH   1  30
ATOM     29  C   UNL     1       0.145  13.407  20.016  0.00  0.00    +0.000 C 
ATOM     30  O   UNL     1      -0.427  12.107  20.195  0.00  0.00    +0.000 OA
ENDBRANCH   1  30
TORSDOF 8
ENDMDL
MODEL 4
REMARK VINA RESULT:      -7.4      2.578      4.009
REMARK  Name = 
REMARK  12 active torsions:
REMARK  status: ('A' for Active; 'I' for Inactive)
REMARK    1  A    between atoms: C_1  and  O_2
REMARK    2  A    between atoms: O_2  and  C_3
REMARK    3  A    between atoms: C_10  and  S_11
REMARK    4  A    between atoms: S_11  and  N_14
REMARK    5  A    between atoms: N_14  and  C_15
REMARK    6  A    between atoms: C_15  and  C_16
REMARK    7  A    between atoms: C_15  and  C_20
REMARK    8  A    between atoms: C_16  and  C_17
REMARK    9  A    between atoms: C_17  and  C_18
REMARK   10  A    between atoms: C_17  and  C_19
REMARK   11  A    between atoms: C_20  and  O_22
REMARK   12  A    between atoms: O_22  and  C_23
REMARK                            x       y       z     vdW  Elec       q    Type
REMARK                         _______ _______ _______ _____ _____    ______ ____
ROOT
ATOM      1  C   UNL     1       1.007  10.440  19.342  0.00  0.00    +0.000 C 
ATOM      2  O   UNL     1       1.313  10.344  18.164  0.00  0.00    +0.000 OA
ATOM      3  N   UNL     1       1.100   9.502  20.333  0.00  0.00    +0.000 N 
ATOM      4  C   UNL     1       1.575   8.240  20.094  0.00  0.00    +0.000 A 
ATOM      5  N   UNL     1       2.004   7.746  18.959  0.00  0.00    +0.000 NA
ATOM      6  C   UNL     1       2.307   6.436  19.199  0.00  0.00    +0.000 A 
ATOM      7  C   UNL     1       2.741   5.453  18.303  0.00  0.00    +0.000 A 
ATOM      8  C   UNL     1       2.928   4.158  18.797  0.00  0.00    +0.000 A 
ATOM      9  C   UNL     1       2.730   3.854  20.153  0.00  0.00    +0.000 A 
ATOM     10  C   UNL     1       2.314   4.839  21.059  0.00  0.00    +0.000 A 
ATOM     11  C   UNL     1       2.096   6.116  20.534  0.00  0.00    +0.000 A 
ATOM     12  N   UNL     1       1.641   7.291  21.085  0.00  0.00    +0.000 N 
ATOM     13  H   UNL     1       0.773   9.780  21.242  0.00  0.00    +0.000 HD
ATOM     14  H   UNL     1       1.366   7.422  22.045  0.00  0.00    +0.000 HD
ENDROOT
BRANCH   8  15
ATOM     15  S   UNL     1       3.304   2.850  17.659  0.00  0.00    +0.000 S 
ATOM     16  O   UNL     1       3.243   1.616  18.401  0.00  0.00    +0.000 OA
ATOM     17  O   UNL     1       2.553   3.041  16.436  0.00  0.00    +0.000 OA
BRANCH  15  18
ATOM     18  N   UNL     1       4.923   3.088  17.311  0.00  0.00    +0.000 NA
ATOM     19  H   UNL     1       5.216   2.434  16.582  0.00  0.00    +0.000 HD
BRANCH  18  20
ATOM     20  C   UNL     1       5.466   4.467  17.175  0.00  0.00    +0.000 C 
BRANCH  20  21
ATOM     21  C   UNL     1       5.527   4.754  15.667  0.00  0.00    +0.000 C 
ATOM     22  O   UNL     1       5.240   5.824  15.144  0.00  0.00    +0.000 OA
BRANCH  21  23
ATOM     23  O   UNL     1       5.952   3.650  14.985  0.00  0.00    +0.000 OA
ATOM     24  C   UNL     1       6.213   3.885  13.599  0.00  0.00    +0.000 C 
ENDBRANCH  21  23
ENDBRANCH  20  21
BRANCH  20  25
ATOM     25  C   UNL     1       6.873   4.613  17.774  0.00  0.00    +0.000 C 
BRANCH  25  26
ATOM     26  C   UNL     1       7.072   5.891  18.620  0.00  0.00    +0.000 C 
ATOM     27  C   UNL     1       8.072   5.693  19.762  0.00  0.00    +0.000 C 
ATOM     28  C   UNL     1       7.534   7.056  17.740  0.00  0.00    +0.000 C 
ENDBRANCH  25  26
ENDBRANCH  20  25
ENDBRANCH  18  20
ENDBRANCH  15  18
ENDBRANCH   8  15
BRANCH   1  30
ATOM     29  C   UNL     1       0.369  11.531  21.310  0.00  0.00    +0.000 C 
ATOM     30  O   UNL     1       0.485  11.579  19.884  0.00  0.00    +0.000 OA
ENDBRANCH   1  30
TORSDOF 8
ENDMDL
MODEL 5
REMARK VINA RESULT:      -7.2      2.058      2.830
REMARK  Name = 
REMARK  12 active torsions:
REMARK  status: ('A' for Active; 'I' for Inactive)
REMARK    1  A    between atoms: C_1  and  O_2
REMARK    2  A    between atoms: O_2  and  C_3
REMARK    3  A    between atoms: C_10  and  S_11
REMARK    4  A    between atoms: S_11  and  N_14
REMARK    5  A    between atoms: N_14  and  C_15
REMARK    6  A    between atoms: C_15  and  C_16
REMARK    7  A    between atoms: C_15  and  C_20
REMARK    8  A    between atoms: C_16  and  C_17
REMARK    9  A    between atoms: C_17  and  C_18
REMARK   10  A    between atoms: C_17  and  C_19
REMARK   11  A    between atoms: C_20  and  O_22
REMARK   12  A    between atoms: O_22  and  C_23
REMARK                            x       y       z     vdW  Elec       q    Type
REMARK                         _______ _______ _______ _____ _____    ______ ____
ROOT
ATOM      1  C   UNL     1       0.762  11.023  19.743  0.00  0.00    +0.000 C 
ATOM      2  O   UNL     1       1.168  11.054  18.593  0.00  0.00    +0.000 OA
ATOM      3  N   UNL     1       0.789   9.988  20.637  0.00  0.00    +0.000 N 
ATOM      4  C   UNL     1       1.308   8.764  20.310  0.00  0.00    +0.000 A 
ATOM      5  N   UNL     1       1.842   8.396  19.172  0.00  0.00    +0.000 NA
ATOM      6  C   UNL     1       2.150   7.071  19.300  0.00  0.00    +0.000 A 
ATOM      7  C   UNL     1       2.677   6.192  18.349  0.00  0.00    +0.000 A 
ATOM      8  C   UNL     1       2.848   4.854  18.721  0.00  0.00    +0.000 A 
ATOM      9  C   UNL     1       2.542   4.408  20.015  0.00  0.00    +0.000 A 
ATOM     10  C   UNL     1       2.031   5.289  20.980  0.00  0.00    +0.000 A 
ATOM     11  C   UNL     1       1.832   6.611  20.572  0.00  0.00    +0.000 A 
ATOM     12  N   UNL     1       1.309   7.717  21.201  0.00  0.00    +0.000 N 
ATOM     13  H   UNL     1       0.381  10.166  21.538  0.00  0.00    +0.000 HD
ATOM     14  H   UNL     1       0.951   7.744  22.142  0.00  0.00    +0.000 HD
ENDROOT
BRANCH   8  15
ATOM     15  S   UNL     1       3.345   3.678  17.490  0.00  0.00    +0.000 S 
ATOM     16  O   UNL     1       4.178   2.704  18.151  0.00  0.00    +0.000 OA
ATOM     17  O   UNL     1       2.197   3.287  16.700  0.00  0.00    +0.000 OA
BRANCH  15  18
ATOM     18  N   UNL     1       4.374   4.555  16.504  0.00  0.00    +0.000 NA
ATOM     19  H   UNL     1       3.998   5.496  16.369  0.00  0.00    +0.000 HD
BRANCH  18  20
ATOM     20  C   UNL     1       5.846   4.487  16.707  0.00  0.00    +0.000 C 
BRANCH  20  21
ATOM     21  C   UNL     1       6.320   5.939  16.876  0.00  0.00    +0.000 C 
ATOM     22  O   UNL     1       5.631   6.930  16.668  0.00  0.00    +0.000 OA
BRANCH  21  23
ATOM     23  O   UNL     1       7.618   5.974  17.296  0.00  0.00    +0.000 OA
ATOM     24  C   UNL     1       7.770   6.059  18.715  0.00  0.00    +0.000 C 
ENDBRANCH  21  23
ENDBRANCH  20  21
BRANCH  20  25
ATOM     25  C   UNL     1       6.581   3.851  15.517  0.00  0.00    +0.000 C 
BRANCH  25  26
ATOM     26  C   UNL     1       6.333   4.561  14.167  0.00  0.00    +0.000 C 
ATOM     27  C   UNL     1       7.601   5.201  13.596  0.00  0.00    +0.000 C 
ATOM     28  C   UNL     1       5.754   3.584  13.140  0.00  0.00    +0.000 C 
ENDBRANCH  25  26
ENDBRANCH  20  25
ENDBRANCH  18  20
ENDBRANCH  15  18
ENDBRANCH   8  15
BRANCH   1  30
ATOM     29  C   UNL     1      -0.183  11.848  21.718  0.00  0.00    +0.000 C 
ATOM     30  O   UNL     1       0.172  12.094  20.354  0.00  0.00    +0.000 OA
ENDBRANCH   1  30
TORSDOF 8
ENDMDL
MODEL 6
REMARK VINA RESULT:      -7.1      1.862      3.202
REMARK  Name = 
REMARK  12 active torsions:
REMARK  status: ('A' for Active; 'I' for Inactive)
REMARK    1  A    between atoms: C_1  and  O_2
REMARK    2  A    between atoms: O_2  and  C_3
REMARK    3  A    between atoms: C_10  and  S_11
REMARK    4  A    between atoms: S_11  and  N_14
REMARK    5  A    between atoms: N_14  and  C_15
REMARK    6  A    between atoms: C_15  and  C_16
REMARK    7  A    between atoms: C_15  and  C_20
REMARK    8  A    between atoms: C_16  and  C_17
REMARK    9  A    between atoms: C_17  and  C_18
REMARK   10  A    between atoms: C_17  and  C_19
REMARK   11  A    between atoms: C_20  and  O_22
REMARK   12  A    between atoms: O_22  and  C_23
REMARK                            x       y       z     vdW  Elec       q    Type
REMARK                         _______ _______ _______ _____ _____    ______ ____
ROOT
ATOM      1  C   UNL     1       0.426   9.774  21.949  0.00  0.00    +0.000 C 
ATOM      2  O   UNL     1       0.406   8.788  22.667  0.00  0.00    +0.000 OA
ATOM      3  N   UNL     1       0.916   9.903  20.679  0.00  0.00    +0.000 N 
ATOM      4  C   UNL     1       1.500   8.855  20.019  0.00  0.00    +0.000 A 
ATOM      5  N   UNL     1       1.671   7.629  20.450  0.00  0.00    +0.000 NA
ATOM      6  C   UNL     1       2.358   6.969  19.472  0.00  0.00    +0.000 A 
ATOM      7  C   UNL     1       2.846   5.657  19.468  0.00  0.00    +0.000 A 
ATOM      8  C   UNL     1       3.576   5.236  18.352  0.00  0.00    +0.000 A 
ATOM      9  C   UNL     1       3.783   6.080  17.250  0.00  0.00    +0.000 A 
ATOM     10  C   UNL     1       3.281   7.388  17.239  0.00  0.00    +0.000 A 
ATOM     11  C   UNL     1       2.588   7.799  18.382  0.00  0.00    +0.000 A 
ATOM     12  N   UNL     1       2.017   8.994  18.753  0.00  0.00    +0.000 N 
ATOM     13  H   UNL     1       0.850  10.817  20.266  0.00  0.00    +0.000 HD
ATOM     14  H   UNL     1       2.014   9.839  18.205  0.00  0.00    +0.000 HD
ENDROOT
BRANCH   8  15
ATOM     15  S   UNL     1       4.359   3.645  18.389  0.00  0.00    +0.000 S 
ATOM     16  O   UNL     1       5.263   3.648  19.512  0.00  0.00    +0.000 OA
ATOM     17  O   UNL     1       3.363   2.609  18.217  0.00  0.00    +0.000 OA
BRANCH  15  18
ATOM     18  N   UNL     1       5.330   3.656  17.027  0.00  0.00    +0.000 NA
ATOM     19  H   UNL     1       4.778   3.384  16.211  0.00  0.00    +0.000 HD
BRANCH  18  20
ATOM     20  C   UNL     1       6.287   4.772  16.798  0.00  0.00    +0.000 C 
BRANCH  20  21
ATOM     21  C   UNL     1       6.622   4.744  15.298  0.00  0.00    +0.000 C 
ATOM     22  O   UNL     1       7.594   5.287  14.787  0.00  0.00    +0.000 OA
BRANCH  21  23
ATOM     23  O   UNL     1       5.688   4.024  14.611  0.00  0.00    +0.000 OA
ATOM     24  C   UNL     1       6.071   3.699  13.273  0.00  0.00    +0.000 C 
ENDBRANCH  21  23
ENDBRANCH  20  21
BRANCH  20  25
ATOM     25  C   UNL     1       7.584   4.619  17.608  0.00  0.00    +0.000 C 
BRANCH  25  26
ATOM     26  C   UNL     1       8.008   5.894  18.371  0.00  0.00    +0.000 C 
ATOM     27  C   UNL     1       7.387   7.165  17.786  0.00  0.00    +0.000 C 
ATOM     28  C   UNL     1       7.636   5.787  19.853  0.00  0.00    +0.000 C 
ENDBRANCH  25  26
ENDBRANCH  20  25
ENDBRANCH  18  20
ENDBRANCH  15  18
ENDBRANCH   8  15
BRANCH   1  30
ATOM     29  C   UNL     1       0.033  11.994  21.325  0.00  0.00    +0.000 C 
ATOM     30  O   UNL     1      -0.072  10.986  22.336  0.00  0.00    +0.000 OA
ENDBRANCH   1  30
TORSDOF 8
ENDMDL
MODEL 7
REMARK VINA RESULT:      -7.0      4.904      7.450
REMARK  Name = 
REMARK  12 active torsions:
REMARK  status: ('A' for Active; 'I' for Inactive)
REMARK    1  A    between atoms: C_1  and  O_2
REMARK    2  A    between atoms: O_2  and  C_3
REMARK    3  A    between atoms: C_10  and  S_11
REMARK    4  A    between atoms: S_11  and  N_14
REMARK    5  A    between atoms: N_14  and  C_15
REMARK    6  A    between atoms: C_15  and  C_16
REMARK    7  A    between atoms: C_15  and  C_20
REMARK    8  A    between atoms: C_16  and  C_17
REMARK    9  A    between atoms: C_17  and  C_18
REMARK   10  A    between atoms: C_17  and  C_19
REMARK   11  A    between atoms: C_20  and  O_22
REMARK   12  A    between atoms: O_22  and  C_23
REMARK                            x       y       z     vdW  Elec       q    Type
REMARK                         _______ _______ _______ _____ _____    ______ ____
ROOT
ATOM      1  C   UNL     1       8.811  11.855  18.193  0.00  0.00    +0.000 C 
ATOM      2  O   UNL     1       8.153  11.997  17.175  0.00  0.00    +0.000 OA
ATOM      3  N   UNL     1       9.094  10.708  18.882  0.00  0.00    +0.000 N 
ATOM      4  C   UNL     1       8.620   9.487  18.480  0.00  0.00    +0.000 A 
ATOM      5  N   UNL     1       7.875   9.220  17.435  0.00  0.00    +0.000 NA
ATOM      6  C   UNL     1       7.601   7.883  17.491  0.00  0.00    +0.000 A 
ATOM      7  C   UNL     1       6.792   7.113  16.648  0.00  0.00    +0.000 A 
ATOM      8  C   UNL     1       6.629   5.759  16.959  0.00  0.00    +0.000 A 
ATOM      9  C   UNL     1       7.283   5.174  18.054  0.00  0.00    +0.000 A 
ATOM     10  C   UNL     1       8.110   5.935  18.891  0.00  0.00    +0.000 A 
ATOM     11  C   UNL     1       8.226   7.294  18.582  0.00  0.00    +0.000 A 
ATOM     12  N   UNL     1       8.882   8.340  19.189  0.00  0.00    +0.000 N 
ATOM     13  H   UNL     1       9.645  10.812  19.716  0.00  0.00    +0.000 HD
ATOM     14  H   UNL     1       9.428   8.281  20.033  0.00  0.00    +0.000 HD
ENDROOT
BRANCH   8  15
ATOM     15  S   UNL     1       5.472   4.796  16.020  0.00  0.00    +0.000 S 
ATOM     16  O   UNL     1       5.228   5.512  14.793  0.00  0.00    +0.000 OA
ATOM     17  O   UNL     1       5.880   3.407  16.023  0.00  0.00    +0.000 OA
BRANCH  15  18
ATOM     18  N   UNL     1       4.056   4.918  16.902  0.00  0.00    +0.000 NA
ATOM     19  H   UNL     1       3.261   4.996  16.264  0.00  0.00    +0.000 HD
BRANCH  18  20
ATOM     20  C   UNL     1       3.831   4.043  18.084  0.00  0.00    +0.000 C 
BRANCH  20  21
ATOM     21  C   UNL     1       2.509   3.304  17.822  0.00  0.00    +0.000 C 
ATOM     22  O   UNL     1       1.652   3.662  17.023  0.00  0.00    +0.000 OA
BRANCH  21  23
ATOM     23  O   UNL     1       2.422   2.186  18.600  0.00  0.00    +0.000 OA
ATOM     24  C   UNL     1       3.587   1.358  18.566  0.00  0.00    +0.000 C 
ENDBRANCH  21  23
ENDBRANCH  20  21
BRANCH  20  25
ATOM     25  C   UNL     1       3.714   4.835  19.396  0.00  0.00    +0.000 C 
BRANCH  25  26
ATOM     26  C   UNL     1       2.299   5.387  19.679  0.00  0.00    +0.000 C 
ATOM     27  C   UNL     1       1.707   4.850  20.985  0.00  0.00    +0.000 C 
ATOM     28  C   UNL     1       2.314   6.918  19.723  0.00  0.00    +0.000 C 
ENDBRANCH  25  26
ENDBRANCH  20  25
ENDBRANCH  18  20
ENDBRANCH  15  18
ENDBRANCH   8  15
BRANCH   1  30
ATOM     29  C   UNL     1       8.621  14.095  18.841  0.00  0.00    +0.000 C 
ATOM     30  O   UNL     1       9.405  12.898  18.846  0.00  0.00    +0.000 OA
ENDBRANCH   1  30
TORSDOF 8
ENDMDL
MODEL 8
REMARK VINA RESULT:      -7.0      2.465      3.860
REMARK  Name = 
REMARK  12 active torsions:
REMARK  status: ('A' for Active; 'I' for Inactive)
REMARK    1  A    between atoms: C_1  and  O_2
REMARK    2  A    between atoms: O_2  and  C_3
REMARK    3  A    between atoms: C_10  and  S_11
REMARK    4  A    between atoms: S_11  and  N_14
REMARK    5  A    between atoms: N_14  and  C_15
REMARK    6  A    between atoms: C_15  and  C_16
REMARK    7  A    between atoms: C_15  and  C_20
REMARK    8  A    between atoms: C_16  and  C_17
REMARK    9  A    between atoms: C_17  and  C_18
REMARK   10  A    between atoms: C_17  and  C_19
REMARK   11  A    between atoms: C_20  and  O_22
REMARK   12  A    between atoms: O_22  and  C_23
REMARK                            x       y       z     vdW  Elec       q    Type
REMARK                         _______ _______ _______ _____ _____    ______ ____
ROOT
ATOM      1  C   UNL     1       0.921  10.573  19.629  0.00  0.00    +0.000 C 
ATOM      2  O   UNL     1       1.287  10.606  18.465  0.00  0.00    +0.000 OA
ATOM      3  N   UNL     1       1.002   9.543  20.526  0.00  0.00    +0.000 N 
ATOM      4  C   UNL     1       1.538   8.329  20.188  0.00  0.00    +0.000 A 
ATOM      5  N   UNL     1       2.041   7.967  19.034  0.00  0.00    +0.000 NA
ATOM      6  C   UNL     1       2.382   6.650  19.159  0.00  0.00    +0.000 A 
ATOM      7  C   UNL     1       2.897   5.777  18.194  0.00  0.00    +0.000 A 
ATOM      8  C   UNL     1       3.111   4.446  18.568  0.00  0.00    +0.000 A 
ATOM      9  C   UNL     1       2.859   4.001  19.874  0.00  0.00    +0.000 A 
ATOM     10  C   UNL     1       2.362   4.876  20.851  0.00  0.00    +0.000 A 
ATOM     11  C   UNL     1       2.119   6.191  20.443  0.00  0.00    +0.000 A 
ATOM     12  N   UNL     1       1.593   7.288  21.084  0.00  0.00    +0.000 N 
ATOM     13  H   UNL     1       0.622   9.717  21.440  0.00  0.00    +0.000 HD
ATOM     14  H   UNL     1       1.266   7.312  22.036  0.00  0.00    +0.000 HD
ENDROOT
BRANCH   8  15
ATOM     15  S   UNL     1       3.592   3.274  17.326  0.00  0.00    +0.000 S 
ATOM     16  O   UNL     1       3.240   1.967  17.824  0.00  0.00    +0.000 OA
ATOM     17  O   UNL     1       3.156   3.736  16.026  0.00  0.00    +0.000 OA
BRANCH  15  18
ATOM     18  N   UNL     1       5.264   3.333  17.359  0.00  0.00    +0.000 NA
ATOM     19  H   UNL     1       5.644   2.458  16.993  0.00  0.00    +0.000 HD
BRANCH  18  20
ATOM     20  C   UNL     1       5.979   4.563  16.923  0.00  0.00    +0.000 C 
BRANCH  20  21
ATOM     21  C   UNL     1       5.996   4.524  15.387  0.00  0.00    +0.000 C 
ATOM     22  O   UNL     1       6.216   3.525  14.714  0.00  0.00    +0.000 OA
BRANCH  21  23
ATOM     23  O   UNL     1       5.725   5.759  14.873  0.00  0.00    +0.000 OA
ATOM     24  C   UNL     1       5.098   6.652  15.796  0.00  0.00    +0.000 C 
ENDBRANCH  21  23
ENDBRANCH  20  21
BRANCH  20  25
ATOM     25  C   UNL     1       7.424   4.625  17.442  0.00  0.00    +0.000 C 
BRANCH  25  26
ATOM     26  C   UNL     1       7.631   5.599  18.625  0.00  0.00    +0.000 C 
ATOM     27  C   UNL     1       7.883   7.037  18.168  0.00  0.00    +0.000 C 
ATOM     28  C   UNL     1       6.421   5.572  19.565  0.00  0.00    +0.000 C 
ENDBRANCH  25  26
ENDBRANCH  20  25
ENDBRANCH  18  20
ENDBRANCH  15  18
ENDBRANCH   8  15
BRANCH   1  30
ATOM     29  C   UNL     1       0.030  11.389  21.631  0.00  0.00    +0.000 C 
ATOM     30  O   UNL     1       0.329  11.633  20.253  0.00  0.00    +0.000 OA
ENDBRANCH   1  30
TORSDOF 8
ENDMDL
MODEL 9
REMARK VINA RESULT:      -6.9      2.437      3.697
REMARK  Name = 
REMARK  12 active torsions:
REMARK  status: ('A' for Active; 'I' for Inactive)
REMARK    1  A    between atoms: C_1  and  O_2
REMARK    2  A    between atoms: O_2  and  C_3
REMARK    3  A    between atoms: C_10  and  S_11
REMARK    4  A    between atoms: S_11  and  N_14
REMARK    5  A    between atoms: N_14  and  C_15
REMARK    6  A    between atoms: C_15  and  C_16
REMARK    7  A    between atoms: C_15  and  C_20
REMARK    8  A    between atoms: C_16  and  C_17
REMARK    9  A    between atoms: C_17  and  C_18
REMARK   10  A    between atoms: C_17  and  C_19
REMARK   11  A    between atoms: C_20  and  O_22
REMARK   12  A    between atoms: O_22  and  C_23
REMARK                            x       y       z     vdW  Elec       q    Type
REMARK                         _______ _______ _______ _____ _____    ______ ____
ROOT
ATOM      1  C   UNL     1       0.926  10.737  19.431  0.00  0.00    +0.000 C 
ATOM      2  O   UNL     1       1.443  10.691  18.326  0.00  0.00    +0.000 OA
ATOM      3  N   UNL     1       0.854   9.761  20.386  0.00  0.00    +0.000 N 
ATOM      4  C   UNL     1       1.386   8.515  20.190  0.00  0.00    +0.000 A 
ATOM      5  N   UNL     1       2.023   8.071  19.134  0.00  0.00    +0.000 NA
ATOM      6  C   UNL     1       2.299   6.755  19.376  0.00  0.00    +0.000 A 
ATOM      7  C   UNL     1       2.905   5.813  18.538  0.00  0.00    +0.000 A 
ATOM      8  C   UNL     1       3.022   4.501  19.009  0.00  0.00    +0.000 A 
ATOM      9  C   UNL     1       2.586   4.141  20.293  0.00  0.00    +0.000 A 
ATOM     10  C   UNL     1       1.996   5.085  21.145  0.00  0.00    +0.000 A 
ATOM     11  C   UNL     1       1.855   6.380  20.637  0.00  0.00    +0.000 A 
ATOM     12  N   UNL     1       1.288   7.527  21.141  0.00  0.00    +0.000 N 
ATOM     13  H   UNL     1       0.363   9.999  21.231  0.00  0.00    +0.000 HD
ATOM     14  H   UNL     1       0.840   7.617  22.039  0.00  0.00    +0.000 HD
ENDROOT
BRANCH   8  15
ATOM     15  S   UNL     1       3.620   3.244  17.909  0.00  0.00    +0.000 S 
ATOM     16  O   UNL     1       3.402   1.977  18.561  0.00  0.00    +0.000 OA
ATOM     17  O   UNL     1       3.141   3.504  16.568  0.00  0.00    +0.000 OA
BRANCH  15  18
ATOM     18  N   UNL     1       5.277   3.476  17.916  0.00  0.00    +0.000 NA
ATOM     19  H   UNL     1       5.747   2.587  17.730  0.00  0.00    +0.000 HD
BRANCH  18  20
ATOM     20  C   UNL     1       5.872   4.658  17.237  0.00  0.00    +0.000 C 
BRANCH  20  21
ATOM     21  C   UNL     1       6.989   4.112  16.333  0.00  0.00    +0.000 C 
ATOM     22  O   UNL     1       8.186   4.155  16.594  0.00  0.00    +0.000 OA
BRANCH  21  23
ATOM     23  O   UNL     1       6.465   3.566  15.198  0.00  0.00    +0.000 OA
ATOM     24  C   UNL     1       5.666   4.470  14.431  0.00  0.00    +0.000 C 
ENDBRANCH  21  23
ENDBRANCH  20  21
BRANCH  20  25
ATOM     25  C   UNL     1       6.472   5.672  18.224  0.00  0.00    +0.000 C 
BRANCH  25  26
ATOM     26  C   UNL     1       6.269   7.148  17.816  0.00  0.00    +0.000 C 
ATOM     27  C   UNL     1       7.581   7.842  17.442  0.00  0.00    +0.000 C 
ATOM     28  C   UNL     1       5.289   7.256  16.644  0.00  0.00    +0.000 C 
ENDBRANCH  25  26
ENDBRANCH  20  25
ENDBRANCH  18  20
ENDBRANCH  15  18
ENDBRANCH   8  15
BRANCH   1  30
ATOM     29  C   UNL     1      -0.710  11.556  20.888  0.00  0.00    +0.000 C 
ATOM     30  O   UNL     1       0.295  11.848  19.912  0.00  0.00    +0.000 OA
ENDBRANCH   1  30
TORSDOF 8
ENDMDL
