MODEL 1
REMARK VINA RESULT:      -8.1      0.000      0.000
REMARK  Name = 
REMARK  8 active torsions:
REMARK  status: ('A' for Active; 'I' for Inactive)
REMARK    1  A    between atoms: C_1  and  O_2
REMARK    2  A    between atoms: O_2  and  C_3
REMARK    3  A    between atoms: C_6  and  C_7
REMARK    4  A    between atoms: N_9  and  C_10
REMARK    5  A    between atoms: C_13  and  N_14
REMARK    6  A    between atoms: C_20  and  C_21
REMARK    7  A    between atoms: C_23  and  C_24
REMARK    8  A    between atoms: N_26  and  C_27
REMARK                            x       y       z     vdW  Elec       q    Type
REMARK                         _______ _______ _______ _____ _____    ______ ____
ROOT
ATOM      1  C   UNL     1      -0.092  10.187  18.199  0.00  0.00    +0.000 A 
ATOM      2  N   UNL     1       0.385   8.934  18.072  0.00  0.00    +0.000 NA
ATOM      3  N   UNL     1       1.672   8.985  18.485  0.00  0.00    +0.000 N 
ATOM      4  C   UNL     1       2.032  10.254  18.852  0.00  0.00    +0.000 A 
ATOM      5  C   UNL     1       0.932  11.056  18.679  0.00  0.00    +0.000 A 
ENDROOT
BRANCH   1   9
ATOM      6  C   UNL     1      -4.094  11.230  17.058  0.00  0.00    +0.000 A 
ATOM      7  C   UNL     1      -3.609  11.558  18.325  0.00  0.00    +0.000 A 
ATOM      8  C   UNL     1      -2.309  11.206  18.703  0.00  0.00    +0.000 A 
ATOM      9  C   UNL     1      -1.481  10.491  17.828  0.00  0.00    +0.000 A 
ATOM     10  C   UNL     1      -2.014  10.090  16.596  0.00  0.00    +0.000 A 
ATOM     11  C   UNL     1      -3.297  10.484  16.197  0.00  0.00    +0.000 A 
BRANCH   6  13
ATOM     12  C   UNL     1      -5.951  12.521  17.749  0.00  0.00    +0.000 C 
ATOM     13  O   UNL     1      -5.369  11.645  16.790  0.00  0.00    +0.000 OA
ENDBRANCH   6  13
ENDBRANCH   1   9
BRANCH   3  14
ATOM     14  C   UNL     1       2.480   7.814  18.547  0.00  0.00    +0.000 A 
ATOM     15  C   UNL     1       3.416   7.560  17.532  0.00  0.00    +0.000 A 
ATOM     16  C   UNL     1       4.174   6.384  17.547  0.00  0.00    +0.000 A 
ATOM     17  C   UNL     1       3.995   5.461  18.588  0.00  0.00    +0.000 A 
ATOM     18  C   UNL     1       3.086   5.719  19.619  0.00  0.00    +0.000 A 
ATOM     19  C   UNL     1       2.333   6.894  19.601  0.00  0.00    +0.000 A 
BRANCH  17  20
ATOM     20  N   UNL     1       4.761   4.210  18.592  0.00  0.00    +0.000 N 
ATOM     21  O   UNL     1       5.782   4.159  19.292  0.00  0.00    +0.000 OA
ATOM     22  O   UNL     1       4.343   3.277  17.889  0.00  0.00    +0.000 OA
ENDBRANCH  17  20
ENDBRANCH   3  14
BRANCH   5  23
ATOM     23  C   UNL     1       0.923  12.507  19.029  0.00  0.00    +0.000 A 
ATOM     24  C   UNL     1       1.595  13.489  18.333  0.00  0.00    +0.000 A 
ATOM     25  C   UNL     1       1.224  14.700  18.939  0.00  0.00    +0.000 A 
ATOM     26  C   UNL     1       1.734  16.055  18.622  0.00  0.00    +0.000 C 
ATOM     27  N   UNL     1       0.306  14.516  19.892  0.00  0.00    +0.000 NA
ATOM     28  N   UNL     1       0.204  13.162  20.023  0.00  0.00    +0.000 N 
BRANCH  28  29
ATOM     29  C   UNL     1      -0.501  12.617  21.136  0.00  0.00    +0.000 A 
ATOM     30  C   UNL     1      -1.629  13.286  21.630  0.00  0.00    +0.000 A 
ATOM     31  C   UNL     1      -2.364  12.731  22.681  0.00  0.00    +0.000 A 
ATOM     32  C   UNL     1      -1.964  11.526  23.259  0.00  0.00    +0.000 A 
ATOM     33  C   UNL     1      -0.815  10.883  22.805  0.00  0.00    +0.000 A 
ATOM     34  C   UNL     1      -0.078  11.432  21.756  0.00  0.00    +0.000 A 
ENDBRANCH  28  29
ENDBRANCH   5  23
TORSDOF 6
ENDMDL
MODEL 2
REMARK VINA RESULT:      -8.1      0.274      1.284
REMARK  Name = 
REMARK  8 active torsions:
REMARK  status: ('A' for Active; 'I' for Inactive)
REMARK    1  A    between atoms: C_1  and  O_2
REMARK    2  A    between atoms: O_2  and  C_3
REMARK    3  A    between atoms: C_6  and  C_7
REMARK    4  A    between atoms: N_9  and  C_10
REMARK    5  A    between atoms: C_13  and  N_14
REMARK    6  A    between atoms: C_20  and  C_21
REMARK    7  A    between atoms: C_23  and  C_24
REMARK    8  A    between atoms: N_26  and  C_27
REMARK                            x       y       z     vdW  Elec       q    Type
REMARK                         _______ _______ _______ _____ _____    ______ ____
ROOT
ATOM      1  C   UNL     1      -0.087  10.115  18.172  0.00  0.00    +0.000 A 
ATOM      2  N   UNL     1       0.384   8.858  18.054  0.00  0.00    +0.000 NA
ATOM      3  N   UNL     1       1.667   8.903  18.481  0.00  0.00    +0.000 N 
ATOM      4  C   UNL     1       2.031  10.171  18.847  0.00  0.00    +0.000 A 
ATOM      5  C   UNL     1       0.937  10.979  18.659  0.00  0.00    +0.000 A 
ENDROOT
BRANCH   1   9
ATOM      6  C   UNL     1      -4.069  11.175  16.980  0.00  0.00    +0.000 A 
ATOM      7  C   UNL     1      -3.584  11.541  18.235  0.00  0.00    +0.000 A 
ATOM      8  C   UNL     1      -2.290  11.183  18.631  0.00  0.00    +0.000 A 
ATOM      9  C   UNL     1      -1.470  10.425  17.785  0.00  0.00    +0.000 A 
ATOM     10  C   UNL     1      -2.005   9.988  16.565  0.00  0.00    +0.000 A 
ATOM     11  C   UNL     1      -3.280  10.387  16.148  0.00  0.00    +0.000 A 
BRANCH   6  13
ATOM     12  C   UNL     1      -5.944  12.444  17.663  0.00  0.00    +0.000 C 
ATOM     13  O   UNL     1      -5.337  11.599  16.692  0.00  0.00    +0.000 OA
ENDBRANCH   6  13
ENDBRANCH   1   9
BRANCH   3  14
ATOM     14  C   UNL     1       2.467   7.728  18.555  0.00  0.00    +0.000 A 
ATOM     15  C   UNL     1       2.298   6.837  19.627  0.00  0.00    +0.000 A 
ATOM     16  C   UNL     1       3.117   5.709  19.746  0.00  0.00    +0.000 A 
ATOM     17  C   UNL     1       4.108   5.472  18.783  0.00  0.00    +0.000 A 
ATOM     18  C   UNL     1       4.266   6.338  17.695  0.00  0.00    +0.000 A 
ATOM     19  C   UNL     1       3.445   7.460  17.580  0.00  0.00    +0.000 A 
BRANCH  17  20
ATOM     20  N   UNL     1       4.995   4.311  18.920  0.00  0.00    +0.000 N 
ATOM     21  O   UNL     1       4.472   3.203  19.112  0.00  0.00    +0.000 OA
ATOM     22  O   UNL     1       6.216   4.507  18.841  0.00  0.00    +0.000 OA
ENDBRANCH  17  20
ENDBRANCH   3  14
BRANCH   5  23
ATOM     23  C   UNL     1       0.934  12.432  19.004  0.00  0.00    +0.000 A 
ATOM     24  C   UNL     1       1.635  13.403  18.324  0.00  0.00    +0.000 A 
ATOM     25  C   UNL     1       1.260  14.621  18.916  0.00  0.00    +0.000 A 
ATOM     26  C   UNL     1       1.792  15.969  18.609  0.00  0.00    +0.000 C 
ATOM     27  N   UNL     1       0.313  14.450  19.843  0.00  0.00    +0.000 NA
ATOM     28  N   UNL     1       0.193  13.097  19.975  0.00  0.00    +0.000 N 
BRANCH  28  29
ATOM     29  C   UNL     1      -0.549  12.563  21.069  0.00  0.00    +0.000 A 
ATOM     30  C   UNL     1      -0.102  11.393  21.697  0.00  0.00    +0.000 A 
ATOM     31  C   UNL     1      -0.785  10.893  22.809  0.00  0.00    +0.000 A 
ATOM     32  C   UNL     1      -1.927  11.540  23.281  0.00  0.00    +0.000 A 
ATOM     33  C   UNL     1      -2.404  12.675  22.631  0.00  0.00    +0.000 A 
ATOM     34  C   UNL     1      -1.725  13.179  21.521  0.00  0.00    +0.000 A 
ENDBRANCH  28  29
ENDBRANCH   5  23
TORSDOF 6
ENDMDL
MODEL 3
REMARK VINA RESULT:      -8.0      0.318      1.323
REMARK  Name = 
REMARK  8 active torsions:
REMARK  status: ('A' for Active; 'I' for Inactive)
REMARK    1  A    between atoms: C_1  and  O_2
REMARK    2  A    between atoms: O_2  and  C_3
REMARK    3  A    between atoms: C_6  and  C_7
REMARK    4  A    between atoms: N_9  and  C_10
REMARK    5  A    between atoms: C_13  and  N_14
REMARK    6  A    between atoms: C_20  and  C_21
REMARK    7  A    between atoms: C_23  and  C_24
REMARK    8  A    between atoms: N_26  and  C_27
REMARK                            x       y       z     vdW  Elec       q    Type
REMARK                         _______ _______ _______ _____ _____    ______ ____
ROOT
ATOM      1  C   UNL     1      -0.143  10.364  18.259  0.00  0.00    +0.000 A 
ATOM      2  N   UNL     1       0.307   9.104  18.107  0.00  0.00    +0.000 NA
ATOM      3  N   UNL     1       1.605   9.127  18.488  0.00  0.00    +0.000 N 
ATOM      4  C   UNL     1       1.998  10.385  18.857  0.00  0.00    +0.000 A 
ATOM      5  C   UNL     1       0.909  11.209  18.720  0.00  0.00    +0.000 A 
ENDROOT
BRANCH   1   9
ATOM      6  C   UNL     1      -4.256  11.181  17.350  0.00  0.00    +0.000 A 
ATOM      7  C   UNL     1      -3.444  10.518  16.429  0.00  0.00    +0.000 A 
ATOM      8  C   UNL     1      -2.099  10.264  16.719  0.00  0.00    +0.000 A 
ATOM      9  C   UNL     1      -1.535  10.697  17.926  0.00  0.00    +0.000 A 
ATOM     10  C   UNL     1      -2.339  11.441  18.800  0.00  0.00    +0.000 A 
ATOM     11  C   UNL     1      -3.697  11.653  18.534  0.00  0.00    +0.000 A 
BRANCH   6  13
ATOM     12  C   UNL     1      -6.506  11.434  18.029  0.00  0.00    +0.000 C 
ATOM     13  O   UNL     1      -5.558  11.354  16.971  0.00  0.00    +0.000 OA
ENDBRANCH   6  13
ENDBRANCH   1   9
BRANCH   3  14
ATOM     14  C   UNL     1       2.392   7.940  18.518  0.00  0.00    +0.000 A 
ATOM     15  C   UNL     1       2.254   7.040  19.586  0.00  0.00    +0.000 A 
ATOM     16  C   UNL     1       3.062   5.900  19.660  0.00  0.00    +0.000 A 
ATOM     17  C   UNL     1       4.011   5.661  18.655  0.00  0.00    +0.000 A 
ATOM     18  C   UNL     1       4.137   6.538  17.572  0.00  0.00    +0.000 A 
ATOM     19  C   UNL     1       3.327   7.672  17.502  0.00  0.00    +0.000 A 
BRANCH  17  20
ATOM     20  N   UNL     1       4.887   4.488  18.744  0.00  0.00    +0.000 N 
ATOM     21  O   UNL     1       4.477   3.423  18.261  0.00  0.00    +0.000 OA
ATOM     22  O   UNL     1       5.984   4.630  19.304  0.00  0.00    +0.000 OA
ENDBRANCH  17  20
ENDBRANCH   3  14
BRANCH   5  23
ATOM     23  C   UNL     1       0.936  12.656  19.084  0.00  0.00    +0.000 A 
ATOM     24  C   UNL     1       1.647  13.624  18.409  0.00  0.00    +0.000 A 
ATOM     25  C   UNL     1       1.302  14.840  19.021  0.00  0.00    +0.000 A 
ATOM     26  C   UNL     1       1.855  16.183  18.725  0.00  0.00    +0.000 C 
ATOM     27  N   UNL     1       0.363  14.674  19.957  0.00  0.00    +0.000 NA
ATOM     28  N   UNL     1       0.220  13.322  20.073  0.00  0.00    +0.000 N 
BRANCH  28  29
ATOM     29  C   UNL     1      -0.518  12.787  21.169  0.00  0.00    +0.000 A 
ATOM     30  C   UNL     1      -1.647  13.472  21.637  0.00  0.00    +0.000 A 
ATOM     31  C   UNL     1      -2.415  12.928  22.671  0.00  0.00    +0.000 A 
ATOM     32  C   UNL     1      -2.046  11.717  23.257  0.00  0.00    +0.000 A 
ATOM     33  C   UNL     1      -0.896  11.058  22.830  0.00  0.00    +0.000 A 
ATOM     34  C   UNL     1      -0.127  11.596  21.798  0.00  0.00    +0.000 A 
ENDBRANCH  28  29
ENDBRANCH   5  23
TORSDOF 6
ENDMDL
MODEL 4
REMARK VINA RESULT:      -8.0      1.291      1.597
REMARK  Name = 
REMARK  8 active torsions:
REMARK  status: ('A' for Active; 'I' for Inactive)
REMARK    1  A    between atoms: C_1  and  O_2
REMARK    2  A    between atoms: O_2  and  C_3
REMARK    3  A    between atoms: C_6  and  C_7
REMARK    4  A    between atoms: N_9  and  C_10
REMARK    5  A    between atoms: C_13  and  N_14
REMARK    6  A    between atoms: C_20  and  C_21
REMARK    7  A    between atoms: C_23  and  C_24
REMARK    8  A    between atoms: N_26  and  C_27
REMARK                            x       y       z     vdW  Elec       q    Type
REMARK                         _______ _______ _______ _____ _____    ______ ____
ROOT
ATOM      1  C   UNL     1      -1.265  11.143  18.489  0.00  0.00    +0.000 A 
ATOM      2  N   UNL     1      -0.713   9.920  18.370  0.00  0.00    +0.000 NA
ATOM      3  N   UNL     1       0.562  10.046  18.806  0.00  0.00    +0.000 N 
ATOM      4  C   UNL     1       0.841  11.333  19.178  0.00  0.00    +0.000 A 
ATOM      5  C   UNL     1      -0.302  12.070  18.986  0.00  0.00    +0.000 A 
ENDROOT
BRANCH   1   9
ATOM      6  C   UNL     1      -5.308  11.960  17.309  0.00  0.00    +0.000 A 
ATOM      7  C   UNL     1      -4.914  12.105  18.639  0.00  0.00    +0.000 A 
ATOM      8  C   UNL     1      -3.599  11.825  19.028  0.00  0.00    +0.000 A 
ATOM      9  C   UNL     1      -2.663  11.365  18.094  0.00  0.00    +0.000 A 
ATOM     10  C   UNL     1      -3.097  11.137  16.781  0.00  0.00    +0.000 A 
ATOM     11  C   UNL     1      -4.398  11.464  16.380  0.00  0.00    +0.000 A 
BRANCH   6  13
ATOM     12  C   UNL     1      -7.036  13.562  17.500  0.00  0.00    +0.000 C 
ATOM     13  O   UNL     1      -6.609  12.285  17.041  0.00  0.00    +0.000 OA
ENDBRANCH   6  13
ENDBRANCH   1   9
BRANCH   3  14
ATOM     14  C   UNL     1       1.436   8.924  18.882  0.00  0.00    +0.000 A 
ATOM     15  C   UNL     1       2.247   8.598  17.784  0.00  0.00    +0.000 A 
ATOM     16  C   UNL     1       3.067   7.464  17.820  0.00  0.00    +0.000 A 
ATOM     17  C   UNL     1       3.074   6.656  18.966  0.00  0.00    +0.000 A 
ATOM     18  C   UNL     1       2.290   6.988  20.077  0.00  0.00    +0.000 A 
ATOM     19  C   UNL     1       1.476   8.121  20.035  0.00  0.00    +0.000 A 
BRANCH  17  20
ATOM     20  N   UNL     1       3.903   5.446  18.999  0.00  0.00    +0.000 N 
ATOM     21  O   UNL     1       5.112   5.580  19.235  0.00  0.00    +0.000 OA
ATOM     22  O   UNL     1       3.345   4.360  18.783  0.00  0.00    +0.000 OA
ENDBRANCH  17  20
ENDBRANCH   3  14
BRANCH   5  23
ATOM     23  C   UNL     1      -0.401  13.517  19.336  0.00  0.00    +0.000 A 
ATOM     24  C   UNL     1       0.209  14.539  18.641  0.00  0.00    +0.000 A 
ATOM     25  C   UNL     1      -0.237  15.725  19.246  0.00  0.00    +0.000 A 
ATOM     26  C   UNL     1       0.188  17.109  18.929  0.00  0.00    +0.000 C 
ATOM     27  N   UNL     1      -1.144  15.484  20.198  0.00  0.00    +0.000 NA
ATOM     28  N   UNL     1      -1.162  14.126  20.329  0.00  0.00    +0.000 N 
BRANCH  28  29
ATOM     29  C   UNL     1      -1.833  13.538  21.441  0.00  0.00    +0.000 A 
ATOM     30  C   UNL     1      -3.065  14.061  21.855  0.00  0.00    +0.000 A 
ATOM     31  C   UNL     1      -3.763  13.457  22.904  0.00  0.00    +0.000 A 
ATOM     32  C   UNL     1      -3.224  12.350  23.560  0.00  0.00    +0.000 A 
ATOM     33  C   UNL     1      -1.977  11.856  23.185  0.00  0.00    +0.000 A 
ATOM     34  C   UNL     1      -1.276  12.456  22.137  0.00  0.00    +0.000 A 
ENDBRANCH  28  29
ENDBRANCH   5  23
TORSDOF 6
ENDMDL
MODEL 5
REMARK VINA RESULT:      -7.9      2.426      4.585
REMARK  Name = 
REMARK  8 active torsions:
REMARK  status: ('A' for Active; 'I' for Inactive)
REMARK    1  A    between atoms: C_1  and  O_2
REMARK    2  A    between atoms: O_2  and  C_3
REMARK    3  A    between atoms: C_6  and  C_7
REMARK    4  A    between atoms: N_9  and  C_10
REMARK    5  A    between atoms: C_13  and  N_14
REMARK    6  A    between atoms: C_20  and  C_21
REMARK    7  A    between atoms: C_23  and  C_24
REMARK    8  A    between atoms: N_26  and  C_27
REMARK                            x       y       z     vdW  Elec       q    Type
REMARK                         _______ _______ _______ _____ _____    ______ ____
ROOT
ATOM      1  C   UNL     1       0.033  12.166  19.445  0.00  0.00    +0.000 A 
ATOM      2  N   UNL     1       1.103  11.348  19.432  0.00  0.00    +0.000 NA
ATOM      3  N   UNL     1       0.617  10.108  19.192  0.00  0.00    +0.000 N 
ATOM      4  C   UNL     1      -0.746  10.116  19.075  0.00  0.00    +0.000 A 
ATOM      5  C   UNL     1      -1.162  11.415  19.236  0.00  0.00    +0.000 A 
ENDROOT
BRANCH   1   9
ATOM      6  C   UNL     1       0.698  16.354  20.093  0.00  0.00    +0.000 A 
ATOM      7  C   UNL     1       1.003  15.425  21.088  0.00  0.00    +0.000 A 
ATOM      8  C   UNL     1       0.773  14.060  20.883  0.00  0.00    +0.000 A 
ATOM      9  C   UNL     1       0.205  13.605  19.687  0.00  0.00    +0.000 A 
ATOM     10  C   UNL     1      -0.180  14.558  18.734  0.00  0.00    +0.000 A 
ATOM     11  C   UNL     1       0.095  15.919  18.918  0.00  0.00    +0.000 A 
BRANCH   6  13
ATOM     12  C   UNL     1       1.069  18.546  19.287  0.00  0.00    +0.000 C 
ATOM     13  O   UNL     1       0.987  17.656  20.395  0.00  0.00    +0.000 OA
ENDBRANCH   6  13
ENDBRANCH   1   9
BRANCH   3  14
ATOM     14  C   UNL     1       1.483   8.987  19.046  0.00  0.00    +0.000 A 
ATOM     15  C   UNL     1       2.228   8.831  17.867  0.00  0.00    +0.000 A 
ATOM     16  C   UNL     1       3.037   7.703  17.685  0.00  0.00    +0.000 A 
ATOM     17  C   UNL     1       3.101   6.730  18.692  0.00  0.00    +0.000 A 
ATOM     18  C   UNL     1       2.384   6.891  19.883  0.00  0.00    +0.000 A 
ATOM     19  C   UNL     1       1.581   8.018  20.061  0.00  0.00    +0.000 A 
BRANCH  17  20
ATOM     20  N   UNL     1       3.918   5.528  18.494  0.00  0.00    +0.000 N 
ATOM     21  O   UNL     1       4.993   5.453  19.106  0.00  0.00    +0.000 OA
ATOM     22  O   UNL     1       3.487   4.660  17.720  0.00  0.00    +0.000 OA
ENDBRANCH  17  20
ENDBRANCH   3  14
BRANCH   5  23
ATOM     23  C   UNL     1      -2.591  11.829  19.120  0.00  0.00    +0.000 A 
ATOM     24  C   UNL     1      -3.436  11.460  18.096  0.00  0.00    +0.000 A 
ATOM     25  C   UNL     1      -4.695  11.979  18.442  0.00  0.00    +0.000 A 
ATOM     26  C   UNL     1      -5.936  11.934  17.635  0.00  0.00    +0.000 C 
ATOM     27  N   UNL     1      -4.678  12.556  19.647  0.00  0.00    +0.000 NA
ATOM     28  N   UNL     1      -3.363  12.563  20.014  0.00  0.00    +0.000 N 
BRANCH  28  29
ATOM     29  C   UNL     1      -2.953  13.340  21.136  0.00  0.00    +0.000 A 
ATOM     30  C   UNL     1      -2.483  12.691  22.286  0.00  0.00    +0.000 A 
ATOM     31  C   UNL     1      -2.020  13.442  23.370  0.00  0.00    +0.000 A 
ATOM     32  C   UNL     1      -2.050  14.836  23.323  0.00  0.00    +0.000 A 
ATOM     33  C   UNL     1      -2.562  15.485  22.203  0.00  0.00    +0.000 A 
ATOM     34  C   UNL     1      -3.025  14.740  21.117  0.00  0.00    +0.000 A 
ENDBRANCH  28  29
ENDBRANCH   5  23
TORSDOF 6
ENDMDL
MODEL 6
REMARK VINA RESULT:      -7.9      2.104      4.377
REMARK  Name = 
REMARK  8 active torsions:
REMARK  status: ('A' for Active; 'I' for Inactive)
REMARK    1  A    between atoms: C_1  and  O_2
REMARK    2  A    between atoms: O_2  and  C_3
REMARK    3  A    between atoms: C_6  and  C_7
REMARK    4  A    between atoms: N_9  and  C_10
REMARK    5  A    between atoms: C_13  and  N_14
REMARK    6  A    between atoms: C_20  and  C_21
REMARK    7  A    between atoms: C_23  and  C_24
REMARK    8  A    between atoms: N_26  and  C_27
REMARK                            x       y       z     vdW  Elec       q    Type
REMARK                         _______ _______ _______ _____ _____    ______ ____
ROOT
ATOM      1  C   UNL     1       1.120  11.204  19.055  0.00  0.00    +0.000 A 
ATOM      2  N   UNL     1       2.135  10.318  19.075  0.00  0.00    +0.000 NA
ATOM      3  N   UNL     1       1.595   9.130  18.716  0.00  0.00    +0.000 N 
ATOM      4  C   UNL     1       0.249   9.237  18.491  0.00  0.00    +0.000 A 
ATOM      5  C   UNL     1      -0.097  10.549  18.702  0.00  0.00    +0.000 A 
ENDROOT
BRANCH   1   9
ATOM      6  C   UNL     1       1.653  15.325  20.120  0.00  0.00    +0.000 A 
ATOM      7  C   UNL     1       1.225  14.973  18.840  0.00  0.00    +0.000 A 
ATOM      8  C   UNL     1       1.065  13.629  18.487  0.00  0.00    +0.000 A 
ATOM      9  C   UNL     1       1.360  12.611  19.403  0.00  0.00    +0.000 A 
ATOM     10  C   UNL     1       1.875  12.978  20.654  0.00  0.00    +0.000 A 
ATOM     11  C   UNL     1       1.989  14.323  21.025  0.00  0.00    +0.000 A 
BRANCH   6  13
ATOM     12  C   UNL     1       2.934  17.298  19.883  0.00  0.00    +0.000 C 
ATOM     13  O   UNL     1       1.751  16.668  20.361  0.00  0.00    +0.000 OA
ENDBRANCH   6  13
ENDBRANCH   1   9
BRANCH   3  14
ATOM     14  C   UNL     1       2.398   7.964  18.568  0.00  0.00    +0.000 A 
ATOM     15  C   UNL     1       2.349   6.956  19.544  0.00  0.00    +0.000 A 
ATOM     16  C   UNL     1       3.176   5.831  19.444  0.00  0.00    +0.000 A 
ATOM     17  C   UNL     1       4.054   5.717  18.357  0.00  0.00    +0.000 A 
ATOM     18  C   UNL     1       4.091   6.703  17.364  0.00  0.00    +0.000 A 
ATOM     19  C   UNL     1       3.263   7.821  17.468  0.00  0.00    +0.000 A 
BRANCH  17  20
ATOM     20  N   UNL     1       4.950   4.559  18.263  0.00  0.00    +0.000 N 
ATOM     21  O   UNL     1       5.399   4.089  19.319  0.00  0.00    +0.000 OA
ATOM     22  O   UNL     1       5.211   4.123  17.132  0.00  0.00    +0.000 OA
ENDBRANCH  17  20
ENDBRANCH   3  14
BRANCH   5  23
ATOM     23  C   UNL     1      -1.482  11.065  18.498  0.00  0.00    +0.000 A 
ATOM     24  C   UNL     1      -2.262  10.809  17.391  0.00  0.00    +0.000 A 
ATOM     25  C   UNL     1      -3.509  11.393  17.667  0.00  0.00    +0.000 A 
ATOM     26  C   UNL     1      -4.681  11.475  16.763  0.00  0.00    +0.000 C 
ATOM     27  N   UNL     1      -3.556  11.902  18.901  0.00  0.00    +0.000 NA
ATOM     28  N   UNL     1      -2.278  11.800  19.370  0.00  0.00    +0.000 N 
BRANCH  28  29
ATOM     29  C   UNL     1      -1.914  12.486  20.565  0.00  0.00    +0.000 A 
ATOM     30  C   UNL     1      -1.946  13.886  20.591  0.00  0.00    +0.000 A 
ATOM     31  C   UNL     1      -1.651  14.570  21.774  0.00  0.00    +0.000 A 
ATOM     32  C   UNL     1      -1.296  13.863  22.923  0.00  0.00    +0.000 A 
ATOM     33  C   UNL     1      -1.213  12.474  22.889  0.00  0.00    +0.000 A 
ATOM     34  C   UNL     1      -1.508  11.786  21.711  0.00  0.00    +0.000 A 
ENDBRANCH  28  29
ENDBRANCH   5  23
TORSDOF 6
ENDMDL
MODEL 7
REMARK VINA RESULT:      -7.9      0.977      1.676
REMARK  Name = 
REMARK  8 active torsions:
REMARK  status: ('A' for Active; 'I' for Inactive)
REMARK    1  A    between atoms: C_1  and  O_2
REMARK    2  A    between atoms: O_2  and  C_3
REMARK    3  A    between atoms: C_6  and  C_7
REMARK    4  A    between atoms: N_9  and  C_10
REMARK    5  A    between atoms: C_13  and  N_14
REMARK    6  A    between atoms: C_20  and  C_21
REMARK    7  A    between atoms: C_23  and  C_24
REMARK    8  A    between atoms: N_26  and  C_27
REMARK                            x       y       z     vdW  Elec       q    Type
REMARK                         _______ _______ _______ _____ _____    ______ ____
ROOT
ATOM      1  C   UNL     1      -0.764  11.001  18.432  0.00  0.00    +0.000 A 
ATOM      2  N   UNL     1      -0.265   9.762  18.260  0.00  0.00    +0.000 NA
ATOM      3  N   UNL     1       1.015   9.815  18.696  0.00  0.00    +0.000 N 
ATOM      4  C   UNL     1       1.349  11.073  19.121  0.00  0.00    +0.000 A 
ATOM      5  C   UNL     1       0.239  11.864  18.964  0.00  0.00    +0.000 A 
ENDROOT
BRANCH   1   9
ATOM      6  C   UNL     1      -4.852  11.700  17.337  0.00  0.00    +0.000 A 
ATOM      7  C   UNL     1      -3.908  11.355  16.370  0.00  0.00    +0.000 A 
ATOM      8  C   UNL     1      -2.572  11.141  16.724  0.00  0.00    +0.000 A 
ATOM      9  C   UNL     1      -2.151  11.298  18.050  0.00  0.00    +0.000 A 
ATOM     10  C   UNL     1      -3.092  11.733  18.994  0.00  0.00    +0.000 A 
ATOM     11  C   UNL     1      -4.439  11.900  18.651  0.00  0.00    +0.000 A 
BRANCH   6  13
ATOM     12  C   UNL     1      -7.082  12.302  17.844  0.00  0.00    +0.000 C 
ATOM     13  O   UNL     1      -6.132  11.861  16.881  0.00  0.00    +0.000 OA
ENDBRANCH   6  13
ENDBRANCH   1   9
BRANCH   3  14
ATOM     14  C   UNL     1       1.841   8.655  18.722  0.00  0.00    +0.000 A 
ATOM     15  C   UNL     1       2.683   8.376  17.635  0.00  0.00    +0.000 A 
ATOM     16  C   UNL     1       3.455   7.209  17.619  0.00  0.00    +0.000 A 
ATOM     17  C   UNL     1       3.384   6.320  18.701  0.00  0.00    +0.000 A 
ATOM     18  C   UNL     1       2.569   6.604  19.803  0.00  0.00    +0.000 A 
ATOM     19  C   UNL     1       1.803   7.770  19.814  0.00  0.00    +0.000 A 
BRANCH  17  20
ATOM     20  N   UNL     1       4.163   5.077  18.676  0.00  0.00    +0.000 N 
ATOM     21  O   UNL     1       3.778   4.169  17.926  0.00  0.00    +0.000 OA
ATOM     22  O   UNL     1       5.158   5.006  19.413  0.00  0.00    +0.000 OA
ENDBRANCH  17  20
ENDBRANCH   3  14
BRANCH   5  23
ATOM     23  C   UNL     1       0.201  13.299  19.374  0.00  0.00    +0.000 A 
ATOM     24  C   UNL     1       0.918  14.309  18.770  0.00  0.00    +0.000 A 
ATOM     25  C   UNL     1       0.502  15.494  19.400  0.00  0.00    +0.000 A 
ATOM     26  C   UNL     1       1.029  16.861  19.178  0.00  0.00    +0.000 C 
ATOM     27  N   UNL     1      -0.481  15.269  20.276  0.00  0.00    +0.000 NA
ATOM     28  N   UNL     1      -0.589  13.911  20.342  0.00  0.00    +0.000 N 
BRANCH  28  29
ATOM     29  C   UNL     1      -1.369  13.319  21.377  0.00  0.00    +0.000 A 
ATOM     30  C   UNL     1      -0.882  12.186  22.043  0.00  0.00    +0.000 A 
ATOM     31  C   UNL     1      -1.608  11.632  23.101  0.00  0.00    +0.000 A 
ATOM     32  C   UNL     1      -2.831  12.187  23.480  0.00  0.00    +0.000 A 
ATOM     33  C   UNL     1      -3.344  13.281  22.789  0.00  0.00    +0.000 A 
ATOM     34  C   UNL     1      -2.622  13.839  21.732  0.00  0.00    +0.000 A 
ENDBRANCH  28  29
ENDBRANCH   5  23
TORSDOF 6
ENDMDL
MODEL 8
REMARK VINA RESULT:      -7.8      2.158      4.388
REMARK  Name = 
REMARK  8 active torsions:
REMARK  status: ('A' for Active; 'I' for Inactive)
REMARK    1  A    between atoms: C_1  and  O_2
REMARK    2  A    between atoms: O_2  and  C_3
REMARK    3  A    between atoms: C_6  and  C_7
REMARK    4  A    between atoms: N_9  and  C_10
REMARK    5  A    between atoms: C_13  and  N_14
REMARK    6  A    between atoms: C_20  and  C_21
REMARK    7  A    between atoms: C_23  and  C_24
REMARK    8  A    between atoms: N_26  and  C_27
REMARK                            x       y       z     vdW  Elec       q    Type
REMARK                         _______ _______ _______ _____ _____    ______ ____
ROOT
ATOM      1  C   UNL     1       1.104  11.235  19.061  0.00  0.00    +0.000 A 
ATOM      2  N   UNL     1       2.117  10.349  19.087  0.00  0.00    +0.000 NA
ATOM      3  N   UNL     1       1.574   9.156  18.750  0.00  0.00    +0.000 N 
ATOM      4  C   UNL     1       0.227   9.262  18.533  0.00  0.00    +0.000 A 
ATOM      5  C   UNL     1      -0.116  10.576  18.727  0.00  0.00    +0.000 A 
ENDROOT
BRANCH   1   9
ATOM      6  C   UNL     1       1.981  15.337  19.963  0.00  0.00    +0.000 A 
ATOM      7  C   UNL     1       2.166  14.344  20.925  0.00  0.00    +0.000 A 
ATOM      8  C   UNL     1       1.867  13.008  20.637  0.00  0.00    +0.000 A 
ATOM      9  C   UNL     1       1.347  12.648  19.387  0.00  0.00    +0.000 A 
ATOM     10  C   UNL     1       1.081  13.668  18.464  0.00  0.00    +0.000 A 
ATOM     11  C   UNL     1       1.427  14.998  18.733  0.00  0.00    +0.000 A 
BRANCH   6  13
ATOM     12  C   UNL     1       1.743  17.661  19.600  0.00  0.00    +0.000 C 
ATOM     13  O   UNL     1       2.330  16.602  20.348  0.00  0.00    +0.000 OA
ENDBRANCH   6  13
ENDBRANCH   1   9
BRANCH   3  14
ATOM     14  C   UNL     1       2.375   7.987  18.614  0.00  0.00    +0.000 A 
ATOM     15  C   UNL     1       2.325   6.990  19.601  0.00  0.00    +0.000 A 
ATOM     16  C   UNL     1       3.150   5.863  19.512  0.00  0.00    +0.000 A 
ATOM     17  C   UNL     1       4.027   5.735  18.425  0.00  0.00    +0.000 A 
ATOM     18  C   UNL     1       4.064   6.710  17.421  0.00  0.00    +0.000 A 
ATOM     19  C   UNL     1       3.237   7.830  17.514  0.00  0.00    +0.000 A 
BRANCH  17  20
ATOM     20  N   UNL     1       4.921   4.575  18.343  0.00  0.00    +0.000 N 
ATOM     21  O   UNL     1       5.157   3.952  19.388  0.00  0.00    +0.000 OA
ATOM     22  O   UNL     1       5.393   4.290  17.232  0.00  0.00    +0.000 OA
ENDBRANCH  17  20
ENDBRANCH   3  14
BRANCH   5  23
ATOM     23  C   UNL     1      -1.503  11.091  18.525  0.00  0.00    +0.000 A 
ATOM     24  C   UNL     1      -2.292  10.815  17.430  0.00  0.00    +0.000 A 
ATOM     25  C   UNL     1      -3.537  11.407  17.705  0.00  0.00    +0.000 A 
ATOM     26  C   UNL     1      -4.715  11.474  16.810  0.00  0.00    +0.000 C 
ATOM     27  N   UNL     1      -3.571  11.939  18.930  0.00  0.00    +0.000 NA
ATOM     28  N   UNL     1      -2.290  11.843  19.390  0.00  0.00    +0.000 N 
BRANCH  28  29
ATOM     29  C   UNL     1      -1.914  12.551  20.569  0.00  0.00    +0.000 A 
ATOM     30  C   UNL     1      -1.555  11.832  21.717  0.00  0.00    +0.000 A 
ATOM     31  C   UNL     1      -1.125  12.513  22.860  0.00  0.00    +0.000 A 
ATOM     32  C   UNL     1      -1.079  13.907  22.872  0.00  0.00    +0.000 A 
ATOM     33  C   UNL     1      -1.483  14.627  21.751  0.00  0.00    +0.000 A 
ATOM     34  C   UNL     1      -1.911  13.953  20.606  0.00  0.00    +0.000 A 
ENDBRANCH  28  29
ENDBRANCH   5  23
TORSDOF 6
ENDMDL
MODEL 9
REMARK VINA RESULT:      -7.8      2.373      4.633
REMARK  Name = 
REMARK  8 active torsions:
REMARK  status: ('A' for Active; 'I' for Inactive)
REMARK    1  A    between atoms: C_1  and  O_2
REMARK    2  A    between atoms: O_2  and  C_3
REMARK    3  A    between atoms: C_6  and  C_7
REMARK    4  A    between atoms: N_9  and  C_10
REMARK    5  A    between atoms: C_13  and  N_14
REMARK    6  A    between atoms: C_20  and  C_21
REMARK    7  A    between atoms: C_23  and  C_24
REMARK    8  A    between atoms: N_26  and  C_27
REMARK                            x       y       z     vdW  Elec       q    Type
REMARK                         _______ _______ _______ _____ _____    ______ ____
ROOT
ATOM      1  C   UNL     1       0.109  12.102  19.421  0.00  0.00    +0.000 A 
ATOM      2  N   UNL     1       1.156  11.255  19.378  0.00  0.00    +0.000 NA
ATOM      3  N   UNL     1       0.629  10.026  19.173  0.00  0.00    +0.000 N 
ATOM      4  C   UNL     1      -0.738  10.070  19.109  0.00  0.00    +0.000 A 
ATOM      5  C   UNL     1      -1.112  11.381  19.268  0.00  0.00    +0.000 A 
ENDROOT
BRANCH   1   9
ATOM      6  C   UNL     1       0.592  16.306  20.125  0.00  0.00    +0.000 A 
ATOM      7  C   UNL     1      -0.002  15.847  18.950  0.00  0.00    +0.000 A 
ATOM      8  C   UNL     1      -0.147  14.476  18.713  0.00  0.00    +0.000 A 
ATOM      9  C   UNL     1       0.329  13.539  19.638  0.00  0.00    +0.000 A 
ATOM     10  C   UNL     1       1.004  14.013  20.770  0.00  0.00    +0.000 A 
ATOM     11  C   UNL     1       1.106  15.385  21.032  0.00  0.00    +0.000 A 
BRANCH   6  13
ATOM     12  C   UNL     1       0.896  18.396  19.063  0.00  0.00    +0.000 C 
ATOM     13  O   UNL     1       0.658  17.665  20.260  0.00  0.00    +0.000 OA
ENDBRANCH   6  13
ENDBRANCH   1   9
BRANCH   3  14
ATOM     14  C   UNL     1       1.457   8.879  19.010  0.00  0.00    +0.000 A 
ATOM     15  C   UNL     1       1.537   7.926  20.037  0.00  0.00    +0.000 A 
ATOM     16  C   UNL     1       2.393   6.825  19.916  0.00  0.00    +0.000 A 
ATOM     17  C   UNL     1       3.169   6.679  18.757  0.00  0.00    +0.000 A 
ATOM     18  C   UNL     1       3.075   7.609  17.716  0.00  0.00    +0.000 A 
ATOM     19  C   UNL     1       2.219   8.704  17.840  0.00  0.00    +0.000 A 
BRANCH  17  20
ATOM     20  N   UNL     1       4.095   5.548  18.638  0.00  0.00    +0.000 N 
ATOM     21  O   UNL     1       5.120   5.563  19.335  0.00  0.00    +0.000 OA
ATOM     22  O   UNL     1       3.800   4.644  17.841  0.00  0.00    +0.000 OA
ENDBRANCH  17  20
ENDBRANCH   3  14
BRANCH   5  23
ATOM     23  C   UNL     1      -2.533  11.833  19.201  0.00  0.00    +0.000 A 
ATOM     24  C   UNL     1      -3.423  11.483  18.209  0.00  0.00    +0.000 A 
ATOM     25  C   UNL     1      -4.655  12.037  18.598  0.00  0.00    +0.000 A 
ATOM     26  C   UNL     1      -5.925  12.023  17.835  0.00  0.00    +0.000 C 
ATOM     27  N   UNL     1      -4.580  12.616  19.799  0.00  0.00    +0.000 NA
ATOM     28  N   UNL     1      -3.254  12.588  20.120  0.00  0.00    +0.000 N 
BRANCH  28  29
ATOM     29  C   UNL     1      -2.784  13.357  21.224  0.00  0.00    +0.000 A 
ATOM     30  C   UNL     1      -2.232  12.701  22.333  0.00  0.00    +0.000 A 
ATOM     31  C   UNL     1      -1.712  13.444  23.396  0.00  0.00    +0.000 A 
ATOM     32  C   UNL     1      -1.764  14.838  23.370  0.00  0.00    +0.000 A 
ATOM     33  C   UNL     1      -2.356  15.494  22.294  0.00  0.00    +0.000 A 
ATOM     34  C   UNL     1      -2.876  14.756  21.229  0.00  0.00    +0.000 A 
ENDBRANCH  28  29
ENDBRANCH   5  23
TORSDOF 6
ENDMDL
