MODEL 1
REMARK VINA RESULT:      -7.2      0.000      0.000
REMARK  Name = 
REMARK  19 active torsions:
REMARK  status: ('A' for Active; 'I' for Inactive)
REMARK    1  A    between atoms: C_1  and  C_2
REMARK    2  A    between atoms: C_2  and  C_3
REMARK    3  A    between atoms: C_2  and  C_4
REMARK    4  A    between atoms: C_4  and  N_5
REMARK    5  A    between atoms: C_4  and  C_17
REMARK    6  A    between atoms: C_6  and  C_8
REMARK    7  A    between atoms: C_8  and  N_9
REMARK    8  A    between atoms: C_8  and  C_10
REMARK    9  A    between atoms: C_10  and  C_11
REMARK   10  A    between atoms: N_19  and  C_20
REMARK   11  A    between atoms: N_19  and  C_21
REMARK   12  A    between atoms: C_21  and  C_22
REMARK   13  A    between atoms: C_21  and  C_34
REMARK   14  A    between atoms: C_22  and  C_23
REMARK   15  A    between atoms: C_26  and  O_27
REMARK   16  A    between atoms: C_28  and  C_29
REMARK   17  A    between atoms: C_29  and  C_30
REMARK   18  A    between atoms: C_29  and  C_31
REMARK   19  A    between atoms: C_29  and  C_32
REMARK                            x       y       z     vdW  Elec       q    Type
REMARK                         _______ _______ _______ _____ _____    ______ ____
ROOT
ATOM      1  C   UNL     1      -0.974  12.056  18.868  0.00  0.00    +0.000 C 
ATOM      2  O   UNL     1      -0.641  12.825  17.956  0.00  0.00    +0.000 OA
ATOM      3  N   UNL     1      -0.039  11.399  19.668  0.00  0.00    +0.000 N 
ATOM      4  C   UNL     1      -0.453  10.714  20.890  0.00  0.00    +0.000 C 
ENDROOT
BRANCH   1   5
ATOM      5  C   UNL     1      -2.478  11.692  18.978  0.00  0.00    +0.000 C 
BRANCH   5   6
ATOM      6  N   UNL     1      -3.185  12.922  19.361  0.00  0.00    +0.000 N 
ATOM      7  C   UNL     1      -3.585  13.175  20.655  0.00  0.00    +0.000 C 
ATOM      8  O   UNL     1      -3.334  12.412  21.588  0.00  0.00    +0.000 OA
ATOM      9  H   UNL     1      -3.067  13.714  18.742  0.00  0.00    +0.000 HD
BRANCH   7  10
ATOM     10  C   UNL     1      -4.344  14.514  20.881  0.00  0.00    +0.000 C 
BRANCH  10  11
ATOM     11  N   UNL     1      -5.473  14.635  19.935  0.00  0.00    +0.000 NA
ATOM     12  H   UNL     1      -5.694  15.615  19.769  0.00  0.00    +0.000 HD
ATOM     13  H   UNL     1      -6.302  14.238  20.383  0.00  0.00    +0.000 HD
ENDBRANCH  10  11
BRANCH  10  14
ATOM     14  C   UNL     1      -4.807  14.705  22.341  0.00  0.00    +0.000 C 
BRANCH  14  15
ATOM     15  C   UNL     1      -3.741  15.255  23.268  0.00  0.00    +0.000 A 
ATOM     16  C   UNL     1      -3.654  14.858  24.612  0.00  0.00    +0.000 A 
ATOM     17  C   UNL     1      -2.744  15.463  25.475  0.00  0.00    +0.000 A 
ATOM     18  C   UNL     1      -1.886  16.451  25.004  0.00  0.00    +0.000 A 
ATOM     19  C   UNL     1      -1.911  16.808  23.658  0.00  0.00    +0.000 A 
ATOM     20  C   UNL     1      -2.823  16.200  22.791  0.00  0.00    +0.000 A 
ENDBRANCH  14  15
ENDBRANCH  10  14
ENDBRANCH   7  10
ENDBRANCH   5   6
BRANCH   5  22
ATOM     21  C   UNL     1      -4.445  11.200  17.403  0.00  0.00    +0.000 C 
ATOM     22  C   UNL     1      -2.927  11.225  17.561  0.00  0.00    +0.000 C 
ATOM     23  C   UNL     1      -2.393   9.835  17.195  0.00  0.00    +0.000 C 
ENDBRANCH   5  22
ENDBRANCH   1   5
BRANCH   3  24
ATOM     24  C   UNL     1       1.333  11.122  19.111  0.00  0.00    +0.000 C 
BRANCH  24  25
ATOM     25  C   UNL     1       2.214  12.332  18.653  0.00  0.00    +0.000 C 
ATOM     26  N   UNL     1       2.519  12.396  17.316  0.00  0.00    +0.000 N 
ATOM     27  O   UNL     1       2.692  13.209  19.372  0.00  0.00    +0.000 OA
ATOM     28  H   UNL     1       2.298  11.674  16.649  0.00  0.00    +0.000 HD
ATOM     29  H   UNL     1       3.098  13.172  17.016  0.00  0.00    +0.000 HD
ENDBRANCH  24  25
BRANCH  24  30
ATOM     30  C   UNL     1       1.419  10.010  18.022  0.00  0.00    +0.000 C 
BRANCH  30  31
ATOM     31  C   UNL     1       1.843   8.669  18.561  0.00  0.00    +0.000 A 
ATOM     32  C   UNL     1       1.479   8.280  19.847  0.00  0.00    +0.000 A 
ATOM     33  C   UNL     1       1.972   7.094  20.373  0.00  0.00    +0.000 A 
ATOM     34  C   UNL     1       2.871   6.312  19.636  0.00  0.00    +0.000 A 
ATOM     35  C   UNL     1       3.286   6.681  18.347  0.00  0.00    +0.000 A 
ATOM     36  C   UNL     1       2.683   7.837  17.807  0.00  0.00    +0.000 A 
BRANCH  35  37
ATOM     37  C   UNL     1       4.394   5.986  17.526  0.00  0.00    +0.000 C 
ATOM     38  C   UNL     1       4.816   6.723  16.238  0.00  0.00    +0.000 C 
ATOM     39  C   UNL     1       5.660   5.782  18.385  0.00  0.00    +0.000 C 
ATOM     40  C   UNL     1       3.891   4.594  17.058  0.00  0.00    +0.000 C 
ENDBRANCH  35  37
BRANCH  34  41
ATOM     41  O   UNL     1       3.334   5.170  20.223  0.00  0.00    +0.000 OA
ATOM     42  H   UNL     1       3.859   5.406  21.003  0.00  0.00    +0.000 HD
ENDBRANCH  34  41
ENDBRANCH  30  31
ENDBRANCH  24  30
ENDBRANCH   3  24
TORSDOF 13
ENDMDL
MODEL 2
REMARK VINA RESULT:      -7.1      1.233      1.642
REMARK  Name = 
REMARK  19 active torsions:
REMARK  status: ('A' for Active; 'I' for Inactive)
REMARK    1  A    between atoms: C_1  and  C_2
REMARK    2  A    between atoms: C_2  and  C_3
REMARK    3  A    between atoms: C_2  and  C_4
REMARK    4  A    between atoms: C_4  and  N_5
REMARK    5  A    between atoms: C_4  and  C_17
REMARK    6  A    between atoms: C_6  and  C_8
REMARK    7  A    between atoms: C_8  and  N_9
REMARK    8  A    between atoms: C_8  and  C_10
REMARK    9  A    between atoms: C_10  and  C_11
REMARK   10  A    between atoms: N_19  and  C_20
REMARK   11  A    between atoms: N_19  and  C_21
REMARK   12  A    between atoms: C_21  and  C_22
REMARK   13  A    between atoms: C_21  and  C_34
REMARK   14  A    between atoms: C_22  and  C_23
REMARK   15  A    between atoms: C_26  and  O_27
REMARK   16  A    between atoms: C_28  and  C_29
REMARK   17  A    between atoms: C_29  and  C_30
REMARK   18  A    between atoms: C_29  and  C_31
REMARK   19  A    between atoms: C_29  and  C_32
REMARK                            x       y       z     vdW  Elec       q    Type
REMARK                         _______ _______ _______ _____ _____    ______ ____
ROOT
ATOM      1  C   UNL     1      -1.135  12.243  19.038  0.00  0.00    +0.000 C 
ATOM      2  O   UNL     1      -0.827  12.887  18.026  0.00  0.00    +0.000 OA
ATOM      3  N   UNL     1      -0.179  11.693  19.893  0.00  0.00    +0.000 N 
ATOM      4  C   UNL     1      -0.561  11.172  21.203  0.00  0.00    +0.000 C 
ENDROOT
BRANCH   1   5
ATOM      5  C   UNL     1      -2.636  11.899  19.234  0.00  0.00    +0.000 C 
BRANCH   5   6
ATOM      6  N   UNL     1      -3.299  13.134  19.675  0.00  0.00    +0.000 N 
ATOM      7  C   UNL     1      -4.028  13.209  20.841  0.00  0.00    +0.000 C 
ATOM      8  O   UNL     1      -4.134  12.261  21.619  0.00  0.00    +0.000 OA
ATOM      9  H   UNL     1      -2.930  13.997  19.294  0.00  0.00    +0.000 HD
BRANCH   7  10
ATOM     10  C   UNL     1      -4.686  14.586  21.143  0.00  0.00    +0.000 C 
BRANCH  10  11
ATOM     11  N   UNL     1      -5.289  15.152  19.918  0.00  0.00    +0.000 NA
ATOM     12  H   UNL     1      -5.006  14.616  19.102  0.00  0.00    +0.000 HD
ATOM     13  H   UNL     1      -4.901  16.089  19.781  0.00  0.00    +0.000 HD
ENDBRANCH  10  11
BRANCH  10  14
ATOM     14  C   UNL     1      -5.705  14.527  22.300  0.00  0.00    +0.000 C 
BRANCH  14  15
ATOM     15  C   UNL     1      -5.660  15.719  23.235  0.00  0.00    +0.000 A 
ATOM     16  C   UNL     1      -6.627  16.735  23.186  0.00  0.00    +0.000 A 
ATOM     17  C   UNL     1      -6.500  17.877  23.972  0.00  0.00    +0.000 A 
ATOM     18  C   UNL     1      -5.423  18.011  24.841  0.00  0.00    +0.000 A 
ATOM     19  C   UNL     1      -4.491  16.982  24.954  0.00  0.00    +0.000 A 
ATOM     20  C   UNL     1      -4.619  15.834  24.167  0.00  0.00    +0.000 A 
ENDBRANCH  14  15
ENDBRANCH  10  14
ENDBRANCH   7  10
ENDBRANCH   5   6
BRANCH   5  22
ATOM     21  C   UNL     1      -4.687  11.630  17.714  0.00  0.00    +0.000 C 
ATOM     22  C   UNL     1      -3.175  11.459  17.841  0.00  0.00    +0.000 C 
ATOM     23  C   UNL     1      -2.837  10.002  17.504  0.00  0.00    +0.000 C 
ENDBRANCH   5  22
ENDBRANCH   1   5
BRANCH   3  24
ATOM     24  C   UNL     1       1.178  11.343  19.341  0.00  0.00    +0.000 C 
BRANCH  24  25
ATOM     25  C   UNL     1       2.101  12.499  18.832  0.00  0.00    +0.000 C 
ATOM     26  N   UNL     1       2.620  12.359  17.568  0.00  0.00    +0.000 N 
ATOM     27  O   UNL     1       2.440  13.502  19.461  0.00  0.00    +0.000 OA
ATOM     28  H   UNL     1       2.523  11.529  17.005  0.00  0.00    +0.000 HD
ATOM     29  H   UNL     1       3.226  13.101  17.238  0.00  0.00    +0.000 HD
ENDBRANCH  24  25
BRANCH  24  30
ATOM     30  C   UNL     1       1.216  10.187  18.295  0.00  0.00    +0.000 C 
BRANCH  30  31
ATOM     31  C   UNL     1       1.548   8.844  18.892  0.00  0.00    +0.000 A 
ATOM     32  C   UNL     1       1.172   8.542  20.198  0.00  0.00    +0.000 A 
ATOM     33  C   UNL     1       1.582   7.348  20.773  0.00  0.00    +0.000 A 
ATOM     34  C   UNL     1       2.413   6.469  20.066  0.00  0.00    +0.000 A 
ATOM     35  C   UNL     1       2.839   6.748  18.758  0.00  0.00    +0.000 A 
ATOM     36  C   UNL     1       2.315   7.920  18.170  0.00  0.00    +0.000 A 
BRANCH  35  37
ATOM     37  C   UNL     1       3.884   5.937  17.960  0.00  0.00    +0.000 C 
ATOM     38  C   UNL     1       5.181   5.606  18.727  0.00  0.00    +0.000 C 
ATOM     39  C   UNL     1       3.277   4.606  17.470  0.00  0.00    +0.000 C 
ATOM     40  C   UNL     1       4.335   6.755  16.721  0.00  0.00    +0.000 C 
ENDBRANCH  35  37
BRANCH  34  41
ATOM     41  O   UNL     1       2.799   5.324  20.701  0.00  0.00    +0.000 OA
ATOM     42  H   UNL     1       2.123   5.082  21.353  0.00  0.00    +0.000 HD
ENDBRANCH  34  41
ENDBRANCH  30  31
ENDBRANCH  24  30
ENDBRANCH   3  24
TORSDOF 13
ENDMDL
MODEL 3
REMARK VINA RESULT:      -7.1      2.288      4.178
REMARK  Name = 
REMARK  19 active torsions:
REMARK  status: ('A' for Active; 'I' for Inactive)
REMARK    1  A    between atoms: C_1  and  C_2
REMARK    2  A    between atoms: C_2  and  C_3
REMARK    3  A    between atoms: C_2  and  C_4
REMARK    4  A    between atoms: C_4  and  N_5
REMARK    5  A    between atoms: C_4  and  C_17
REMARK    6  A    between atoms: C_6  and  C_8
REMARK    7  A    between atoms: C_8  and  N_9
REMARK    8  A    between atoms: C_8  and  C_10
REMARK    9  A    between atoms: C_10  and  C_11
REMARK   10  A    between atoms: N_19  and  C_20
REMARK   11  A    between atoms: N_19  and  C_21
REMARK   12  A    between atoms: C_21  and  C_22
REMARK   13  A    between atoms: C_21  and  C_34
REMARK   14  A    between atoms: C_22  and  C_23
REMARK   15  A    between atoms: C_26  and  O_27
REMARK   16  A    between atoms: C_28  and  C_29
REMARK   17  A    between atoms: C_29  and  C_30
REMARK   18  A    between atoms: C_29  and  C_31
REMARK   19  A    between atoms: C_29  and  C_32
REMARK                            x       y       z     vdW  Elec       q    Type
REMARK                         _______ _______ _______ _____ _____    ______ ____
ROOT
ATOM      1  C   UNL     1      -0.744  11.855  20.853  0.00  0.00    +0.000 C 
ATOM      2  O   UNL     1      -0.319  11.004  21.646  0.00  0.00    +0.000 OA
ATOM      3  N   UNL     1      -0.284  11.948  19.539  0.00  0.00    +0.000 N 
ATOM      4  C   UNL     1      -0.982  12.777  18.561  0.00  0.00    +0.000 C 
ENDROOT
BRANCH   1   5
ATOM      5  C   UNL     1      -1.683  12.952  21.423  0.00  0.00    +0.000 C 
BRANCH   5   6
ATOM      6  N   UNL     1      -3.034  12.650  20.930  0.00  0.00    +0.000 N 
ATOM      7  C   UNL     1      -3.978  13.629  20.709  0.00  0.00    +0.000 C 
ATOM      8  O   UNL     1      -3.740  14.827  20.861  0.00  0.00    +0.000 OA
ATOM      9  H   UNL     1      -3.143  11.772  20.439  0.00  0.00    +0.000 HD
BRANCH   7  10
ATOM     10  C   UNL     1      -5.367  13.132  20.213  0.00  0.00    +0.000 C 
BRANCH  10  11
ATOM     11  N   UNL     1      -5.824  11.981  21.019  0.00  0.00    +0.000 NA
ATOM     12  H   UNL     1      -6.145  11.228  20.413  0.00  0.00    +0.000 HD
ATOM     13  H   UNL     1      -6.646  12.277  21.550  0.00  0.00    +0.000 HD
ENDBRANCH  10  11
BRANCH  10  14
ATOM     14  C   UNL     1      -6.428  14.251  20.173  0.00  0.00    +0.000 C 
BRANCH  14  15
ATOM     15  C   UNL     1      -6.633  14.871  18.805  0.00  0.00    +0.000 A 
ATOM     16  C   UNL     1      -6.626  16.262  18.615  0.00  0.00    +0.000 A 
ATOM     17  C   UNL     1      -6.934  16.812  17.373  0.00  0.00    +0.000 A 
ATOM     18  C   UNL     1      -7.224  15.983  16.295  0.00  0.00    +0.000 A 
ATOM     19  C   UNL     1      -7.168  14.600  16.449  0.00  0.00    +0.000 A 
ATOM     20  C   UNL     1      -6.858  14.047  17.694  0.00  0.00    +0.000 A 
ENDBRANCH  14  15
ENDBRANCH  10  14
ENDBRANCH   7  10
ENDBRANCH   5   6
BRANCH   5  22
ATOM     21  C   UNL     1      -2.872  12.157  23.555  0.00  0.00    +0.000 C 
ATOM     22  C   UNL     1      -1.626  12.822  22.974  0.00  0.00    +0.000 C 
ATOM     23  C   UNL     1      -1.441  14.171  23.678  0.00  0.00    +0.000 C 
ENDBRANCH   5  22
ENDBRANCH   1   5
BRANCH   3  24
ATOM     24  C   UNL     1       1.103  11.457  19.216  0.00  0.00    +0.000 C 
BRANCH  24  25
ATOM     25  C   UNL     1       2.200  12.506  18.836  0.00  0.00    +0.000 C 
ATOM     26  N   UNL     1       2.757  12.385  17.587  0.00  0.00    +0.000 N 
ATOM     27  O   UNL     1       2.641  13.402  19.555  0.00  0.00    +0.000 OA
ATOM     28  H   UNL     1       2.576  11.620  16.957  0.00  0.00    +0.000 HD
ATOM     29  H   UNL     1       3.475  13.057  17.340  0.00  0.00    +0.000 HD
ENDBRANCH  24  25
BRANCH  24  30
ATOM     30  C   UNL     1       1.192  10.266  18.213  0.00  0.00    +0.000 C 
BRANCH  30  31
ATOM     31  C   UNL     1       1.487   8.943  18.871  0.00  0.00    +0.000 A 
ATOM     32  C   UNL     1       1.070   8.699  20.177  0.00  0.00    +0.000 A 
ATOM     33  C   UNL     1       1.447   7.523  20.810  0.00  0.00    +0.000 A 
ATOM     34  C   UNL     1       2.283   6.605  20.161  0.00  0.00    +0.000 A 
ATOM     35  C   UNL     1       2.750   6.826  18.856  0.00  0.00    +0.000 A 
ATOM     36  C   UNL     1       2.259   7.981  18.208  0.00  0.00    +0.000 A 
BRANCH  35  37
ATOM     37  C   UNL     1       3.803   5.969  18.121  0.00  0.00    +0.000 C 
ATOM     38  C   UNL     1       5.028   5.567  18.968  0.00  0.00    +0.000 C 
ATOM     39  C   UNL     1       3.165   4.674  17.576  0.00  0.00    +0.000 C 
ATOM     40  C   UNL     1       4.377   6.773  16.924  0.00  0.00    +0.000 C 
ENDBRANCH  35  37
BRANCH  34  41
ATOM     41  O   UNL     1       2.634   5.481  20.852  0.00  0.00    +0.000 OA
ATOM     42  H   UNL     1       3.194   4.925  20.288  0.00  0.00    +0.000 HD
ENDBRANCH  34  41
ENDBRANCH  30  31
ENDBRANCH  24  30
ENDBRANCH   3  24
TORSDOF 13
ENDMDL
MODEL 4
REMARK VINA RESULT:      -6.8      3.049     10.204
REMARK  Name = 
REMARK  19 active torsions:
REMARK  status: ('A' for Active; 'I' for Inactive)
REMARK    1  A    between atoms: C_1  and  C_2
REMARK    2  A    between atoms: C_2  and  C_3
REMARK    3  A    between atoms: C_2  and  C_4
REMARK    4  A    between atoms: C_4  and  N_5
REMARK    5  A    between atoms: C_4  and  C_17
REMARK    6  A    between atoms: C_6  and  C_8
REMARK    7  A    between atoms: C_8  and  N_9
REMARK    8  A    between atoms: C_8  and  C_10
REMARK    9  A    between atoms: C_10  and  C_11
REMARK   10  A    between atoms: N_19  and  C_20
REMARK   11  A    between atoms: N_19  and  C_21
REMARK   12  A    between atoms: C_21  and  C_22
REMARK   13  A    between atoms: C_21  and  C_34
REMARK   14  A    between atoms: C_22  and  C_23
REMARK   15  A    between atoms: C_26  and  O_27
REMARK   16  A    between atoms: C_28  and  C_29
REMARK   17  A    between atoms: C_29  and  C_30
REMARK   18  A    between atoms: C_29  and  C_31
REMARK   19  A    between atoms: C_29  and  C_32
REMARK                            x       y       z     vdW  Elec       q    Type
REMARK                         _______ _______ _______ _____ _____    ______ ____
ROOT
ATOM      1  C   UNL     1       1.928   6.393  19.791  0.00  0.00    +0.000 C 
ATOM      2  O   UNL     1       1.533   6.389  20.965  0.00  0.00    +0.000 OA
ATOM      3  N   UNL     1       2.113   7.574  19.070  0.00  0.00    +0.000 N 
ATOM      4  C   UNL     1       2.822   7.565  17.794  0.00  0.00    +0.000 C 
ENDROOT
BRANCH   1   5
ATOM      5  C   UNL     1       2.037   5.023  19.072  0.00  0.00    +0.000 C 
BRANCH   5   6
ATOM      6  N   UNL     1       3.408   4.926  18.551  0.00  0.00    +0.000 N 
ATOM      7  C   UNL     1       3.734   4.150  17.460  0.00  0.00    +0.000 C 
ATOM      8  O   UNL     1       2.892   3.525  16.816  0.00  0.00    +0.000 OA
ATOM      9  H   UNL     1       4.029   5.690  18.788  0.00  0.00    +0.000 HD
BRANCH   7  10
ATOM     10  C   UNL     1       5.237   4.141  17.059  0.00  0.00    +0.000 C 
BRANCH  10  11
ATOM     11  N   UNL     1       5.532   2.990  16.179  0.00  0.00    +0.000 NA
ATOM     12  H   UNL     1       4.733   2.784  15.584  0.00  0.00    +0.000 HD
ATOM     13  H   UNL     1       5.654   2.166  16.772  0.00  0.00    +0.000 HD
ENDBRANCH  10  11
BRANCH  10  14
ATOM     14  C   UNL     1       5.700   5.470  16.425  0.00  0.00    +0.000 C 
BRANCH  14  15
ATOM     15  C   UNL     1       6.729   6.228  17.241  0.00  0.00    +0.000 A 
ATOM     16  C   UNL     1       7.362   5.651  18.353  0.00  0.00    +0.000 A 
ATOM     17  C   UNL     1       8.213   6.404  19.157  0.00  0.00    +0.000 A 
ATOM     18  C   UNL     1       8.470   7.735  18.848  0.00  0.00    +0.000 A 
ATOM     19  C   UNL     1       7.904   8.304  17.710  0.00  0.00    +0.000 A 
ATOM     20  C   UNL     1       7.051   7.549  16.901  0.00  0.00    +0.000 A 
ENDBRANCH  14  15
ENDBRANCH  10  14
ENDBRANCH   7  10
ENDBRANCH   5   6
BRANCH   5  22
ATOM     21  C   UNL     1       3.076   3.258  20.621  0.00  0.00    +0.000 C 
ATOM     22  C   UNL     1       1.787   3.932  20.155  0.00  0.00    +0.000 C 
ATOM     23  C   UNL     1       0.826   2.834  19.684  0.00  0.00    +0.000 C 
ENDBRANCH   5  22
ENDBRANCH   1   5
BRANCH   3  24
ATOM     24  C   UNL     1       1.307   8.790  19.444  0.00  0.00    +0.000 C 
BRANCH  24  25
ATOM     25  C   UNL     1       0.871   9.778  18.312  0.00  0.00    +0.000 C 
ATOM     26  N   UNL     1       1.802  10.706  17.916  0.00  0.00    +0.000 N 
ATOM     27  O   UNL     1      -0.231   9.833  17.766  0.00  0.00    +0.000 OA
ATOM     28  H   UNL     1       2.691  10.848  18.371  0.00  0.00    +0.000 HD
ATOM     29  H   UNL     1       1.521  11.354  17.189  0.00  0.00    +0.000 HD
ENDBRANCH  24  25
BRANCH  24  30
ATOM     30  C   UNL     1       1.844   9.626  20.646  0.00  0.00    +0.000 C 
BRANCH  30  31
ATOM     31  C   UNL     1       0.756  10.240  21.488  0.00  0.00    +0.000 A 
ATOM     32  C   UNL     1       0.210   9.534  22.556  0.00  0.00    +0.000 A 
ATOM     33  C   UNL     1      -0.868  10.064  23.251  0.00  0.00    +0.000 A 
ATOM     34  C   UNL     1      -1.440  11.279  22.853  0.00  0.00    +0.000 A 
ATOM     35  C   UNL     1      -0.938  12.009  21.764  0.00  0.00    +0.000 A 
ATOM     36  C   UNL     1       0.223  11.491  21.150  0.00  0.00    +0.000 A 
BRANCH  35  37
ATOM     37  C   UNL     1      -1.594  13.262  21.143  0.00  0.00    +0.000 C 
ATOM     38  C   UNL     1      -3.076  13.099  20.749  0.00  0.00    +0.000 C 
ATOM     39  C   UNL     1      -1.496  14.461  22.109  0.00  0.00    +0.000 C 
ATOM     40  C   UNL     1      -0.857  13.631  19.828  0.00  0.00    +0.000 C 
ENDBRANCH  35  37
BRANCH  34  41
ATOM     41  O   UNL     1      -2.513  11.730  23.567  0.00  0.00    +0.000 OA
ATOM     42  H   UNL     1      -2.554  12.696  23.499  0.00  0.00    +0.000 HD
ENDBRANCH  34  41
ENDBRANCH  30  31
ENDBRANCH  24  30
ENDBRANCH   3  24
TORSDOF 13
ENDMDL
MODEL 5
REMARK VINA RESULT:      -6.8      3.194      8.980
REMARK  Name = 
REMARK  19 active torsions:
REMARK  status: ('A' for Active; 'I' for Inactive)
REMARK    1  A    between atoms: C_1  and  C_2
REMARK    2  A    between atoms: C_2  and  C_3
REMARK    3  A    between atoms: C_2  and  C_4
REMARK    4  A    between atoms: C_4  and  N_5
REMARK    5  A    between atoms: C_4  and  C_17
REMARK    6  A    between atoms: C_6  and  C_8
REMARK    7  A    between atoms: C_8  and  N_9
REMARK    8  A    between atoms: C_8  and  C_10
REMARK    9  A    between atoms: C_10  and  C_11
REMARK   10  A    between atoms: N_19  and  C_20
REMARK   11  A    between atoms: N_19  and  C_21
REMARK   12  A    between atoms: C_21  and  C_22
REMARK   13  A    between atoms: C_21  and  C_34
REMARK   14  A    between atoms: C_22  and  C_23
REMARK   15  A    between atoms: C_26  and  O_27
REMARK   16  A    between atoms: C_28  and  C_29
REMARK   17  A    between atoms: C_29  and  C_30
REMARK   18  A    between atoms: C_29  and  C_31
REMARK   19  A    between atoms: C_29  and  C_32
REMARK                            x       y       z     vdW  Elec       q    Type
REMARK                         _______ _______ _______ _____ _____    ______ ____
ROOT
ATOM      1  C   UNL     1       0.054  12.944  21.156  0.00  0.00    +0.000 C 
ATOM      2  O   UNL     1       1.263  13.040  21.406  0.00  0.00    +0.000 OA
ATOM      3  N   UNL     1      -0.780  14.059  21.067  0.00  0.00    +0.000 N 
ATOM      4  C   UNL     1      -2.128  13.941  20.518  0.00  0.00    +0.000 C 
ENDROOT
BRANCH   1   5
ATOM      5  C   UNL     1      -0.557  11.518  21.128  0.00  0.00    +0.000 C 
BRANCH   5   6
ATOM      6  N   UNL     1       0.371  10.675  20.362  0.00  0.00    +0.000 N 
ATOM      7  C   UNL     1       0.038  10.121  19.145  0.00  0.00    +0.000 C 
ATOM      8  O   UNL     1      -1.040  10.335  18.593  0.00  0.00    +0.000 OA
ATOM      9  H   UNL     1       1.355  10.791  20.573  0.00  0.00    +0.000 HD
BRANCH   7  10
ATOM     10  C   UNL     1       1.130   9.233  18.482  0.00  0.00    +0.000 C 
BRANCH  10  11
ATOM     11  N   UNL     1       1.952  10.032  17.549  0.00  0.00    +0.000 NA
ATOM     12  H   UNL     1       1.357  10.541  16.898  0.00  0.00    +0.000 HD
ATOM     13  H   UNL     1       2.495   9.383  16.975  0.00  0.00    +0.000 HD
ENDBRANCH  10  11
BRANCH  10  14
ATOM     14  C   UNL     1       2.007   8.488  19.510  0.00  0.00    +0.000 C 
BRANCH  14  15
ATOM     15  C   UNL     1       2.473   7.117  19.058  0.00  0.00    +0.000 A 
ATOM     16  C   UNL     1       3.335   6.953  17.963  0.00  0.00    +0.000 A 
ATOM     17  C   UNL     1       3.654   5.682  17.493  0.00  0.00    +0.000 A 
ATOM     18  C   UNL     1       3.143   4.555  18.126  0.00  0.00    +0.000 A 
ATOM     19  C   UNL     1       2.341   4.698  19.256  0.00  0.00    +0.000 A 
ATOM     20  C   UNL     1       2.022   5.972  19.730  0.00  0.00    +0.000 A 
ENDBRANCH  14  15
ENDBRANCH  10  14
ENDBRANCH   7  10
ENDBRANCH   5   6
BRANCH   5  22
ATOM     21  C   UNL     1      -0.456   9.529  22.748  0.00  0.00    +0.000 C 
ATOM     22  C   UNL     1      -0.632  11.039  22.608  0.00  0.00    +0.000 C 
ATOM     23  C   UNL     1      -1.949  11.424  23.292  0.00  0.00    +0.000 C 
ENDBRANCH   5  22
ENDBRANCH   1   5
BRANCH   3  24
ATOM     24  C   UNL     1      -0.414  15.307  21.827  0.00  0.00    +0.000 C 
BRANCH  24  25
ATOM     25  C   UNL     1      -0.880  15.443  23.315  0.00  0.00    +0.000 C 
ATOM     26  N   UNL     1      -1.432  16.646  23.676  0.00  0.00    +0.000 N 
ATOM     27  O   UNL     1      -0.769  14.596  24.201  0.00  0.00    +0.000 OA
ATOM     28  H   UNL     1      -1.461  17.459  23.081  0.00  0.00    +0.000 HD
ATOM     29  H   UNL     1      -1.727  16.742  24.641  0.00  0.00    +0.000 HD
ENDBRANCH  24  25
BRANCH  24  30
ATOM     30  C   UNL     1      -0.688  16.659  21.100  0.00  0.00    +0.000 C 
BRANCH  30  31
ATOM     31  C   UNL     1       0.281  16.952  19.985  0.00  0.00    +0.000 A 
ATOM     32  C   UNL     1      -0.156  17.577  18.820  0.00  0.00    +0.000 A 
ATOM     33  C   UNL     1       0.721  17.737  17.756  0.00  0.00    +0.000 A 
ATOM     34  C   UNL     1       2.025  17.231  17.829  0.00  0.00    +0.000 A 
ATOM     35  C   UNL     1       2.496  16.569  18.973  0.00  0.00    +0.000 A 
ATOM     36  C   UNL     1       1.611  16.520  20.071  0.00  0.00    +0.000 A 
BRANCH  35  37
ATOM     37  C   UNL     1       3.848  15.831  19.092  0.00  0.00    +0.000 C 
ATOM     38  C   UNL     1       4.056  15.051  20.407  0.00  0.00    +0.000 C 
ATOM     39  C   UNL     1       4.028  14.838  17.925  0.00  0.00    +0.000 C 
ATOM     40  C   UNL     1       5.005  16.864  19.038  0.00  0.00    +0.000 C 
ENDBRANCH  35  37
BRANCH  34  41
ATOM     41  O   UNL     1       2.825  17.404  16.736  0.00  0.00    +0.000 OA
ATOM     42  H   UNL     1       2.308  17.816  16.028  0.00  0.00    +0.000 HD
ENDBRANCH  34  41
ENDBRANCH  30  31
ENDBRANCH  24  30
ENDBRANCH   3  24
TORSDOF 13
ENDMDL
MODEL 6
REMARK VINA RESULT:      -6.8      3.818     10.156
REMARK  Name = 
REMARK  19 active torsions:
REMARK  status: ('A' for Active; 'I' for Inactive)
REMARK    1  A    between atoms: C_1  and  C_2
REMARK    2  A    between atoms: C_2  and  C_3
REMARK    3  A    between atoms: C_2  and  C_4
REMARK    4  A    between atoms: C_4  and  N_5
REMARK    5  A    between atoms: C_4  and  C_17
REMARK    6  A    between atoms: C_6  and  C_8
REMARK    7  A    between atoms: C_8  and  N_9
REMARK    8  A    between atoms: C_8  and  C_10
REMARK    9  A    between atoms: C_10  and  C_11
REMARK   10  A    between atoms: N_19  and  C_20
REMARK   11  A    between atoms: N_19  and  C_21
REMARK   12  A    between atoms: C_21  and  C_22
REMARK   13  A    between atoms: C_21  and  C_34
REMARK   14  A    between atoms: C_22  and  C_23
REMARK   15  A    between atoms: C_26  and  O_27
REMARK   16  A    between atoms: C_28  and  C_29
REMARK   17  A    between atoms: C_29  and  C_30
REMARK   18  A    between atoms: C_29  and  C_31
REMARK   19  A    between atoms: C_29  and  C_32
REMARK                            x       y       z     vdW  Elec       q    Type
REMARK                         _______ _______ _______ _____ _____    ______ ____
ROOT
ATOM      1  C   UNL     1       3.147   7.459  18.021  0.00  0.00    +0.000 C 
ATOM      2  O   UNL     1       2.990   8.310  17.136  0.00  0.00    +0.000 OA
ATOM      3  N   UNL     1       2.305   7.371  19.131  0.00  0.00    +0.000 N 
ATOM      4  C   UNL     1       2.350   6.208  20.012  0.00  0.00    +0.000 C 
ENDROOT
BRANCH   1   5
ATOM      5  C   UNL     1       4.435   6.596  17.959  0.00  0.00    +0.000 C 
BRANCH   5   6
ATOM      6  N   UNL     1       4.035   5.274  17.458  0.00  0.00    +0.000 N 
ATOM      7  C   UNL     1       4.715   4.120  17.784  0.00  0.00    +0.000 C 
ATOM      8  O   UNL     1       5.673   4.112  18.556  0.00  0.00    +0.000 OA
ATOM      9  H   UNL     1       3.072   5.184  17.159  0.00  0.00    +0.000 HD
BRANCH   7  10
ATOM     10  C   UNL     1       4.173   2.810  17.145  0.00  0.00    +0.000 C 
BRANCH  10  11
ATOM     11  N   UNL     1       5.140   2.272  16.165  0.00  0.00    +0.000 NA
ATOM     12  H   UNL     1       6.010   2.797  16.200  0.00  0.00    +0.000 HD
ATOM     13  H   UNL     1       4.759   2.431  15.229  0.00  0.00    +0.000 HD
ENDBRANCH  10  11
BRANCH  10  14
ATOM     14  C   UNL     1       3.780   1.747  18.192  0.00  0.00    +0.000 C 
BRANCH  14  15
ATOM     15  C   UNL     1       2.873   2.259  19.294  0.00  0.00    +0.000 A 
ATOM     16  C   UNL     1       3.320   2.395  20.617  0.00  0.00    +0.000 A 
ATOM     17  C   UNL     1       2.439   2.753  21.634  0.00  0.00    +0.000 A 
ATOM     18  C   UNL     1       1.104   3.011  21.341  0.00  0.00    +0.000 A 
ATOM     19  C   UNL     1       0.658   2.948  20.023  0.00  0.00    +0.000 A 
ATOM     20  C   UNL     1       1.542   2.591  19.002  0.00  0.00    +0.000 A 
ENDBRANCH  14  15
ENDBRANCH  10  14
ENDBRANCH   7  10
ENDBRANCH   5   6
BRANCH   5  22
ATOM     21  C   UNL     1       5.323   6.680  15.552  0.00  0.00    +0.000 C 
ATOM     22  C   UNL     1       5.390   7.296  16.947  0.00  0.00    +0.000 C 
ATOM     23  C   UNL     1       6.854   7.279  17.399  0.00  0.00    +0.000 C 
ENDBRANCH   5  22
ENDBRANCH   1   5
BRANCH   3  24
ATOM     24  C   UNL     1       1.584   8.608  19.599  0.00  0.00    +0.000 C 
BRANCH  24  25
ATOM     25  C   UNL     1       0.944   8.608  21.027  0.00  0.00    +0.000 C 
ATOM     26  N   UNL     1       1.762   8.974  22.066  0.00  0.00    +0.000 N 
ATOM     27  O   UNL     1      -0.206   8.278  21.318  0.00  0.00    +0.000 OA
ATOM     28  H   UNL     1       2.753   9.140  21.977  0.00  0.00    +0.000 HD
ATOM     29  H   UNL     1       1.354   8.966  22.994  0.00  0.00    +0.000 HD
ENDBRANCH  24  25
BRANCH  24  30
ATOM     30  C   UNL     1       0.559   9.225  18.600  0.00  0.00    +0.000 C 
BRANCH  30  31
ATOM     31  C   UNL     1       0.110  10.613  18.976  0.00  0.00    +0.000 A 
ATOM     32  C   UNL     1      -1.247  10.922  19.034  0.00  0.00    +0.000 A 
ATOM     33  C   UNL     1      -1.645  12.231  19.268  0.00  0.00    +0.000 A 
ATOM     34  C   UNL     1      -0.691  13.249  19.396  0.00  0.00    +0.000 A 
ATOM     35  C   UNL     1       0.685  12.986  19.315  0.00  0.00    +0.000 A 
ATOM     36  C   UNL     1       1.052  11.629  19.182  0.00  0.00    +0.000 A 
BRANCH  35  37
ATOM     37  C   UNL     1       1.802  14.051  19.273  0.00  0.00    +0.000 C 
ATOM     38  C   UNL     1       1.401  15.397  18.633  0.00  0.00    +0.000 C 
ATOM     39  C   UNL     1       2.326  14.346  20.694  0.00  0.00    +0.000 C 
ATOM     40  C   UNL     1       2.984  13.524  18.415  0.00  0.00    +0.000 C 
ENDBRANCH  35  37
BRANCH  34  41
ATOM     41  O   UNL     1      -1.154  14.517  19.601  0.00  0.00    +0.000 OA
ATOM     42  H   UNL     1      -1.848  14.709  18.952  0.00  0.00    +0.000 HD
ENDBRANCH  34  41
ENDBRANCH  30  31
ENDBRANCH  24  30
ENDBRANCH   3  24
TORSDOF 13
ENDMDL
MODEL 7
REMARK VINA RESULT:      -6.7      3.879      6.935
REMARK  Name = 
REMARK  19 active torsions:
REMARK  status: ('A' for Active; 'I' for Inactive)
REMARK    1  A    between atoms: C_1  and  C_2
REMARK    2  A    between atoms: C_2  and  C_3
REMARK    3  A    between atoms: C_2  and  C_4
REMARK    4  A    between atoms: C_4  and  N_5
REMARK    5  A    between atoms: C_4  and  C_17
REMARK    6  A    between atoms: C_6  and  C_8
REMARK    7  A    between atoms: C_8  and  N_9
REMARK    8  A    between atoms: C_8  and  C_10
REMARK    9  A    between atoms: C_10  and  C_11
REMARK   10  A    between atoms: N_19  and  C_20
REMARK   11  A    between atoms: N_19  and  C_21
REMARK   12  A    between atoms: C_21  and  C_22
REMARK   13  A    between atoms: C_21  and  C_34
REMARK   14  A    between atoms: C_22  and  C_23
REMARK   15  A    between atoms: C_26  and  O_27
REMARK   16  A    between atoms: C_28  and  C_29
REMARK   17  A    between atoms: C_29  and  C_30
REMARK   18  A    between atoms: C_29  and  C_31
REMARK   19  A    between atoms: C_29  and  C_32
REMARK                            x       y       z     vdW  Elec       q    Type
REMARK                         _______ _______ _______ _____ _____    ______ ____
ROOT
ATOM      1  C   UNL     1       1.980  12.812  19.329  0.00  0.00    +0.000 C 
ATOM      2  O   UNL     1       2.657  12.556  18.323  0.00  0.00    +0.000 OA
ATOM      3  N   UNL     1       1.174  11.857  19.950  0.00  0.00    +0.000 N 
ATOM      4  C   UNL     1       0.601  12.109  21.269  0.00  0.00    +0.000 C 
ENDROOT
BRANCH   1   5
ATOM      5  C   UNL     1       1.906  14.296  19.777  0.00  0.00    +0.000 C 
BRANCH   5   6
ATOM      6  N   UNL     1       3.288  14.735  20.016  0.00  0.00    +0.000 N 
ATOM      7  C   UNL     1       3.895  14.638  21.249  0.00  0.00    +0.000 C 
ATOM      8  O   UNL     1       3.339  14.131  22.223  0.00  0.00    +0.000 OA
ATOM      9  H   UNL     1       3.885  14.788  19.200  0.00  0.00    +0.000 HD
BRANCH   7  10
ATOM     10  C   UNL     1       5.352  15.175  21.332  0.00  0.00    +0.000 C 
BRANCH  10  11
ATOM     11  N   UNL     1       5.355  16.645  21.487  0.00  0.00    +0.000 NA
ATOM     12  H   UNL     1       5.668  17.093  20.628  0.00  0.00    +0.000 HD
ATOM     13  H   UNL     1       6.056  16.884  22.193  0.00  0.00    +0.000 HD
ENDBRANCH  10  11
BRANCH  10  14
ATOM     14  C   UNL     1       6.185  14.489  22.435  0.00  0.00    +0.000 C 
BRANCH  14  15
ATOM     15  C   UNL     1       7.409  13.752  21.927  0.00  0.00    +0.000 A 
ATOM     16  C   UNL     1       8.061  14.129  20.743  0.00  0.00    +0.000 A 
ATOM     17  C   UNL     1       9.109  13.366  20.234  0.00  0.00    +0.000 A 
ATOM     18  C   UNL     1       9.544  12.234  20.914  0.00  0.00    +0.000 A 
ATOM     19  C   UNL     1       8.954  11.885  22.127  0.00  0.00    +0.000 A 
ATOM     20  C   UNL     1       7.904  12.650  22.639  0.00  0.00    +0.000 A 
ENDBRANCH  14  15
ENDBRANCH  10  14
ENDBRANCH   7  10
ENDBRANCH   5   6
BRANCH   5  22
ATOM     21  C   UNL     1       2.091  16.325  18.215  0.00  0.00    +0.000 C 
ATOM     22  C   UNL     1       1.280  15.087  18.590  0.00  0.00    +0.000 C 
ATOM     23  C   UNL     1      -0.160  15.535  18.867  0.00  0.00    +0.000 C 
ENDBRANCH   5  22
ENDBRANCH   1   5
BRANCH   3  24
ATOM     24  C   UNL     1       0.636  10.714  19.131  0.00  0.00    +0.000 C 
BRANCH  24  25
ATOM     25  C   UNL     1      -0.752  10.883  18.428  0.00  0.00    +0.000 C 
ATOM     26  N   UNL     1      -0.986  12.088  17.814  0.00  0.00    +0.000 N 
ATOM     27  O   UNL     1      -1.669  10.061  18.402  0.00  0.00    +0.000 OA
ATOM     28  H   UNL     1      -0.370  12.884  17.875  0.00  0.00    +0.000 HD
ATOM     29  H   UNL     1      -1.887  12.205  17.366  0.00  0.00    +0.000 HD
ENDBRANCH  24  25
BRANCH  24  30
ATOM     30  C   UNL     1       0.678   9.308  19.804  0.00  0.00    +0.000 C 
BRANCH  30  31
ATOM     31  C   UNL     1       1.687   8.374  19.189  0.00  0.00    +0.000 A 
ATOM     32  C   UNL     1       2.419   8.766  18.072  0.00  0.00    +0.000 A 
ATOM     33  C   UNL     1       3.260   7.856  17.447  0.00  0.00    +0.000 A 
ATOM     34  C   UNL     1       3.338   6.534  17.903  0.00  0.00    +0.000 A 
ATOM     35  C   UNL     1       2.595   6.089  19.008  0.00  0.00    +0.000 A 
ATOM     36  C   UNL     1       1.834   7.070  19.680  0.00  0.00    +0.000 A 
BRANCH  35  37
ATOM     37  C   UNL     1       2.480   4.624  19.483  0.00  0.00    +0.000 C 
ATOM     38  C   UNL     1       3.822   3.885  19.659  0.00  0.00    +0.000 C 
ATOM     39  C   UNL     1       1.723   4.546  20.825  0.00  0.00    +0.000 C 
ATOM     40  C   UNL     1       1.692   3.801  18.428  0.00  0.00    +0.000 C 
ENDBRANCH  35  37
BRANCH  34  41
ATOM     41  O   UNL     1       4.167   5.686  17.227  0.00  0.00    +0.000 OA
ATOM     42  H   UNL     1       4.404   4.945  17.807  0.00  0.00    +0.000 HD
ENDBRANCH  34  41
ENDBRANCH  30  31
ENDBRANCH  24  30
ENDBRANCH   3  24
TORSDOF 13
ENDMDL
MODEL 8
REMARK VINA RESULT:      -6.7      1.749      2.903
REMARK  Name = 
REMARK  19 active torsions:
REMARK  status: ('A' for Active; 'I' for Inactive)
REMARK    1  A    between atoms: C_1  and  C_2
REMARK    2  A    between atoms: C_2  and  C_3
REMARK    3  A    between atoms: C_2  and  C_4
REMARK    4  A    between atoms: C_4  and  N_5
REMARK    5  A    between atoms: C_4  and  C_17
REMARK    6  A    between atoms: C_6  and  C_8
REMARK    7  A    between atoms: C_8  and  N_9
REMARK    8  A    between atoms: C_8  and  C_10
REMARK    9  A    between atoms: C_10  and  C_11
REMARK   10  A    between atoms: N_19  and  C_20
REMARK   11  A    between atoms: N_19  and  C_21
REMARK   12  A    between atoms: C_21  and  C_22
REMARK   13  A    between atoms: C_21  and  C_34
REMARK   14  A    between atoms: C_22  and  C_23
REMARK   15  A    between atoms: C_26  and  O_27
REMARK   16  A    between atoms: C_28  and  C_29
REMARK   17  A    between atoms: C_29  and  C_30
REMARK   18  A    between atoms: C_29  and  C_31
REMARK   19  A    between atoms: C_29  and  C_32
REMARK                            x       y       z     vdW  Elec       q    Type
REMARK                         _______ _______ _______ _____ _____    ______ ____
ROOT
ATOM      1  C   UNL     1      -1.116  12.242  19.178  0.00  0.00    +0.000 C 
ATOM      2  O   UNL     1      -0.937  12.786  18.080  0.00  0.00    +0.000 OA
ATOM      3  N   UNL     1      -0.058  11.799  19.973  0.00  0.00    +0.000 N 
ATOM      4  C   UNL     1      -0.282  11.406  21.361  0.00  0.00    +0.000 C 
ENDROOT
BRANCH   1   5
ATOM      5  C   UNL     1      -2.576  11.890  19.568  0.00  0.00    +0.000 C 
BRANCH   5   6
ATOM      6  N   UNL     1      -3.170  13.112  20.127  0.00  0.00    +0.000 N 
ATOM      7  C   UNL     1      -3.716  13.160  21.391  0.00  0.00    +0.000 C 
ATOM      8  O   UNL     1      -3.699  12.198  22.158  0.00  0.00    +0.000 OA
ATOM      9  H   UNL     1      -2.867  13.984  19.712  0.00  0.00    +0.000 HD
BRANCH   7  10
ATOM     10  C   UNL     1      -4.327  14.527  21.816  0.00  0.00    +0.000 C 
BRANCH  10  11
ATOM     11  N   UNL     1      -3.730  14.989  23.087  0.00  0.00    +0.000 NA
ATOM     12  H   UNL     1      -3.708  14.230  23.765  0.00  0.00    +0.000 HD
ATOM     13  H   UNL     1      -4.351  15.696  23.486  0.00  0.00    +0.000 HD
ENDBRANCH  10  11
BRANCH  10  14
ATOM     14  C   UNL     1      -4.216  15.604  20.716  0.00  0.00    +0.000 C 
BRANCH  14  15
ATOM     15  C   UNL     1      -5.548  16.082  20.172  0.00  0.00    +0.000 A 
ATOM     16  C   UNL     1      -6.122  15.519  19.022  0.00  0.00    +0.000 A 
ATOM     17  C   UNL     1      -7.285  16.052  18.473  0.00  0.00    +0.000 A 
ATOM     18  C   UNL     1      -7.910  17.136  19.080  0.00  0.00    +0.000 A 
ATOM     19  C   UNL     1      -7.392  17.664  20.260  0.00  0.00    +0.000 A 
ATOM     20  C   UNL     1      -6.226  17.128  20.813  0.00  0.00    +0.000 A 
ENDBRANCH  14  15
ENDBRANCH  10  14
ENDBRANCH   7  10
ENDBRANCH   5   6
BRANCH   5  22
ATOM     21  C   UNL     1      -4.819  11.628  18.347  0.00  0.00    +0.000 C 
ATOM     22  C   UNL     1      -3.302  11.484  18.251  0.00  0.00    +0.000 C 
ATOM     23  C   UNL     1      -2.991  10.047  17.818  0.00  0.00    +0.000 C 
ENDBRANCH   5  22
ENDBRANCH   1   5
BRANCH   3  24
ATOM     24  C   UNL     1       1.243  11.422  19.313  0.00  0.00    +0.000 C 
BRANCH  24  25
ATOM     25  C   UNL     1       2.118  12.554  18.680  0.00  0.00    +0.000 C 
ATOM     26  N   UNL     1       2.690  12.278  17.463  0.00  0.00    +0.000 N 
ATOM     27  O   UNL     1       2.376  13.650  19.177  0.00  0.00    +0.000 OA
ATOM     28  H   UNL     1       2.661  11.376  17.014  0.00  0.00    +0.000 HD
ATOM     29  H   UNL     1       3.265  13.005  17.053  0.00  0.00    +0.000 HD
ENDBRANCH  24  25
BRANCH  24  30
ATOM     30  C   UNL     1       1.184  10.228  18.313  0.00  0.00    +0.000 C 
BRANCH  30  31
ATOM     31  C   UNL     1       1.481   8.894  18.947  0.00  0.00    +0.000 A 
ATOM     32  C   UNL     1       1.086   8.633  20.256  0.00  0.00    +0.000 A 
ATOM     33  C   UNL     1       1.467   7.446  20.865  0.00  0.00    +0.000 A 
ATOM     34  C   UNL     1       2.286   6.533  20.189  0.00  0.00    +0.000 A 
ATOM     35  C   UNL     1       2.731   6.770  18.879  0.00  0.00    +0.000 A 
ATOM     36  C   UNL     1       2.236   7.936  18.257  0.00  0.00    +0.000 A 
BRANCH  35  37
ATOM     37  C   UNL     1       3.765   5.917  18.113  0.00  0.00    +0.000 C 
ATOM     38  C   UNL     1       4.996   5.483  18.937  0.00  0.00    +0.000 C 
ATOM     39  C   UNL     1       3.106   4.641  17.549  0.00  0.00    +0.000 C 
ATOM     40  C   UNL     1       4.334   6.740  16.927  0.00  0.00    +0.000 C 
ENDBRANCH  35  37
BRANCH  34  41
ATOM     41  O   UNL     1       2.641   5.396  20.857  0.00  0.00    +0.000 OA
ATOM     42  H   UNL     1       2.025   5.257  21.593  0.00  0.00    +0.000 HD
ENDBRANCH  34  41
ENDBRANCH  30  31
ENDBRANCH  24  30
ENDBRANCH   3  24
TORSDOF 13
ENDMDL
MODEL 9
REMARK VINA RESULT:      -6.7      3.521     10.324
REMARK  Name = 
REMARK  19 active torsions:
REMARK  status: ('A' for Active; 'I' for Inactive)
REMARK    1  A    between atoms: C_1  and  C_2
REMARK    2  A    between atoms: C_2  and  C_3
REMARK    3  A    between atoms: C_2  and  C_4
REMARK    4  A    between atoms: C_4  and  N_5
REMARK    5  A    between atoms: C_4  and  C_17
REMARK    6  A    between atoms: C_6  and  C_8
REMARK    7  A    between atoms: C_8  and  N_9
REMARK    8  A    between atoms: C_8  and  C_10
REMARK    9  A    between atoms: C_10  and  C_11
REMARK   10  A    between atoms: N_19  and  C_20
REMARK   11  A    between atoms: N_19  and  C_21
REMARK   12  A    between atoms: C_21  and  C_22
REMARK   13  A    between atoms: C_21  and  C_34
REMARK   14  A    between atoms: C_22  and  C_23
REMARK   15  A    between atoms: C_26  and  O_27
REMARK   16  A    between atoms: C_28  and  C_29
REMARK   17  A    between atoms: C_29  and  C_30
REMARK   18  A    between atoms: C_29  and  C_31
REMARK   19  A    between atoms: C_29  and  C_32
REMARK                            x       y       z     vdW  Elec       q    Type
REMARK                         _______ _______ _______ _____ _____    ______ ____
ROOT
ATOM      1  C   UNL     1       2.150   6.489  19.941  0.00  0.00    +0.000 C 
ATOM      2  O   UNL     1       2.017   6.430  21.171  0.00  0.00    +0.000 OA
ATOM      3  N   UNL     1       2.191   7.701  19.252  0.00  0.00    +0.000 N 
ATOM      4  C   UNL     1       2.609   7.750  17.853  0.00  0.00    +0.000 C 
ENDROOT
BRANCH   1   5
ATOM      5  C   UNL     1       2.082   5.153  19.154  0.00  0.00    +0.000 C 
BRANCH   5   6
ATOM      6  N   UNL     1       3.421   4.922  18.596  0.00  0.00    +0.000 N 
ATOM      7  C   UNL     1       3.634   4.153  17.473  0.00  0.00    +0.000 C 
ATOM      8  O   UNL     1       2.714   3.649  16.830  0.00  0.00    +0.000 OA
ATOM      9  H   UNL     1       4.129   5.602  18.842  0.00  0.00    +0.000 HD
BRANCH   7  10
ATOM     10  C   UNL     1       5.118   3.989  17.034  0.00  0.00    +0.000 C 
BRANCH  10  11
ATOM     11  N   UNL     1       5.279   2.788  16.188  0.00  0.00    +0.000 NA
ATOM     12  H   UNL     1       6.259   2.643  15.959  0.00  0.00    +0.000 HD
ATOM     13  H   UNL     1       4.811   2.968  15.296  0.00  0.00    +0.000 HD
ENDBRANCH  10  11
BRANCH  10  14
ATOM     14  C   UNL     1       5.684   5.247  16.342  0.00  0.00    +0.000 C 
BRANCH  14  15
ATOM     15  C   UNL     1       6.688   6.020  17.173  0.00  0.00    +0.000 A 
ATOM     16  C   UNL     1       7.294   5.462  18.309  0.00  0.00    +0.000 A 
ATOM     17  C   UNL     1       8.122   6.229  19.125  0.00  0.00    +0.000 A 
ATOM     18  C   UNL     1       8.382   7.556  18.803  0.00  0.00    +0.000 A 
ATOM     19  C   UNL     1       7.845   8.107  17.642  0.00  0.00    +0.000 A 
ATOM     20  C   UNL     1       7.016   7.337  16.822  0.00  0.00    +0.000 A 
ENDBRANCH  14  15
ENDBRANCH  10  14
ENDBRANCH   7  10
ENDBRANCH   5   6
BRANCH   5  22
ATOM     21  C   UNL     1       2.945   3.262  20.659  0.00  0.00    +0.000 C 
ATOM     22  C   UNL     1       1.723   4.046  20.188  0.00  0.00    +0.000 C 
ATOM     23  C   UNL     1       0.696   3.041  19.654  0.00  0.00    +0.000 C 
ENDBRANCH   5  22
ENDBRANCH   1   5
BRANCH   3  24
ATOM     24  C   UNL     1       1.503   8.902  19.846  0.00  0.00    +0.000 C 
BRANCH  24  25
ATOM     25  C   UNL     1       0.779   8.746  21.224  0.00  0.00    +0.000 C 
ATOM     26  N   UNL     1       1.545   8.949  22.345  0.00  0.00    +0.000 N 
ATOM     27  O   UNL     1      -0.395   8.424  21.407  0.00  0.00    +0.000 OA
ATOM     28  H   UNL     1       2.543   9.090  22.333  0.00  0.00    +0.000 HD
ATOM     29  H   UNL     1       1.082   8.840  23.241  0.00  0.00    +0.000 HD
ENDBRANCH  24  25
BRANCH  24  30
ATOM     30  C   UNL     1       0.569   9.701  18.887  0.00  0.00    +0.000 C 
BRANCH  30  31
ATOM     31  C   UNL     1       0.987  11.136  18.694  0.00  0.00    +0.000 A 
ATOM     32  C   UNL     1       2.228  11.439  18.141  0.00  0.00    +0.000 A 
ATOM     33  C   UNL     1       2.647  12.760  18.074  0.00  0.00    +0.000 A 
ATOM     34  C   UNL     1       1.852  13.783  18.606  0.00  0.00    +0.000 A 
ATOM     35  C   UNL     1       0.608  13.519  19.199  0.00  0.00    +0.000 A 
ATOM     36  C   UNL     1       0.170  12.178  19.152  0.00  0.00    +0.000 A 
BRANCH  35  37
ATOM     37  C   UNL     1      -0.261  14.544  19.960  0.00  0.00    +0.000 C 
ATOM     38  C   UNL     1      -0.525  15.865  19.209  0.00  0.00    +0.000 C 
ATOM     39  C   UNL     1      -1.628  13.931  20.326  0.00  0.00    +0.000 C 
ATOM     40  C   UNL     1       0.459  14.955  21.273  0.00  0.00    +0.000 C 
ENDBRANCH  35  37
BRANCH  34  41
ATOM     41  O   UNL     1       2.337  15.058  18.528  0.00  0.00    +0.000 OA
ATOM     42  H   UNL     1       2.971  15.110  17.795  0.00  0.00    +0.000 HD
ENDBRANCH  34  41
ENDBRANCH  30  31
ENDBRANCH  24  30
ENDBRANCH   3  24
TORSDOF 13
ENDMDL
