MODEL 1
REMARK VINA RESULT:      -8.6      0.000      0.000
REMARK  Name = 
REMARK  7 active torsions:
REMARK  status: ('A' for Active; 'I' for Inactive)
REMARK    1  A    between atoms: C_1  and  O_2
REMARK    2  A    between atoms: O_2  and  C_3
REMARK    3  A    between atoms: C_7  and  N_8
REMARK    4  A    between atoms: N_8  and  C_9
REMARK    5  A    between atoms: C_12  and  N_13
REMARK    6  A    between atoms: C_14  and  C_16
REMARK    7  A    between atoms: C_16  and  N_17
REMARK                            x       y       z     vdW  Elec       q    Type
REMARK                         _______ _______ _______ _____ _____    ______ ____
ROOT
ATOM      1  C   UNL     1       1.856   8.101  19.783  0.00  0.00    +0.000 A 
ATOM      2  C   UNL     1       1.781   8.632  18.496  0.00  0.00    +0.000 A 
ATOM      3  C   UNL     1       0.856   9.628  18.176  0.00  0.00    +0.000 A 
ATOM      4  C   UNL     1      -0.043  10.124  19.122  0.00  0.00    +0.000 A 
ATOM      5  C   UNL     1       0.084   9.672  20.438  0.00  0.00    +0.000 A 
ATOM      6  C   UNL     1       1.020   8.663  20.760  0.00  0.00    +0.000 A 
ENDROOT
BRANCH   4   7
ATOM      7  N   UNL     1      -1.074  11.034  18.771  0.00  0.00    +0.000 N 
ATOM      8  C   UNL     1      -2.242  10.678  18.117  0.00  0.00    +0.000 C 
ATOM      9  O   UNL     1      -2.555   9.527  17.805  0.00  0.00    +0.000 OA
ATOM     10  H   UNL     1      -1.031  11.986  19.123  0.00  0.00    +0.000 HD
BRANCH   8  11
ATOM     11  C   UNL     1      -3.276  11.775  17.870  0.00  0.00    +0.000 C 
BRANCH  11  12
ATOM     12  N   UNL     1      -4.614  11.572  18.483  0.00  0.00    +0.000 NA
ATOM     13  C   UNL     1      -4.772  12.429  19.676  0.00  0.00    +0.000 C 
ATOM     14  C   UNL     1      -6.186  12.327  20.254  0.00  0.00    +0.000 C 
ATOM     15  C   UNL     1      -7.232  12.721  19.221  0.00  0.00    +0.000 C 
ATOM     16  C   UNL     1      -7.053  11.884  17.963  0.00  0.00    +0.000 C 
ATOM     17  C   UNL     1      -5.614  11.966  17.455  0.00  0.00    +0.000 C 
ENDBRANCH  11  12
ENDBRANCH   8  11
ENDBRANCH   4   7
BRANCH   1  18
ATOM     18  N   UNL     1       2.775   7.087  20.134  0.00  0.00    +0.000 N 
ATOM     19  H   UNL     1       3.358   7.333  20.925  0.00  0.00    +0.000 HD
BRANCH  18  24
ATOM     20  C   UNL     1       5.096   4.043  16.597  0.00  0.00    +0.000 A 
ATOM     21  C   UNL     1       5.264   5.384  16.944  0.00  0.00    +0.000 A 
ATOM     22  C   UNL     1       4.514   5.966  17.983  0.00  0.00    +0.000 A 
ATOM     23  C   UNL     1       3.564   5.218  18.692  0.00  0.00    +0.000 A 
ATOM     24  C   UNL     1       2.721   5.741  19.793  0.00  0.00    +0.000 A 
ATOM     25  C   UNL     1       1.872   4.876  20.370  0.00  0.00    +0.000 A 
ATOM     26  C   UNL     1       1.749   3.463  20.013  0.00  0.00    +0.000 A 
ATOM     27  O   UNL     1       0.968   2.728  20.613  0.00  0.00    +0.000 OA
ATOM     28  O   UNL     1       2.542   3.006  18.984  0.00  0.00    +0.000 OA
ATOM     29  C   UNL     1       3.433   3.873  18.330  0.00  0.00    +0.000 A 
ATOM     30  C   UNL     1       4.175   3.281  17.303  0.00  0.00    +0.000 A 
BRANCH  20  32
ATOM     31  C   UNL     1       5.772   4.291  14.336  0.00  0.00    +0.000 C 
ATOM     32  O   UNL     1       5.883   3.592  15.574  0.00  0.00    +0.000 OA
ENDBRANCH  20  32
ENDBRANCH  18  24
ENDBRANCH   1  18
TORSDOF 6
ENDMDL
MODEL 2
REMARK VINA RESULT:      -8.4      3.552      4.630
REMARK  Name = 
REMARK  7 active torsions:
REMARK  status: ('A' for Active; 'I' for Inactive)
REMARK    1  A    between atoms: C_1  and  O_2
REMARK    2  A    between atoms: O_2  and  C_3
REMARK    3  A    between atoms: C_7  and  N_8
REMARK    4  A    between atoms: N_8  and  C_9
REMARK    5  A    between atoms: C_12  and  N_13
REMARK    6  A    between atoms: C_14  and  C_16
REMARK    7  A    between atoms: C_16  and  N_17
REMARK                            x       y       z     vdW  Elec       q    Type
REMARK                         _______ _______ _______ _____ _____    ______ ____
ROOT
ATOM      1  C   UNL     1       2.074   7.452  19.905  0.00  0.00    +0.000 A 
ATOM      2  C   UNL     1       1.334   8.151  20.858  0.00  0.00    +0.000 A 
ATOM      3  C   UNL     1       0.834   9.428  20.593  0.00  0.00    +0.000 A 
ATOM      4  C   UNL     1       1.066  10.067  19.373  0.00  0.00    +0.000 A 
ATOM      5  C   UNL     1       1.723   9.343  18.376  0.00  0.00    +0.000 A 
ATOM      6  C   UNL     1       2.229   8.051  18.646  0.00  0.00    +0.000 A 
ENDROOT
BRANCH   4   7
ATOM      7  N   UNL     1       0.680  11.414  19.148  0.00  0.00    +0.000 N 
ATOM      8  C   UNL     1       1.071  12.482  19.938  0.00  0.00    +0.000 C 
ATOM      9  O   UNL     1       1.840  12.406  20.900  0.00  0.00    +0.000 OA
ATOM     10  H   UNL     1       0.191  11.649  18.289  0.00  0.00    +0.000 HD
BRANCH   8  11
ATOM     11  C   UNL     1       0.614  13.878  19.517  0.00  0.00    +0.000 C 
BRANCH  11  12
ATOM     12  N   UNL     1       1.687  14.865  19.228  0.00  0.00    +0.000 NA
ATOM     13  C   UNL     1       2.574  14.366  18.156  0.00  0.00    +0.000 C 
ATOM     14  C   UNL     1       3.613  15.417  17.758  0.00  0.00    +0.000 C 
ATOM     15  C   UNL     1       2.945  16.702  17.288  0.00  0.00    +0.000 C 
ATOM     16  C   UNL     1       1.987  17.204  18.359  0.00  0.00    +0.000 C 
ATOM     17  C   UNL     1       1.007  16.106  18.771  0.00  0.00    +0.000 C 
ENDBRANCH  11  12
ENDBRANCH   8  11
ENDBRANCH   4   7
BRANCH   1  18
ATOM     18  N   UNL     1       2.600   6.163  20.148  0.00  0.00    +0.000 N 
ATOM     19  H   UNL     1       2.854   6.014  21.118  0.00  0.00    +0.000 HD
BRANCH  18  24
ATOM     20  C   UNL     1       5.313   3.985  16.269  0.00  0.00    +0.000 A 
ATOM     21  C   UNL     1       5.556   5.089  17.087  0.00  0.00    +0.000 A 
ATOM     22  C   UNL     1       4.655   5.452  18.105  0.00  0.00    +0.000 A 
ATOM     23  C   UNL     1       3.477   4.723  18.319  0.00  0.00    +0.000 A 
ATOM     24  C   UNL     1       2.464   5.030  19.356  0.00  0.00    +0.000 A 
ATOM     25  C   UNL     1       1.401   4.213  19.427  0.00  0.00    +0.000 A 
ATOM     26  C   UNL     1       1.196   3.037  18.583  0.00  0.00    +0.000 A 
ATOM     27  O   UNL     1       0.209   2.320  18.732  0.00  0.00    +0.000 OA
ATOM     28  O   UNL     1       2.151   2.778  17.626  0.00  0.00    +0.000 OA
ATOM     29  C   UNL     1       3.274   3.613  17.493  0.00  0.00    +0.000 A 
ATOM     30  C   UNL     1       4.163   3.237  16.481  0.00  0.00    +0.000 A 
BRANCH  20  32
ATOM     31  C   UNL     1       6.927   4.867  14.769  0.00  0.00    +0.000 C 
ATOM     32  O   UNL     1       6.263   3.731  15.318  0.00  0.00    +0.000 OA
ENDBRANCH  20  32
ENDBRANCH  18  24
ENDBRANCH   1  18
TORSDOF 6
ENDMDL
MODEL 3
REMARK VINA RESULT:      -8.3      2.458      2.919
REMARK  Name = 
REMARK  7 active torsions:
REMARK  status: ('A' for Active; 'I' for Inactive)
REMARK    1  A    between atoms: C_1  and  O_2
REMARK    2  A    between atoms: O_2  and  C_3
REMARK    3  A    between atoms: C_7  and  N_8
REMARK    4  A    between atoms: N_8  and  C_9
REMARK    5  A    between atoms: C_12  and  N_13
REMARK    6  A    between atoms: C_14  and  C_16
REMARK    7  A    between atoms: C_16  and  N_17
REMARK                            x       y       z     vdW  Elec       q    Type
REMARK                         _______ _______ _______ _____ _____    ______ ____
ROOT
ATOM      1  C   UNL     1       1.912   7.706  20.112  0.00  0.00    +0.000 A 
ATOM      2  C   UNL     1       1.059   7.691  21.215  0.00  0.00    +0.000 A 
ATOM      3  C   UNL     1       0.083   8.675  21.390  0.00  0.00    +0.000 A 
ATOM      4  C   UNL     1      -0.069   9.724  20.481  0.00  0.00    +0.000 A 
ATOM      5  C   UNL     1       0.713   9.700  19.324  0.00  0.00    +0.000 A 
ATOM      6  C   UNL     1       1.700   8.704  19.149  0.00  0.00    +0.000 A 
ENDROOT
BRANCH   4   7
ATOM      7  N   UNL     1      -0.963  10.800  20.723  0.00  0.00    +0.000 N 
ATOM      8  C   UNL     1      -0.999  11.539  21.894  0.00  0.00    +0.000 C 
ATOM      9  O   UNL     1      -0.230  11.390  22.847  0.00  0.00    +0.000 OA
ATOM     10  H   UNL     1      -1.533  11.148  19.957  0.00  0.00    +0.000 HD
BRANCH   8  11
ATOM     11  C   UNL     1      -1.983  12.705  21.964  0.00  0.00    +0.000 C 
BRANCH  11  12
ATOM     12  N   UNL     1      -3.340  12.393  22.483  0.00  0.00    +0.000 NA
ATOM     13  C   UNL     1      -3.403  12.626  23.941  0.00  0.00    +0.000 C 
ATOM     14  C   UNL     1      -4.823  12.428  24.477  0.00  0.00    +0.000 C 
ATOM     15  C   UNL     1      -5.807  13.361  23.786  0.00  0.00    +0.000 C 
ATOM     16  C   UNL     1      -5.721  13.173  22.278  0.00  0.00    +0.000 C 
ATOM     17  C   UNL     1      -4.279  13.318  21.794  0.00  0.00    +0.000 C 
ENDBRANCH  11  12
ENDBRANCH   8  11
ENDBRANCH   4   7
BRANCH   1  18
ATOM     18  N   UNL     1       2.913   6.729  19.914  0.00  0.00    +0.000 N 
ATOM     19  H   UNL     1       3.580   6.681  20.676  0.00  0.00    +0.000 HD
BRANCH  18  24
ATOM     20  C   UNL     1       5.775   5.091  15.879  0.00  0.00    +0.000 A 
ATOM     21  C   UNL     1       5.921   6.156  16.769  0.00  0.00    +0.000 A 
ATOM     22  C   UNL     1       5.002   6.360  17.815  0.00  0.00    +0.000 A 
ATOM     23  C   UNL     1       3.903   5.507  17.985  0.00  0.00    +0.000 A 
ATOM     24  C   UNL     1       2.878   5.644  19.047  0.00  0.00    +0.000 A 
ATOM     25  C   UNL     1       1.899   4.725  19.067  0.00  0.00    +0.000 A 
ATOM     26  C   UNL     1       1.798   3.594  18.146  0.00  0.00    +0.000 A 
ATOM     27  O   UNL     1       0.886   2.776  18.252  0.00  0.00    +0.000 OA
ATOM     28  O   UNL     1       2.761   3.494  17.168  0.00  0.00    +0.000 OA
ATOM     29  C   UNL     1       3.797   4.441  17.086  0.00  0.00    +0.000 A 
ATOM     30  C   UNL     1       4.705   4.223  16.046  0.00  0.00    +0.000 A 
BRANCH  20  32
ATOM     31  C   UNL     1       6.449   4.113  13.824  0.00  0.00    +0.000 C 
ATOM     32  O   UNL     1       6.733   4.995  14.907  0.00  0.00    +0.000 OA
ENDBRANCH  20  32
ENDBRANCH  18  24
ENDBRANCH   1  18
TORSDOF 6
ENDMDL
MODEL 4
REMARK VINA RESULT:      -8.2      2.381      3.089
REMARK  Name = 
REMARK  7 active torsions:
REMARK  status: ('A' for Active; 'I' for Inactive)
REMARK    1  A    between atoms: C_1  and  O_2
REMARK    2  A    between atoms: O_2  and  C_3
REMARK    3  A    between atoms: C_7  and  N_8
REMARK    4  A    between atoms: N_8  and  C_9
REMARK    5  A    between atoms: C_12  and  N_13
REMARK    6  A    between atoms: C_14  and  C_16
REMARK    7  A    between atoms: C_16  and  N_17
REMARK                            x       y       z     vdW  Elec       q    Type
REMARK                         _______ _______ _______ _____ _____    ______ ____
ROOT
ATOM      1  C   UNL     1       2.984   6.734  18.730  0.00  0.00    +0.000 A 
ATOM      2  C   UNL     1       2.997   7.700  17.726  0.00  0.00    +0.000 A 
ATOM      3  C   UNL     1       2.259   8.881  17.845  0.00  0.00    +0.000 A 
ATOM      4  C   UNL     1       1.464   9.136  18.964  0.00  0.00    +0.000 A 
ATOM      5  C   UNL     1       1.515   8.222  20.019  0.00  0.00    +0.000 A 
ATOM      6  C   UNL     1       2.261   7.029  19.896  0.00  0.00    +0.000 A 
ENDROOT
BRANCH   4   7
ATOM      7  N   UNL     1       0.606  10.265  19.032  0.00  0.00    +0.000 N 
ATOM      8  C   UNL     1      -0.521  10.439  18.245  0.00  0.00    +0.000 C 
ATOM      9  O   UNL     1      -0.947   9.618  17.430  0.00  0.00    +0.000 OA
ATOM     10  H   UNL     1       0.737  10.938  19.781  0.00  0.00    +0.000 HD
BRANCH   8  11
ATOM     11  C   UNL     1      -1.368  11.686  18.490  0.00  0.00    +0.000 C 
BRANCH  11  12
ATOM     12  N   UNL     1      -2.793  11.458  18.841  0.00  0.00    +0.000 NA
ATOM     13  C   UNL     1      -3.269  12.500  19.775  0.00  0.00    +0.000 C 
ATOM     14  C   UNL     1      -4.767  12.356  20.057  0.00  0.00    +0.000 C 
ATOM     15  C   UNL     1      -5.579  12.437  18.771  0.00  0.00    +0.000 C 
ATOM     16  C   UNL     1      -5.069  11.404  17.776  0.00  0.00    +0.000 C 
ATOM     17  C   UNL     1      -3.561  11.544  17.571  0.00  0.00    +0.000 C 
ENDBRANCH  11  12
ENDBRANCH   8  11
ENDBRANCH   4   7
BRANCH   1  18
ATOM     18  N   UNL     1       3.713   5.527  18.632  0.00  0.00    +0.000 N 
ATOM     19  H   UNL     1       3.123   4.714  18.502  0.00  0.00    +0.000 HD
BRANCH  18  24
ATOM     20  C   UNL     1       6.470   4.404  14.355  0.00  0.00    +0.000 A 
ATOM     21  C   UNL     1       5.109   4.629  14.569  0.00  0.00    +0.000 A 
ATOM     22  C   UNL     1       4.618   4.954  15.847  0.00  0.00    +0.000 A 
ATOM     23  C   UNL     1       5.481   5.048  16.948  0.00  0.00    +0.000 A 
ATOM     24  C   UNL     1       5.061   5.375  18.331  0.00  0.00    +0.000 A 
ATOM     25  C   UNL     1       6.028   5.436  19.260  0.00  0.00    +0.000 A 
ATOM     26  C   UNL     1       7.452   5.238  18.996  0.00  0.00    +0.000 A 
ATOM     27  O   UNL     1       8.280   5.343  19.899  0.00  0.00    +0.000 OA
ATOM     28  O   UNL     1       7.813   4.932  17.704  0.00  0.00    +0.000 OA
ATOM     29  C   UNL     1       6.840   4.834  16.694  0.00  0.00    +0.000 A 
ATOM     30  C   UNL     1       7.342   4.515  15.429  0.00  0.00    +0.000 A 
BRANCH  20  32
ATOM     31  C   UNL     1       5.908   3.290  12.336  0.00  0.00    +0.000 C 
ATOM     32  O   UNL     1       6.825   4.098  13.070  0.00  0.00    +0.000 OA
ENDBRANCH  20  32
ENDBRANCH  18  24
ENDBRANCH   1  18
TORSDOF 6
ENDMDL
MODEL 5
REMARK VINA RESULT:      -8.2      3.060      3.842
REMARK  Name = 
REMARK  7 active torsions:
REMARK  status: ('A' for Active; 'I' for Inactive)
REMARK    1  A    between atoms: C_1  and  O_2
REMARK    2  A    between atoms: O_2  and  C_3
REMARK    3  A    between atoms: C_7  and  N_8
REMARK    4  A    between atoms: N_8  and  C_9
REMARK    5  A    between atoms: C_12  and  N_13
REMARK    6  A    between atoms: C_14  and  C_16
REMARK    7  A    between atoms: C_16  and  N_17
REMARK                            x       y       z     vdW  Elec       q    Type
REMARK                         _______ _______ _______ _____ _____    ______ ____
ROOT
ATOM      1  C   UNL     1       2.968   6.616  18.825  0.00  0.00    +0.000 A 
ATOM      2  C   UNL     1       2.915   7.648  17.889  0.00  0.00    +0.000 A 
ATOM      3  C   UNL     1       2.173   8.807  18.128  0.00  0.00    +0.000 A 
ATOM      4  C   UNL     1       1.440   8.976  19.304  0.00  0.00    +0.000 A 
ATOM      5  C   UNL     1       1.559   7.995  20.291  0.00  0.00    +0.000 A 
ATOM      6  C   UNL     1       2.309   6.823  20.046  0.00  0.00    +0.000 A 
ENDROOT
BRANCH   4   7
ATOM      7  N   UNL     1       0.576  10.086  19.495  0.00  0.00    +0.000 N 
ATOM      8  C   UNL     1       0.587  10.903  20.614  0.00  0.00    +0.000 C 
ATOM      9  O   UNL     1       1.379  10.802  21.554  0.00  0.00    +0.000 OA
ATOM     10  H   UNL     1      -0.009  10.393  18.723  0.00  0.00    +0.000 HD
BRANCH   8  11
ATOM     11  C   UNL     1      -0.370  12.093  20.630  0.00  0.00    +0.000 C 
BRANCH  11  12
ATOM     12  N   UNL     1      -1.676  11.880  21.305  0.00  0.00    +0.000 NA
ATOM     13  C   UNL     1      -1.585  12.243  22.735  0.00  0.00    +0.000 C 
ATOM     14  C   UNL     1      -2.949  12.147  23.423  0.00  0.00    +0.000 C 
ATOM     15  C   UNL     1      -3.971  13.052  22.749  0.00  0.00    +0.000 C 
ATOM     16  C   UNL     1      -4.042  12.728  21.264  0.00  0.00    +0.000 C 
ATOM     17  C   UNL     1      -2.653  12.775  20.629  0.00  0.00    +0.000 C 
ENDBRANCH  11  12
ENDBRANCH   8  11
ENDBRANCH   4   7
BRANCH   1  18
ATOM     18  N   UNL     1       3.703   5.429  18.606  0.00  0.00    +0.000 N 
ATOM     19  H   UNL     1       3.117   4.633  18.384  0.00  0.00    +0.000 HD
BRANCH  18  24
ATOM     20  C   UNL     1       6.481   4.378  14.325  0.00  0.00    +0.000 A 
ATOM     21  C   UNL     1       5.115   4.565  14.541  0.00  0.00    +0.000 A 
ATOM     22  C   UNL     1       4.619   4.878  15.820  0.00  0.00    +0.000 A 
ATOM     23  C   UNL     1       5.480   4.997  16.919  0.00  0.00    +0.000 A 
ATOM     24  C   UNL     1       5.054   5.314  18.302  0.00  0.00    +0.000 A 
ATOM     25  C   UNL     1       6.020   5.403  19.230  0.00  0.00    +0.000 A 
ATOM     26  C   UNL     1       7.449   5.244  18.963  0.00  0.00    +0.000 A 
ATOM     27  O   UNL     1       8.275   5.372  19.864  0.00  0.00    +0.000 OA
ATOM     28  O   UNL     1       7.816   4.946  17.670  0.00  0.00    +0.000 OA
ATOM     29  C   UNL     1       6.844   4.820  16.663  0.00  0.00    +0.000 A 
ATOM     30  C   UNL     1       7.352   4.513  15.397  0.00  0.00    +0.000 A 
BRANCH  20  32
ATOM     31  C   UNL     1       5.921   3.290  12.290  0.00  0.00    +0.000 C 
ATOM     32  O   UNL     1       6.843   4.080  13.039  0.00  0.00    +0.000 OA
ENDBRANCH  20  32
ENDBRANCH  18  24
ENDBRANCH   1  18
TORSDOF 6
ENDMDL
MODEL 6
REMARK VINA RESULT:      -8.2      2.952      3.897
REMARK  Name = 
REMARK  7 active torsions:
REMARK  status: ('A' for Active; 'I' for Inactive)
REMARK    1  A    between atoms: C_1  and  O_2
REMARK    2  A    between atoms: O_2  and  C_3
REMARK    3  A    between atoms: C_7  and  N_8
REMARK    4  A    between atoms: N_8  and  C_9
REMARK    5  A    between atoms: C_12  and  N_13
REMARK    6  A    between atoms: C_14  and  C_16
REMARK    7  A    between atoms: C_16  and  N_17
REMARK                            x       y       z     vdW  Elec       q    Type
REMARK                         _______ _______ _______ _____ _____    ______ ____
ROOT
ATOM      1  C   UNL     1       2.992   6.520  18.872  0.00  0.00    +0.000 A 
ATOM      2  C   UNL     1       2.251   6.712  20.038  0.00  0.00    +0.000 A 
ATOM      3  C   UNL     1       1.526   7.887  20.250  0.00  0.00    +0.000 A 
ATOM      4  C   UNL     1       1.523   8.924  19.316  0.00  0.00    +0.000 A 
ATOM      5  C   UNL     1       2.182   8.708  18.103  0.00  0.00    +0.000 A 
ATOM      6  C   UNL     1       2.916   7.520  17.891  0.00  0.00    +0.000 A 
ENDROOT
BRANCH   4   7
ATOM      7  N   UNL     1       0.903  10.172  19.584  0.00  0.00    +0.000 N 
ATOM      8  C   UNL     1      -0.313  10.572  19.053  0.00  0.00    +0.000 C 
ATOM      9  O   UNL     1      -1.029   9.878  18.327  0.00  0.00    +0.000 OA
ATOM     10  H   UNL     1       1.295  10.772  20.305  0.00  0.00    +0.000 HD
BRANCH   8  11
ATOM     11  C   UNL     1      -0.867  11.925  19.496  0.00  0.00    +0.000 C 
BRANCH  11  12
ATOM     12  N   UNL     1      -1.545  11.960  20.817  0.00  0.00    +0.000 NA
ATOM     13  C   UNL     1      -0.688  12.622  21.822  0.00  0.00    +0.000 C 
ATOM     14  C   UNL     1      -1.414  12.778  23.160  0.00  0.00    +0.000 C 
ATOM     15  C   UNL     1      -2.697  13.583  23.000  0.00  0.00    +0.000 C 
ATOM     16  C   UNL     1      -3.572  12.944  21.931  0.00  0.00    +0.000 C 
ATOM     17  C   UNL     1      -2.791  12.751  20.632  0.00  0.00    +0.000 C 
ENDBRANCH  11  12
ENDBRANCH   8  11
ENDBRANCH   4   7
BRANCH   1  18
ATOM     18  N   UNL     1       3.742   5.346  18.635  0.00  0.00    +0.000 N 
ATOM     19  H   UNL     1       3.166   4.541  18.421  0.00  0.00    +0.000 HD
BRANCH  18  24
ATOM     20  C   UNL     1       6.459   4.335  14.304  0.00  0.00    +0.000 A 
ATOM     21  C   UNL     1       5.094   4.498  14.546  0.00  0.00    +0.000 A 
ATOM     22  C   UNL     1       4.616   4.805  15.833  0.00  0.00    +0.000 A 
ATOM     23  C   UNL     1       5.495   4.942  16.916  0.00  0.00    +0.000 A 
ATOM     24  C   UNL     1       5.089   5.255  18.306  0.00  0.00    +0.000 A 
ATOM     25  C   UNL     1       6.071   5.363  19.215  0.00  0.00    +0.000 A 
ATOM     26  C   UNL     1       7.497   5.230  18.922  0.00  0.00    +0.000 A 
ATOM     27  O   UNL     1       8.338   5.375  19.807  0.00  0.00    +0.000 OA
ATOM     28  O   UNL     1       7.845   4.936  17.623  0.00  0.00    +0.000 OA
ATOM     29  C   UNL     1       6.857   4.789  16.634  0.00  0.00    +0.000 A 
ATOM     30  C   UNL     1       7.347   4.489  15.360  0.00  0.00    +0.000 A 
BRANCH  20  32
ATOM     31  C   UNL     1       5.844   3.303  12.257  0.00  0.00    +0.000 C 
ATOM     32  O   UNL     1       6.801   4.042  13.013  0.00  0.00    +0.000 OA
ENDBRANCH  20  32
ENDBRANCH  18  24
ENDBRANCH   1  18
TORSDOF 6
ENDMDL
MODEL 7
REMARK VINA RESULT:      -8.2      1.987     10.429
REMARK  Name = 
REMARK  7 active torsions:
REMARK  status: ('A' for Active; 'I' for Inactive)
REMARK    1  A    between atoms: C_1  and  O_2
REMARK    2  A    between atoms: O_2  and  C_3
REMARK    3  A    between atoms: C_7  and  N_8
REMARK    4  A    between atoms: N_8  and  C_9
REMARK    5  A    between atoms: C_12  and  N_13
REMARK    6  A    between atoms: C_14  and  C_16
REMARK    7  A    between atoms: C_16  and  N_17
REMARK                            x       y       z     vdW  Elec       q    Type
REMARK                         _______ _______ _______ _____ _____    ______ ____
ROOT
ATOM      1  C   UNL     1       0.842   9.609  18.957  0.00  0.00    +0.000 A 
ATOM      2  C   UNL     1       1.597   9.052  17.925  0.00  0.00    +0.000 A 
ATOM      3  C   UNL     1       2.389   7.921  18.136  0.00  0.00    +0.000 A 
ATOM      4  C   UNL     1       2.474   7.310  19.388  0.00  0.00    +0.000 A 
ATOM      5  C   UNL     1       1.652   7.797  20.406  0.00  0.00    +0.000 A 
ATOM      6  C   UNL     1       0.851   8.942  20.191  0.00  0.00    +0.000 A 
ENDROOT
BRANCH   4   7
ATOM      7  N   UNL     1       3.380   6.247  19.643  0.00  0.00    +0.000 N 
ATOM      8  C   UNL     1       3.200   4.944  19.208  0.00  0.00    +0.000 C 
ATOM      9  O   UNL     1       2.263   4.557  18.506  0.00  0.00    +0.000 OA
ATOM     10  H   UNL     1       4.282   6.459  20.059  0.00  0.00    +0.000 HD
BRANCH   8  11
ATOM     11  C   UNL     1       4.305   3.936  19.519  0.00  0.00    +0.000 C 
BRANCH  11  12
ATOM     12  N   UNL     1       5.582   4.108  18.779  0.00  0.00    +0.000 NA
ATOM     13  C   UNL     1       5.323   4.321  17.340  0.00  0.00    +0.000 C 
ATOM     14  C   UNL     1       6.615   4.621  16.578  0.00  0.00    +0.000 C 
ATOM     15  C   UNL     1       7.313   5.852  17.140  0.00  0.00    +0.000 C 
ATOM     16  C   UNL     1       7.544   5.673  18.634  0.00  0.00    +0.000 C 
ATOM     17  C   UNL     1       6.240   5.315  19.347  0.00  0.00    +0.000 C 
ENDBRANCH  11  12
ENDBRANCH   8  11
ENDBRANCH   4   7
BRANCH   1  18
ATOM     18  N   UNL     1       0.039  10.757  18.775  0.00  0.00    +0.000 N 
ATOM     19  H   UNL     1       0.573  11.618  18.760  0.00  0.00    +0.000 HD
BRANCH  18  24
ATOM     20  C   UNL     1      -4.465  12.890  20.299  0.00  0.00    +0.000 A 
ATOM     21  C   UNL     1      -3.170  12.945  20.818  0.00  0.00    +0.000 A 
ATOM     22  C   UNL     1      -2.102  12.289  20.180  0.00  0.00    +0.000 A 
ATOM     23  C   UNL     1      -2.309  11.547  19.009  0.00  0.00    +0.000 A 
ATOM     24  C   UNL     1      -1.253  10.815  18.270  0.00  0.00    +0.000 A 
ATOM     25  C   UNL     1      -1.631  10.167  17.156  0.00  0.00    +0.000 A 
ATOM     26  C   UNL     1      -2.988  10.163  16.613  0.00  0.00    +0.000 A 
ATOM     27  O   UNL     1      -3.246   9.569  15.568  0.00  0.00    +0.000 OA
ATOM     28  O   UNL     1      -3.949  10.848  17.322  0.00  0.00    +0.000 OA
ATOM     29  C   UNL     1      -3.614  11.526  18.507  0.00  0.00    +0.000 A 
ATOM     30  C   UNL     1      -4.684  12.178  19.128  0.00  0.00    +0.000 A 
BRANCH  20  32
ATOM     31  C   UNL     1      -6.340  12.776  21.750  0.00  0.00    +0.000 C 
ATOM     32  O   UNL     1      -5.417  13.570  21.007  0.00  0.00    +0.000 OA
ENDBRANCH  20  32
ENDBRANCH  18  24
ENDBRANCH   1  18
TORSDOF 6
ENDMDL
MODEL 8
REMARK VINA RESULT:      -8.1      2.719      3.055
REMARK  Name = 
REMARK  7 active torsions:
REMARK  status: ('A' for Active; 'I' for Inactive)
REMARK    1  A    between atoms: C_1  and  O_2
REMARK    2  A    between atoms: O_2  and  C_3
REMARK    3  A    between atoms: C_7  and  N_8
REMARK    4  A    between atoms: N_8  and  C_9
REMARK    5  A    between atoms: C_12  and  N_13
REMARK    6  A    between atoms: C_14  and  C_16
REMARK    7  A    between atoms: C_16  and  N_17
REMARK                            x       y       z     vdW  Elec       q    Type
REMARK                         _______ _______ _______ _____ _____    ______ ____
ROOT
ATOM      1  C   UNL     1       1.898   7.652  20.109  0.00  0.00    +0.000 A 
ATOM      2  C   UNL     1       1.046   7.879  21.188  0.00  0.00    +0.000 A 
ATOM      3  C   UNL     1       0.179   8.975  21.209  0.00  0.00    +0.000 A 
ATOM      4  C   UNL     1       0.142   9.898  20.163  0.00  0.00    +0.000 A 
ATOM      5  C   UNL     1       0.920   9.632  19.034  0.00  0.00    +0.000 A 
ATOM      6  C   UNL     1       1.796   8.523  19.014  0.00  0.00    +0.000 A 
ENDROOT
BRANCH   4   7
ATOM      7  N   UNL     1      -0.633  11.085  20.238  0.00  0.00    +0.000 N 
ATOM      8  C   UNL     1      -0.288  12.198  20.988  0.00  0.00    +0.000 C 
ATOM      9  O   UNL     1       0.754  12.317  21.637  0.00  0.00    +0.000 OA
ATOM     10  H   UNL     1      -1.428  11.194  19.616  0.00  0.00    +0.000 HD
BRANCH   8  11
ATOM     11  C   UNL     1      -1.206  13.416  20.908  0.00  0.00    +0.000 C 
BRANCH  11  12
ATOM     12  N   UNL     1      -2.079  13.663  22.084  0.00  0.00    +0.000 NA
ATOM     13  C   UNL     1      -3.271  14.442  21.689  0.00  0.00    +0.000 C 
ATOM     14  C   UNL     1      -4.245  14.604  22.859  0.00  0.00    +0.000 C 
ATOM     15  C   UNL     1      -4.694  13.251  23.393  0.00  0.00    +0.000 C 
ATOM     16  C   UNL     1      -3.477  12.414  23.758  0.00  0.00    +0.000 C 
ATOM     17  C   UNL     1      -2.504  12.328  22.583  0.00  0.00    +0.000 C 
ENDBRANCH  11  12
ENDBRANCH   8  11
ENDBRANCH   4   7
BRANCH   1  18
ATOM     18  N   UNL     1       2.791   6.557  20.064  0.00  0.00    +0.000 N 
ATOM     19  H   UNL     1       3.261   6.390  20.946  0.00  0.00    +0.000 HD
BRANCH  18  24
ATOM     20  C   UNL     1       5.616   5.405  15.840  0.00  0.00    +0.000 A 
ATOM     21  C   UNL     1       5.704   6.430  16.784  0.00  0.00    +0.000 A 
ATOM     22  C   UNL     1       4.815   6.493  17.873  0.00  0.00    +0.000 A 
ATOM     23  C   UNL     1       3.803   5.536  18.034  0.00  0.00    +0.000 A 
ATOM     24  C   UNL     1       2.815   5.522  19.138  0.00  0.00    +0.000 A 
ATOM     25  C   UNL     1       1.924   4.518  19.142  0.00  0.00    +0.000 A 
ATOM     26  C   UNL     1       1.885   3.434  18.162  0.00  0.00    +0.000 A 
ATOM     27  O   UNL     1       1.054   2.533  18.253  0.00  0.00    +0.000 OA
ATOM     28  O   UNL     1       2.812   3.475  17.145  0.00  0.00    +0.000 OA
ATOM     29  C   UNL     1       3.755   4.515  17.079  0.00  0.00    +0.000 A 
ATOM     30  C   UNL     1       4.635   4.436  15.996  0.00  0.00    +0.000 A 
BRANCH  20  32
ATOM     31  C   UNL     1       6.607   4.301  13.987  0.00  0.00    +0.000 C 
ATOM     32  O   UNL     1       6.538   5.450  14.830  0.00  0.00    +0.000 OA
ENDBRANCH  20  32
ENDBRANCH  18  24
ENDBRANCH   1  18
TORSDOF 6
ENDMDL
MODEL 9
REMARK VINA RESULT:      -8.1      0.866      1.231
REMARK  Name = 
REMARK  7 active torsions:
REMARK  status: ('A' for Active; 'I' for Inactive)
REMARK    1  A    between atoms: C_1  and  O_2
REMARK    2  A    between atoms: O_2  and  C_3
REMARK    3  A    between atoms: C_7  and  N_8
REMARK    4  A    between atoms: N_8  and  C_9
REMARK    5  A    between atoms: C_12  and  N_13
REMARK    6  A    between atoms: C_14  and  C_16
REMARK    7  A    between atoms: C_16  and  N_17
REMARK                            x       y       z     vdW  Elec       q    Type
REMARK                         _______ _______ _______ _____ _____    ______ ____
ROOT
ATOM      1  C   UNL     1       1.285   8.542  19.659  0.00  0.00    +0.000 A 
ATOM      2  C   UNL     1       1.322   8.930  18.320  0.00  0.00    +0.000 A 
ATOM      3  C   UNL     1       0.374   9.811  17.795  0.00  0.00    +0.000 A 
ATOM      4  C   UNL     1      -0.659  10.328  18.579  0.00  0.00    +0.000 A 
ATOM      5  C   UNL     1      -0.654  10.025  19.942  0.00  0.00    +0.000 A 
ATOM      6  C   UNL     1       0.305   9.132  20.472  0.00  0.00    +0.000 A 
ENDROOT
BRANCH   4   7
ATOM      7  N   UNL     1      -1.702  11.112  18.021  0.00  0.00    +0.000 N 
ATOM      8  C   UNL     1      -2.932  10.611  17.626  0.00  0.00    +0.000 C 
ATOM      9  O   UNL     1      -3.292   9.438  17.755  0.00  0.00    +0.000 OA
ATOM     10  H   UNL     1      -1.610  12.124  18.019  0.00  0.00    +0.000 HD
BRANCH   8  11
ATOM     11  C   UNL     1      -3.965  11.606  17.101  0.00  0.00    +0.000 C 
BRANCH  11  12
ATOM     12  N   UNL     1      -4.992  12.065  18.071  0.00  0.00    +0.000 NA
ATOM     13  C   UNL     1      -6.119  11.110  18.123  0.00  0.00    +0.000 C 
ATOM     14  C   UNL     1      -7.132  11.498  19.202  0.00  0.00    +0.000 C 
ATOM     15  C   UNL     1      -6.476  11.561  20.575  0.00  0.00    +0.000 C 
ATOM     16  C   UNL     1      -5.280  12.502  20.530  0.00  0.00    +0.000 C 
ATOM     17  C   UNL     1      -4.326  12.115  19.400  0.00  0.00    +0.000 C 
ENDBRANCH  11  12
ENDBRANCH   8  11
ENDBRANCH   4   7
BRANCH   1  18
ATOM     18  N   UNL     1       2.225   7.646  20.216  0.00  0.00    +0.000 N 
ATOM     19  H   UNL     1       2.668   8.003  21.054  0.00  0.00    +0.000 HD
BRANCH  18  24
ATOM     20  C   UNL     1       4.605   4.624  16.700  0.00  0.00    +0.000 A 
ATOM     21  C   UNL     1       4.615   6.002  16.922  0.00  0.00    +0.000 A 
ATOM     22  C   UNL     1       3.893   6.572  17.986  0.00  0.00    +0.000 A 
ATOM     23  C   UNL     1       3.128   5.773  18.848  0.00  0.00    +0.000 A 
ATOM     24  C   UNL     1       2.328   6.279  19.988  0.00  0.00    +0.000 A 
ATOM     25  C   UNL     1       1.667   5.366  20.718  0.00  0.00    +0.000 A 
ATOM     26  C   UNL     1       1.711   3.923  20.487  0.00  0.00    +0.000 A 
ATOM     27  O   UNL     1       1.101   3.149  21.221  0.00  0.00    +0.000 OA
ATOM     28  O   UNL     1       2.460   3.482  19.418  0.00  0.00    +0.000 OA
ATOM     29  C   UNL     1       3.154   4.396  18.607  0.00  0.00    +0.000 A 
ATOM     30  C   UNL     1       3.872   3.815  17.557  0.00  0.00    +0.000 A 
BRANCH  20  32
ATOM     31  C   UNL     1       6.744   4.481  15.680  0.00  0.00    +0.000 C 
ATOM     32  O   UNL     1       5.348   4.189  15.637  0.00  0.00    +0.000 OA
ENDBRANCH  20  32
ENDBRANCH  18  24
ENDBRANCH   1  18
TORSDOF 6
ENDMDL
