MODEL 1
REMARK VINA RESULT:      -6.0      0.000      0.000
REMARK  Name = 
REMARK  4 active torsions:
REMARK  status: ('A' for Active; 'I' for Inactive)
REMARK    1  A    between atoms: C_1  and  C_2
REMARK    2  A    between atoms: C_2  and  C_3
REMARK    3  A    between atoms: C_2  and  C_4
REMARK    4  A    between atoms: C_4  and  N_5
REMARK                            x       y       z     vdW  Elec       q    Type
REMARK                         _______ _______ _______ _____ _____    ______ ____
ROOT
ATOM      1  N   UNL     1      -1.136  10.997  18.315  0.00  0.00    +0.000 NA
ATOM      2  C   UNL     1      -0.050   9.954  18.243  0.00  0.00    +0.000 C 
ATOM      3  C   UNL     1       0.841   9.817  19.495  0.00  0.00    +0.000 C 
ATOM      4  O   UNL     1       0.033   9.742  20.667  0.00  0.00    +0.000 OA
ATOM      5  C   UNL     1      -0.825  10.900  20.840  0.00  0.00    +0.000 C 
ATOM      6  C   UNL     1      -0.330  11.585  22.120  0.00  0.00    +0.000 C 
ATOM      7  C   UNL     1      -0.873  12.961  22.479  0.00  0.00    +0.000 C 
ATOM      8  N   UNL     1      -2.198  13.236  21.961  0.00  0.00    +0.000 N 
ATOM      9  C   UNL     1      -3.378  13.030  22.647  0.00  0.00    +0.000 A 
ATOM     10  C   UNL     1      -3.476  12.255  23.805  0.00  0.00    +0.000 A 
ATOM     11  N   UNL     1      -4.613  12.089  24.537  0.00  0.00    +0.000 NA
ATOM     12  C   UNL     1      -5.703  12.720  24.059  0.00  0.00    +0.000 A 
ATOM     13  C   UNL     1      -5.654  13.449  22.894  0.00  0.00    +0.000 A 
ATOM     14  N   UNL     1      -4.516  13.603  22.176  0.00  0.00    +0.000 NA
ATOM     15  C   UNL     1      -2.227  13.866  20.652  0.00  0.00    +0.000 C 
ATOM     16  C   UNL     1      -2.080  12.795  19.614  0.00  0.00    +0.000 C 
ATOM     17  C   UNL     1      -0.933  11.804  19.566  0.00  0.00    +0.000 C 
ENDROOT
BRANCH   1  18
ATOM     18  C   UNL     1      -2.486  10.362  18.152  0.00  0.00    +0.000 C 
BRANCH  18  20
ATOM     19  C   UNL     1      -4.530  11.523  16.868  0.00  0.00    +0.000 C 
ATOM     20  C   UNL     1      -3.457  10.432  16.865  0.00  0.00    +0.000 C 
ATOM     21  C   UNL     1      -2.747  10.443  15.493  0.00  0.00    +0.000 C 
ENDBRANCH  18  20
ENDBRANCH   1  18
TORSDOF 2
ENDMDL
MODEL 2
REMARK VINA RESULT:      -5.9      2.797      4.386
REMARK  Name = 
REMARK  4 active torsions:
REMARK  status: ('A' for Active; 'I' for Inactive)
REMARK    1  A    between atoms: C_1  and  C_2
REMARK    2  A    between atoms: C_2  and  C_3
REMARK    3  A    between atoms: C_2  and  C_4
REMARK    4  A    between atoms: C_4  and  N_5
REMARK                            x       y       z     vdW  Elec       q    Type
REMARK                         _______ _______ _______ _____ _____    ______ ____
ROOT
ATOM      1  N   UNL     1      -4.106  11.527  17.302  0.00  0.00    +0.000 NA
ATOM      2  C   UNL     1      -4.203  10.865  15.951  0.00  0.00    +0.000 C 
ATOM      3  C   UNL     1      -2.890  10.287  15.385  0.00  0.00    +0.000 C 
ATOM      4  O   UNL     1      -2.231   9.503  16.376  0.00  0.00    +0.000 OA
ATOM      5  C   UNL     1      -1.920  10.253  17.579  0.00  0.00    +0.000 C 
ATOM      6  C   UNL     1      -0.388  10.292  17.649  0.00  0.00    +0.000 C 
ATOM      7  C   UNL     1       0.282  11.192  18.678  0.00  0.00    +0.000 C 
ATOM      8  N   UNL     1      -0.516  11.448  19.860  0.00  0.00    +0.000 N 
ATOM      9  C   UNL     1      -0.452  10.727  21.035  0.00  0.00    +0.000 A 
ATOM     10  C   UNL     1       0.165   9.478  21.145  0.00  0.00    +0.000 A 
ATOM     11  N   UNL     1       0.299   8.775  22.304  0.00  0.00    +0.000 NA
ATOM     12  C   UNL     1      -0.235   9.357  23.395  0.00  0.00    +0.000 A 
ATOM     13  C   UNL     1      -0.894  10.562  23.314  0.00  0.00    +0.000 A 
ATOM     14  N   UNL     1      -1.021  11.247  22.153  0.00  0.00    +0.000 NA
ATOM     15  C   UNL     1      -1.364  12.626  19.784  0.00  0.00    +0.000 C 
ATOM     16  C   UNL     1      -2.621  12.251  19.057  0.00  0.00    +0.000 C 
ATOM     17  C   UNL     1      -2.654  11.633  17.672  0.00  0.00    +0.000 C 
ENDROOT
BRANCH   1  18
ATOM     18  C   UNL     1      -4.990  10.829  18.294  0.00  0.00    +0.000 C 
BRANCH  18  20
ATOM     19  C   UNL     1      -7.255  10.111  19.532  0.00  0.00    +0.000 C 
ATOM     20  C   UNL     1      -6.600  10.888  18.388  0.00  0.00    +0.000 C 
ATOM     21  C   UNL     1      -7.221  12.302  18.336  0.00  0.00    +0.000 C 
ENDBRANCH  18  20
ENDBRANCH   1  18
TORSDOF 2
ENDMDL
MODEL 3
REMARK VINA RESULT:      -5.7      0.733      1.051
REMARK  Name = 
REMARK  4 active torsions:
REMARK  status: ('A' for Active; 'I' for Inactive)
REMARK    1  A    between atoms: C_1  and  C_2
REMARK    2  A    between atoms: C_2  and  C_3
REMARK    3  A    between atoms: C_2  and  C_4
REMARK    4  A    between atoms: C_4  and  N_5
REMARK                            x       y       z     vdW  Elec       q    Type
REMARK                         _______ _______ _______ _____ _____    ______ ____
ROOT
ATOM      1  N   UNL     1      -1.147  11.898  18.683  0.00  0.00    +0.000 NA
ATOM      2  C   UNL     1      -0.065  10.856  18.552  0.00  0.00    +0.000 C 
ATOM      3  C   UNL     1       0.700  10.508  19.846  0.00  0.00    +0.000 C 
ATOM      4  O   UNL     1      -0.218  10.268  20.909  0.00  0.00    +0.000 OA
ATOM      5  C   UNL     1      -1.082  11.402  21.179  0.00  0.00    +0.000 C 
ATOM      6  C   UNL     1      -0.710  11.869  22.592  0.00  0.00    +0.000 C 
ATOM      7  C   UNL     1      -1.277  13.184  23.109  0.00  0.00    +0.000 C 
ATOM      8  N   UNL     1      -2.545  13.562  22.518  0.00  0.00    +0.000 N 
ATOM      9  C   UNL     1      -3.787  13.276  23.048  0.00  0.00    +0.000 A 
ATOM     10  C   UNL     1      -4.000  12.333  24.057  0.00  0.00    +0.000 A 
ATOM     11  N   UNL     1      -5.203  12.078  24.642  0.00  0.00    +0.000 NA
ATOM     12  C   UNL     1      -6.239  12.797  24.168  0.00  0.00    +0.000 A 
ATOM     13  C   UNL     1      -6.074  13.698  23.141  0.00  0.00    +0.000 A 
ATOM     14  N   UNL     1      -4.871  13.939  22.568  0.00  0.00    +0.000 NA
ATOM     15  C   UNL     1      -2.444  14.390  21.328  0.00  0.00    +0.000 C 
ATOM     16  C   UNL     1      -2.204  13.490  20.152  0.00  0.00    +0.000 C 
ATOM     17  C   UNL     1      -1.062  12.495  20.059  0.00  0.00    +0.000 C 
ENDROOT
BRANCH   1  18
ATOM     18  C   UNL     1      -2.478  11.322  18.296  0.00  0.00    +0.000 C 
BRANCH  18  20
ATOM     19  C   UNL     1      -2.896   9.908  16.059  0.00  0.00    +0.000 C 
ATOM     20  C   UNL     1      -3.112  11.221  16.815  0.00  0.00    +0.000 C 
ATOM     21  C   UNL     1      -4.600  11.618  16.696  0.00  0.00    +0.000 C 
ENDBRANCH  18  20
ENDBRANCH   1  18
TORSDOF 2
ENDMDL
MODEL 4
REMARK VINA RESULT:      -5.6      1.017      1.093
REMARK  Name = 
REMARK  4 active torsions:
REMARK  status: ('A' for Active; 'I' for Inactive)
REMARK    1  A    between atoms: C_1  and  C_2
REMARK    2  A    between atoms: C_2  and  C_3
REMARK    3  A    between atoms: C_2  and  C_4
REMARK    4  A    between atoms: C_4  and  N_5
REMARK                            x       y       z     vdW  Elec       q    Type
REMARK                         _______ _______ _______ _____ _____    ______ ____
ROOT
ATOM      1  N   UNL     1      -0.371  11.905  18.600  0.00  0.00    +0.000 NA
ATOM      2  C   UNL     1       0.416  10.621  18.519  0.00  0.00    +0.000 C 
ATOM      3  C   UNL     1       0.757   9.951  19.866  0.00  0.00    +0.000 C 
ATOM      4  O   UNL     1      -0.407   9.875  20.686  0.00  0.00    +0.000 OA
ATOM      5  C   UNL     1      -0.996  11.173  20.956  0.00  0.00    +0.000 C 
ATOM      6  C   UNL     1      -0.846  11.380  22.468  0.00  0.00    +0.000 C 
ATOM      7  C   UNL     1      -1.166  12.744  23.063  0.00  0.00    +0.000 C 
ATOM      8  N   UNL     1      -2.132  13.515  22.306  0.00  0.00    +0.000 N 
ATOM      9  C   UNL     1      -3.492  13.536  22.539  0.00  0.00    +0.000 A 
ATOM     10  C   UNL     1      -4.156  12.597  23.332  0.00  0.00    +0.000 A 
ATOM     11  N   UNL     1      -5.485  12.631  23.631  0.00  0.00    +0.000 NA
ATOM     12  C   UNL     1      -6.173  13.652  23.084  0.00  0.00    +0.000 A 
ATOM     13  C   UNL     1      -5.560  14.566  22.257  0.00  0.00    +0.000 A 
ATOM     14  N   UNL     1      -4.238  14.517  21.968  0.00  0.00    +0.000 NA
ATOM     15  C   UNL     1      -1.561  14.393  21.298  0.00  0.00    +0.000 C 
ATOM     16  C   UNL     1      -1.296  13.578  20.066  0.00  0.00    +0.000 C 
ATOM     17  C   UNL     1      -0.450  12.320  20.041  0.00  0.00    +0.000 C 
ENDROOT
BRANCH   1  18
ATOM     18  C   UNL     1      -1.682  11.762  17.881  0.00  0.00    +0.000 C 
BRANCH  18  20
ATOM     19  C   UNL     1      -3.297   9.626  17.818  0.00  0.00    +0.000 C 
ATOM     20  C   UNL     1      -2.238  10.465  17.099  0.00  0.00    +0.000 C 
ATOM     21  C   UNL     1      -2.707  10.710  15.648  0.00  0.00    +0.000 C 
ENDBRANCH  18  20
ENDBRANCH   1  18
TORSDOF 2
ENDMDL
MODEL 5
REMARK VINA RESULT:      -5.4      8.037      9.991
REMARK  Name = 
REMARK  4 active torsions:
REMARK  status: ('A' for Active; 'I' for Inactive)
REMARK    1  A    between atoms: C_1  and  C_2
REMARK    2  A    between atoms: C_2  and  C_3
REMARK    3  A    between atoms: C_2  and  C_4
REMARK    4  A    between atoms: C_4  and  N_5
REMARK                            x       y       z     vdW  Elec       q    Type
REMARK                         _______ _______ _______ _____ _____    ______ ____
ROOT
ATOM      1  N   UNL     1       9.173  13.480  17.898  0.00  0.00    +0.000 NA
ATOM      2  C   UNL     1      10.491  13.492  18.630  0.00  0.00    +0.000 C 
ATOM      3  C   UNL     1      10.562  14.394  19.880  0.00  0.00    +0.000 C 
ATOM      4  O   UNL     1       9.429  14.166  20.715  0.00  0.00    +0.000 OA
ATOM      5  C   UNL     1       8.168  14.416  20.041  0.00  0.00    +0.000 C 
ATOM      6  C   UNL     1       7.545  15.609  20.776  0.00  0.00    +0.000 C 
ATOM      7  C   UNL     1       6.309  16.275  20.187  0.00  0.00    +0.000 C 
ATOM      8  N   UNL     1       5.490  15.402  19.370  0.00  0.00    +0.000 N 
ATOM      9  C   UNL     1       4.400  14.684  19.818  0.00  0.00    +0.000 A 
ATOM     10  C   UNL     1       4.121  14.463  21.169  0.00  0.00    +0.000 A 
ATOM     11  N   UNL     1       3.020  13.815  21.641  0.00  0.00    +0.000 NA
ATOM     12  C   UNL     1       2.176  13.351  20.698  0.00  0.00    +0.000 A 
ATOM     13  C   UNL     1       2.447  13.506  19.358  0.00  0.00    +0.000 A 
ATOM     14  N   UNL     1       3.547  14.152  18.905  0.00  0.00    +0.000 NA
ATOM     15  C   UNL     1       5.824  15.394  17.955  0.00  0.00    +0.000 C 
ATOM     16  C   UNL     1       6.972  14.451  17.752  0.00  0.00    +0.000 C 
ATOM     17  C   UNL     1       8.296  14.548  18.486  0.00  0.00    +0.000 C 
ENDROOT
BRANCH   1  18
ATOM     18  C   UNL     1       8.599  12.093  17.875  0.00  0.00    +0.000 C 
BRANCH  18  20
ATOM     19  C   UNL     1       9.398  10.797  20.079  0.00  0.00    +0.000 C 
ATOM     20  C   UNL     1       9.208  10.765  18.561  0.00  0.00    +0.000 C 
ATOM     21  C   UNL     1       8.516   9.438  18.179  0.00  0.00    +0.000 C 
ENDBRANCH  18  20
ENDBRANCH   1  18
TORSDOF 2
ENDMDL
MODEL 6
REMARK VINA RESULT:      -5.4      9.747     11.660
REMARK  Name = 
REMARK  4 active torsions:
REMARK  status: ('A' for Active; 'I' for Inactive)
REMARK    1  A    between atoms: C_1  and  C_2
REMARK    2  A    between atoms: C_2  and  C_3
REMARK    3  A    between atoms: C_2  and  C_4
REMARK    4  A    between atoms: C_4  and  N_5
REMARK                            x       y       z     vdW  Elec       q    Type
REMARK                         _______ _______ _______ _____ _____    ______ ____
ROOT
ATOM      1  N   UNL     1       9.914  13.079  17.461  0.00  0.00    +0.000 NA
ATOM      2  C   UNL     1      11.336  12.578  17.482  0.00  0.00    +0.000 C 
ATOM      3  C   UNL     1      12.297  13.310  18.441  0.00  0.00    +0.000 C 
ATOM      4  O   UNL     1      11.703  13.438  19.729  0.00  0.00    +0.000 OA
ATOM      5  C   UNL     1      10.443  14.159  19.705  0.00  0.00    +0.000 C 
ATOM      6  C   UNL     1      10.695  15.442  20.507  0.00  0.00    +0.000 C 
ATOM      7  C   UNL     1       9.638  16.538  20.497  0.00  0.00    +0.000 C 
ATOM      8  N   UNL     1       8.287  16.066  20.266  0.00  0.00    +0.000 N 
ATOM      9  C   UNL     1       7.376  15.746  21.252  0.00  0.00    +0.000 A 
ATOM     10  C   UNL     1       7.722  15.546  22.590  0.00  0.00    +0.000 A 
ATOM     11  N   UNL     1       6.836  15.295  23.594  0.00  0.00    +0.000 NA
ATOM     12  C   UNL     1       5.545  15.222  23.218  0.00  0.00    +0.000 A 
ATOM     13  C   UNL     1       5.175  15.363  21.901  0.00  0.00    +0.000 A 
ATOM     14  N   UNL     1       6.068  15.611  20.914  0.00  0.00    +0.000 NA
ATOM     15  C   UNL     1       7.879  16.037  18.871  0.00  0.00    +0.000 C 
ATOM     16  C   UNL     1       8.391  14.768  18.260  0.00  0.00    +0.000 C 
ATOM     17  C   UNL     1       9.848  14.344  18.269  0.00  0.00    +0.000 C 
ENDROOT
BRANCH   1  18
ATOM     18  C   UNL     1       8.968  11.987  17.868  0.00  0.00    +0.000 C 
BRANCH  18  20
ATOM     19  C   UNL     1       9.485  10.586  20.092  0.00  0.00    +0.000 C 
ATOM     20  C   UNL     1       9.333  10.580  18.569  0.00  0.00    +0.000 C 
ATOM     21  C   UNL     1       8.444   9.382  18.168  0.00  0.00    +0.000 C 
ENDBRANCH  18  20
ENDBRANCH   1  18
TORSDOF 2
ENDMDL
MODEL 7
REMARK VINA RESULT:      -5.4      6.682     10.572
REMARK  Name = 
REMARK  4 active torsions:
REMARK  status: ('A' for Active; 'I' for Inactive)
REMARK    1  A    between atoms: C_1  and  C_2
REMARK    2  A    between atoms: C_2  and  C_3
REMARK    3  A    between atoms: C_2  and  C_4
REMARK    4  A    between atoms: C_4  and  N_5
REMARK                            x       y       z     vdW  Elec       q    Type
REMARK                         _______ _______ _______ _____ _____    ______ ____
ROOT
ATOM      1  N   UNL     1       1.442   5.042  19.865  0.00  0.00    +0.000 NA
ATOM      2  C   UNL     1       1.050   3.879  20.741  0.00  0.00    +0.000 C 
ATOM      3  C   UNL     1       1.930   2.618  20.624  0.00  0.00    +0.000 C 
ATOM      4  O   UNL     1       3.309   2.972  20.702  0.00  0.00    +0.000 OA
ATOM      5  C   UNL     1       3.713   3.909  19.670  0.00  0.00    +0.000 C 
ATOM      6  C   UNL     1       4.718   3.145  18.799  0.00  0.00    +0.000 C 
ATOM      7  C   UNL     1       5.181   3.766  17.488  0.00  0.00    +0.000 C 
ATOM      8  N   UNL     1       5.134   5.214  17.462  0.00  0.00    +0.000 N 
ATOM      9  C   UNL     1       6.187   6.051  17.770  0.00  0.00    +0.000 A 
ATOM     10  C   UNL     1       7.342   5.630  18.434  0.00  0.00    +0.000 A 
ATOM     11  N   UNL     1       8.422   6.418  18.692  0.00  0.00    +0.000 NA
ATOM     12  C   UNL     1       8.316   7.695  18.276  0.00  0.00    +0.000 A 
ATOM     13  C   UNL     1       7.173   8.156  17.665  0.00  0.00    +0.000 A 
ATOM     14  N   UNL     1       6.107   7.360  17.417  0.00  0.00    +0.000 NA
ATOM     15  C   UNL     1       3.886   5.777  16.972  0.00  0.00    +0.000 C 
ATOM     16  C   UNL     1       2.907   5.800  18.107  0.00  0.00    +0.000 C 
ATOM     17  C   UNL     1       2.514   4.580  18.919  0.00  0.00    +0.000 C 
ENDROOT
BRANCH   1  18
ATOM     18  C   UNL     1       1.774   6.242  20.703  0.00  0.00    +0.000 C 
BRANCH  18  20
ATOM     19  C   UNL     1       1.097   8.520  21.940  0.00  0.00    +0.000 C 
ATOM     20  C   UNL     1       1.087   7.702  20.647  0.00  0.00    +0.000 C 
ATOM     21  C   UNL     1       1.545   8.611  19.485  0.00  0.00    +0.000 C 
ENDBRANCH  18  20
ENDBRANCH   1  18
TORSDOF 2
ENDMDL
MODEL 8
REMARK VINA RESULT:      -5.4      2.745      5.043
REMARK  Name = 
REMARK  4 active torsions:
REMARK  status: ('A' for Active; 'I' for Inactive)
REMARK    1  A    between atoms: C_1  and  C_2
REMARK    2  A    between atoms: C_2  and  C_3
REMARK    3  A    between atoms: C_2  and  C_4
REMARK    4  A    between atoms: C_4  and  N_5
REMARK                            x       y       z     vdW  Elec       q    Type
REMARK                         _______ _______ _______ _____ _____    ______ ____
ROOT
ATOM      1  N   UNL     1      -5.667  12.191  18.956  0.00  0.00    +0.000 NA
ATOM      2  C   UNL     1      -6.089  11.954  17.529  0.00  0.00    +0.000 C 
ATOM      3  C   UNL     1      -4.951  11.878  16.490  0.00  0.00    +0.000 C 
ATOM      4  O   UNL     1      -3.924  11.003  16.950  0.00  0.00    +0.000 OA
ATOM      5  C   UNL     1      -3.357  11.412  18.221  0.00  0.00    +0.000 C 
ATOM      6  C   UNL     1      -1.897  11.769  17.918  0.00  0.00    +0.000 C 
ATOM      7  C   UNL     1      -1.063  12.449  18.995  0.00  0.00    +0.000 C 
ATOM      8  N   UNL     1      -1.485  12.159  20.351  0.00  0.00    +0.000 N 
ATOM      9  C   UNL     1      -0.971  11.155  21.147  0.00  0.00    +0.000 A 
ATOM     10  C   UNL     1      -0.195  10.101  20.658  0.00  0.00    +0.000 A 
ATOM     11  N   UNL     1       0.378   9.134  21.429  0.00  0.00    +0.000 NA
ATOM     12  C   UNL     1       0.136   9.232  22.750  0.00  0.00    +0.000 A 
ATOM     13  C   UNL     1      -0.665  10.228  23.259  0.00  0.00    +0.000 A 
ATOM     14  N   UNL     1      -1.229  11.181  22.479  0.00  0.00    +0.000 NA
ATOM     15  C   UNL     1      -2.458  13.087  20.903  0.00  0.00    +0.000 C 
ATOM     16  C   UNL     1      -3.819  12.674  20.427  0.00  0.00    +0.000 C 
ATOM     17  C   UNL     1      -4.197  12.502  18.968  0.00  0.00    +0.000 C 
ENDROOT
BRANCH   1  18
ATOM     18  C   UNL     1      -6.106  11.051  19.829  0.00  0.00    +0.000 C 
BRANCH  18  20
ATOM     19  C   UNL     1      -7.913   9.462  21.007  0.00  0.00    +0.000 C 
ATOM     20  C   UNL     1      -7.522  10.880  20.584  0.00  0.00    +0.000 C 
ATOM     21  C   UNL     1      -7.763  11.833  21.776  0.00  0.00    +0.000 C 
ENDBRANCH  18  20
ENDBRANCH   1  18
TORSDOF 2
ENDMDL
MODEL 9
REMARK VINA RESULT:      -5.3      7.298     11.227
REMARK  Name = 
REMARK  4 active torsions:
REMARK  status: ('A' for Active; 'I' for Inactive)
REMARK    1  A    between atoms: C_1  and  C_2
REMARK    2  A    between atoms: C_2  and  C_3
REMARK    3  A    between atoms: C_2  and  C_4
REMARK    4  A    between atoms: C_4  and  N_5
REMARK                            x       y       z     vdW  Elec       q    Type
REMARK                         _______ _______ _______ _____ _____    ______ ____
ROOT
ATOM      1  N   UNL     1       1.351   4.276  20.582  0.00  0.00    +0.000 NA
ATOM      2  C   UNL     1       1.313   3.444  21.839  0.00  0.00    +0.000 C 
ATOM      3  C   UNL     1       2.118   2.129  21.804  0.00  0.00    +0.000 C 
ATOM      4  O   UNL     1       3.429   2.369  21.299  0.00  0.00    +0.000 OA
ATOM      5  C   UNL     1       3.428   2.940  19.966  0.00  0.00    +0.000 C 
ATOM      6  C   UNL     1       4.077   1.879  19.068  0.00  0.00    +0.000 C 
ATOM      7  C   UNL     1       4.038   2.064  17.558  0.00  0.00    +0.000 C 
ATOM      8  N   UNL     1       3.959   3.446  17.126  0.00  0.00    +0.000 N 
ATOM      9  C   UNL     1       5.038   4.240  16.797  0.00  0.00    +0.000 A 
ATOM     10  C   UNL     1       6.360   3.923  17.120  0.00  0.00    +0.000 A 
ATOM     11  N   UNL     1       7.449   4.654  16.751  0.00  0.00    +0.000 NA
ATOM     12  C   UNL     1       7.181   5.768  16.042  0.00  0.00    +0.000 A 
ATOM     13  C   UNL     1       5.888   6.137  15.750  0.00  0.00    +0.000 A 
ATOM     14  N   UNL     1       4.816   5.399  16.126  0.00  0.00    +0.000 NA
ATOM     15  C   UNL     1       2.609   3.956  16.949  0.00  0.00    +0.000 C 
ATOM     16  C   UNL     1       2.091   4.380  18.290  0.00  0.00    +0.000 C 
ATOM     17  C   UNL     1       2.031   3.476  19.507  0.00  0.00    +0.000 C 
ENDROOT
BRANCH   1  18
ATOM     18  C   UNL     1       1.936   5.629  20.866  0.00  0.00    +0.000 C 
BRANCH  18  20
ATOM     19  C   UNL     1       1.124   8.126  21.399  0.00  0.00    +0.000 C 
ATOM     20  C   UNL     1       1.406   7.060  20.339  0.00  0.00    +0.000 C 
ATOM     21  C   UNL     1       2.235   7.702  19.204  0.00  0.00    +0.000 C 
ENDBRANCH  18  20
ENDBRANCH   1  18
TORSDOF 2
ENDMDL
