MODEL 1
REMARK VINA RESULT:      -7.7      0.000      0.000
REMARK  Name = 
REMARK  9 active torsions:
REMARK  status: ('A' for Active; 'I' for Inactive)
REMARK    1  A    between atoms: C_1  and  O_2
REMARK    2  A    between atoms: O_2  and  C_3
REMARK    3  A    between atoms: C_5  and  C_6
REMARK    4  A    between atoms: C_6  and  N_7
REMARK    5  A    between atoms: N_7  and  C_8
REMARK    6  A    between atoms: C_8  and  C_9
REMARK    7  A    between atoms: C_17  and  O_18
REMARK    8  A    between atoms: O_18  and  C_19
REMARK    9  A    between atoms: C_19  and  C_20
REMARK                            x       y       z     vdW  Elec       q    Type
REMARK                         _______ _______ _______ _____ _____    ______ ____
ROOT
ATOM      1  C   UNL     1       2.249   4.682  20.285  0.00  0.00    +0.000 A 
ATOM      2  C   UNL     1       2.927   3.923  19.321  0.00  0.00    +0.000 A 
ATOM      3  C   UNL     1       3.395   4.468  18.126  0.00  0.00    +0.000 A 
ATOM      4  C   UNL     1       3.205   5.827  17.880  0.00  0.00    +0.000 A 
ATOM      5  C   UNL     1       2.548   6.624  18.815  0.00  0.00    +0.000 A 
ATOM      6  C   UNL     1       2.044   6.094  20.018  0.00  0.00    +0.000 A 
ENDROOT
BRANCH   1   8
ATOM      7  C   UNL     1       1.543   2.607  21.648  0.00  0.00    +0.000 C 
ATOM      8  O   UNL     1       1.908   3.905  21.364  0.00  0.00    +0.000 OA
ENDBRANCH   1   8
BRANCH   3   9
ATOM      9  C   UNL     1       4.095   3.592  17.121  0.00  0.00    +0.000 C 
BRANCH   9  10
ATOM     10  N   UNL     1       4.783   4.419  16.129  0.00  0.00    +0.000 NA
ATOM     11  H   UNL     1       4.587   5.427  16.341  0.00  0.00    +0.000 HD
BRANCH  10  12
ATOM     12  C   UNL     1       6.231   4.204  16.189  0.00  0.00    +0.000 C 
BRANCH  12  13
ATOM     13  C   UNL     1       6.867   5.279  17.019  0.00  0.00    +0.000 A 
ATOM     14  C   UNL     1       7.385   4.979  18.292  0.00  0.00    +0.000 A 
ATOM     15  C   UNL     1       7.984   5.993  19.036  0.00  0.00    +0.000 A 
ATOM     16  C   UNL     1       8.064   7.284  18.518  0.00  0.00    +0.000 A 
ATOM     17  C   UNL     1       7.540   7.548  17.253  0.00  0.00    +0.000 A 
ATOM     18  N   UNL     1       6.955   6.543  16.535  0.00  0.00    +0.000 NA
ENDBRANCH  12  13
ENDBRANCH  10  12
ENDBRANCH   9  10
ENDBRANCH   3   9
BRANCH   6  19
ATOM     19  O   UNL     1       1.404   7.007  20.804  0.00  0.00    +0.000 OA
BRANCH  19  20
ATOM     20  C   UNL     1       1.807   8.289  21.036  0.00  0.00    +0.000 C 
BRANCH  20  21
ATOM     21  C   UNL     1       0.826   9.350  20.624  0.00  0.00    +0.000 A 
ATOM     22  C   UNL     1       0.675   9.776  19.293  0.00  0.00    +0.000 A 
ATOM     23  C   UNL     1      -0.262  10.770  18.979  0.00  0.00    +0.000 A 
ATOM     24  C   UNL     1      -1.055  11.333  19.984  0.00  0.00    +0.000 A 
ATOM     25 CL   UNL     1      -2.238  12.568  19.593  0.00  0.00    +0.000 Cl
ATOM     26  C   UNL     1      -0.912  10.911  21.306  0.00  0.00    +0.000 A 
ATOM     27  C   UNL     1       0.026   9.936  21.630  0.00  0.00    +0.000 A 
ATOM     28 CL   UNL     1       0.156   9.446  23.324  0.00  0.00    +0.000 Cl
ENDBRANCH  20  21
ENDBRANCH  19  20
ENDBRANCH   6  19
TORSDOF 8
ENDMDL
MODEL 2
REMARK VINA RESULT:      -7.6      1.397      1.942
REMARK  Name = 
REMARK  9 active torsions:
REMARK  status: ('A' for Active; 'I' for Inactive)
REMARK    1  A    between atoms: C_1  and  O_2
REMARK    2  A    between atoms: O_2  and  C_3
REMARK    3  A    between atoms: C_5  and  C_6
REMARK    4  A    between atoms: C_6  and  N_7
REMARK    5  A    between atoms: N_7  and  C_8
REMARK    6  A    between atoms: C_8  and  C_9
REMARK    7  A    between atoms: C_17  and  O_18
REMARK    8  A    between atoms: O_18  and  C_19
REMARK    9  A    between atoms: C_19  and  C_20
REMARK                            x       y       z     vdW  Elec       q    Type
REMARK                         _______ _______ _______ _____ _____    ______ ____
ROOT
ATOM      1  C   UNL     1       2.255   4.907  20.239  0.00  0.00    +0.000 A 
ATOM      2  C   UNL     1       2.793   4.093  19.232  0.00  0.00    +0.000 A 
ATOM      3  C   UNL     1       3.221   4.596  18.005  0.00  0.00    +0.000 A 
ATOM      4  C   UNL     1       3.134   5.966  17.765  0.00  0.00    +0.000 A 
ATOM      5  C   UNL     1       2.616   6.817  18.740  0.00  0.00    +0.000 A 
ATOM      6  C   UNL     1       2.155   6.332  19.979  0.00  0.00    +0.000 A 
ENDROOT
BRANCH   1   8
ATOM      7  C   UNL     1       1.454   2.906  21.658  0.00  0.00    +0.000 C 
ATOM      8  O   UNL     1       1.924   4.161  21.342  0.00  0.00    +0.000 OA
ENDBRANCH   1   8
BRANCH   3   9
ATOM      9  C   UNL     1       3.769   3.663  16.957  0.00  0.00    +0.000 C 
BRANCH   9  10
ATOM     10  N   UNL     1       5.153   3.309  17.277  0.00  0.00    +0.000 NA
ATOM     11  H   UNL     1       5.280   2.281  17.118  0.00  0.00    +0.000 HD
BRANCH  10  12
ATOM     12  C   UNL     1       6.086   4.034  16.411  0.00  0.00    +0.000 C 
BRANCH  12  13
ATOM     13  C   UNL     1       6.799   5.087  17.208  0.00  0.00    +0.000 A 
ATOM     14  C   UNL     1       6.795   6.426  16.778  0.00  0.00    +0.000 A 
ATOM     15  C   UNL     1       7.453   7.385  17.544  0.00  0.00    +0.000 A 
ATOM     16  C   UNL     1       8.103   7.014  18.719  0.00  0.00    +0.000 A 
ATOM     17  C   UNL     1       8.087   5.678  19.117  0.00  0.00    +0.000 A 
ATOM     18  N   UNL     1       7.439   4.748  18.355  0.00  0.00    +0.000 NA
ENDBRANCH  12  13
ENDBRANCH  10  12
ENDBRANCH   9  10
ENDBRANCH   3   9
BRANCH   6  19
ATOM     19  O   UNL     1       1.655   7.297  20.804  0.00  0.00    +0.000 OA
BRANCH  19  20
ATOM     20  C   UNL     1       0.337   7.527  21.062  0.00  0.00    +0.000 C 
BRANCH  20  21
ATOM     21  C   UNL     1       0.009   8.925  21.507  0.00  0.00    +0.000 A 
ATOM     22  C   UNL     1      -0.360   9.240  22.826  0.00  0.00    +0.000 A 
ATOM     23  C   UNL     1      -0.650  10.567  23.173  0.00  0.00    +0.000 A 
ATOM     24  C   UNL     1      -0.565  11.581  22.214  0.00  0.00    +0.000 A 
ATOM     25 CL   UNL     1      -0.915  13.244  22.647  0.00  0.00    +0.000 Cl
ATOM     26  C   UNL     1      -0.196  11.275  20.904  0.00  0.00    +0.000 A 
ATOM     27  C   UNL     1       0.080   9.958  20.546  0.00  0.00    +0.000 A 
ATOM     28 CL   UNL     1       0.543   9.638  18.870  0.00  0.00    +0.000 Cl
ENDBRANCH  20  21
ENDBRANCH  19  20
ENDBRANCH   6  19
TORSDOF 8
ENDMDL
MODEL 3
REMARK VINA RESULT:      -7.5      1.332      1.764
REMARK  Name = 
REMARK  9 active torsions:
REMARK  status: ('A' for Active; 'I' for Inactive)
REMARK    1  A    between atoms: C_1  and  O_2
REMARK    2  A    between atoms: O_2  and  C_3
REMARK    3  A    between atoms: C_5  and  C_6
REMARK    4  A    between atoms: C_6  and  N_7
REMARK    5  A    between atoms: N_7  and  C_8
REMARK    6  A    between atoms: C_8  and  C_9
REMARK    7  A    between atoms: C_17  and  O_18
REMARK    8  A    between atoms: O_18  and  C_19
REMARK    9  A    between atoms: C_19  and  C_20
REMARK                            x       y       z     vdW  Elec       q    Type
REMARK                         _______ _______ _______ _____ _____    ______ ____
ROOT
ATOM      1  C   UNL     1       2.398   5.000  19.596  0.00  0.00    +0.000 A 
ATOM      2  C   UNL     1       3.015   4.300  18.550  0.00  0.00    +0.000 A 
ATOM      3  C   UNL     1       3.655   4.940  17.489  0.00  0.00    +0.000 A 
ATOM      4  C   UNL     1       3.707   6.333  17.470  0.00  0.00    +0.000 A 
ATOM      5  C   UNL     1       3.118   7.071  18.494  0.00  0.00    +0.000 A 
ATOM      6  C   UNL     1       2.445   6.451  19.564  0.00  0.00    +0.000 A 
ENDROOT
BRANCH   1   8
ATOM      7  C   UNL     1       2.193   3.492  21.680  0.00  0.00    +0.000 C 
ATOM      8  O   UNL     1       1.854   4.131  20.508  0.00  0.00    +0.000 OA
ENDBRANCH   1   8
BRANCH   3   9
ATOM      9  C   UNL     1       4.278   4.129  16.384  0.00  0.00    +0.000 C 
BRANCH   9  10
ATOM     10  N   UNL     1       5.546   3.557  16.838  0.00  0.00    +0.000 NA
ATOM     11  H   UNL     1       5.559   2.537  16.595  0.00  0.00    +0.000 HD
BRANCH  10  12
ATOM     12  C   UNL     1       6.677   4.209  16.173  0.00  0.00    +0.000 C 
BRANCH  12  13
ATOM     13  C   UNL     1       7.177   5.341  17.021  0.00  0.00    +0.000 A 
ATOM     14  C   UNL     1       7.612   5.103  18.337  0.00  0.00    +0.000 A 
ATOM     15  C   UNL     1       8.085   6.169  19.097  0.00  0.00    +0.000 A 
ATOM     16  C   UNL     1       8.123   7.451  18.554  0.00  0.00    +0.000 A 
ATOM     17  C   UNL     1       7.684   7.653  17.245  0.00  0.00    +0.000 A 
ATOM     18  N   UNL     1       7.222   6.597  16.512  0.00  0.00    +0.000 NA
ENDBRANCH  12  13
ENDBRANCH  10  12
ENDBRANCH   9  10
ENDBRANCH   3   9
BRANCH   6  19
ATOM     19  O   UNL     1       1.904   7.323  20.463  0.00  0.00    +0.000 OA
BRANCH  19  20
ATOM     20  C   UNL     1       0.581   7.443  20.767  0.00  0.00    +0.000 C 
BRANCH  20  21
ATOM     21  C   UNL     1       0.172   8.779  21.319  0.00  0.00    +0.000 A 
ATOM     22  C   UNL     1      -0.100   8.992  22.681  0.00  0.00    +0.000 A 
ATOM     23  C   UNL     1      -0.474  10.267  23.129  0.00  0.00    +0.000 A 
ATOM     24  C   UNL     1      -0.569  11.331  22.226  0.00  0.00    +0.000 A 
ATOM     25 CL   UNL     1      -1.024  12.930  22.784  0.00  0.00    +0.000 Cl
ATOM     26  C   UNL     1      -0.296  11.126  20.873  0.00  0.00    +0.000 A 
ATOM     27  C   UNL     1       0.062   9.861  20.418  0.00  0.00    +0.000 A 
ATOM     28 CL   UNL     1       0.395   9.669  18.691  0.00  0.00    +0.000 Cl
ENDBRANCH  20  21
ENDBRANCH  19  20
ENDBRANCH   6  19
TORSDOF 8
ENDMDL
MODEL 4
REMARK VINA RESULT:      -7.4      1.622      2.501
REMARK  Name = 
REMARK  9 active torsions:
REMARK  status: ('A' for Active; 'I' for Inactive)
REMARK    1  A    between atoms: C_1  and  O_2
REMARK    2  A    between atoms: O_2  and  C_3
REMARK    3  A    between atoms: C_5  and  C_6
REMARK    4  A    between atoms: C_6  and  N_7
REMARK    5  A    between atoms: N_7  and  C_8
REMARK    6  A    between atoms: C_8  and  C_9
REMARK    7  A    between atoms: C_17  and  O_18
REMARK    8  A    between atoms: O_18  and  C_19
REMARK    9  A    between atoms: C_19  and  C_20
REMARK                            x       y       z     vdW  Elec       q    Type
REMARK                         _______ _______ _______ _____ _____    ______ ____
ROOT
ATOM      1  C   UNL     1       1.987   4.693  20.022  0.00  0.00    +0.000 A 
ATOM      2  C   UNL     1       2.853   4.086  19.103  0.00  0.00    +0.000 A 
ATOM      3  C   UNL     1       3.662   4.817  18.233  0.00  0.00    +0.000 A 
ATOM      4  C   UNL     1       3.631   6.209  18.287  0.00  0.00    +0.000 A 
ATOM      5  C   UNL     1       2.794   6.858  19.193  0.00  0.00    +0.000 A 
ATOM      6  C   UNL     1       1.950   6.144  20.066  0.00  0.00    +0.000 A 
ENDROOT
BRANCH   1   8
ATOM      7  C   UNL     1       1.577   2.761  21.684  0.00  0.00    +0.000 C 
ATOM      8  O   UNL     1       1.318   3.747  20.757  0.00  0.00    +0.000 OA
ENDBRANCH   1   8
BRANCH   3   9
ATOM      9  C   UNL     1       4.554   4.102  17.253  0.00  0.00    +0.000 C 
BRANCH   9  10
ATOM     10  N   UNL     1       5.220   5.072  16.383  0.00  0.00    +0.000 NA
ATOM     11  H   UNL     1       5.220   6.005  16.862  0.00  0.00    +0.000 HD
BRANCH  10  12
ATOM     12  C   UNL     1       6.609   4.677  16.133  0.00  0.00    +0.000 C 
BRANCH  12  13
ATOM     13  C   UNL     1       6.857   4.615  14.655  0.00  0.00    +0.000 A 
ATOM     14  C   UNL     1       6.114   3.737  13.847  0.00  0.00    +0.000 A 
ATOM     15  C   UNL     1       6.354   3.710  12.476  0.00  0.00    +0.000 A 
ATOM     16  C   UNL     1       7.321   4.546  11.920  0.00  0.00    +0.000 A 
ATOM     17  C   UNL     1       8.041   5.405  12.750  0.00  0.00    +0.000 A 
ATOM     18  N   UNL     1       7.794   5.419  14.094  0.00  0.00    +0.000 NA
ENDBRANCH  12  13
ENDBRANCH  10  12
ENDBRANCH   9  10
ENDBRANCH   3   9
BRANCH   6  19
ATOM     19  O   UNL     1       1.178   6.935  20.866  0.00  0.00    +0.000 OA
BRANCH  19  20
ATOM     20  C   UNL     1       1.521   8.162  21.350  0.00  0.00    +0.000 C 
BRANCH  20  21
ATOM     21  C   UNL     1       0.647   9.295  20.892  0.00  0.00    +0.000 A 
ATOM     22  C   UNL     1       0.562   9.700  19.549  0.00  0.00    +0.000 A 
ATOM     23  C   UNL     1      -0.277  10.765  19.191  0.00  0.00    +0.000 A 
ATOM     24  C   UNL     1      -1.038  11.421  20.164  0.00  0.00    +0.000 A 
ATOM     25 CL   UNL     1      -2.098  12.745  19.717  0.00  0.00    +0.000 Cl
ATOM     26  C   UNL     1      -0.960  11.021  21.498  0.00  0.00    +0.000 A 
ATOM     27  C   UNL     1      -0.120   9.974  21.865  0.00  0.00    +0.000 A 
ATOM     28 CL   UNL     1      -0.069   9.518  23.573  0.00  0.00    +0.000 Cl
ENDBRANCH  20  21
ENDBRANCH  19  20
ENDBRANCH   6  19
TORSDOF 8
ENDMDL
MODEL 5
REMARK VINA RESULT:      -7.4      2.009      3.005
REMARK  Name = 
REMARK  9 active torsions:
REMARK  status: ('A' for Active; 'I' for Inactive)
REMARK    1  A    between atoms: C_1  and  O_2
REMARK    2  A    between atoms: O_2  and  C_3
REMARK    3  A    between atoms: C_5  and  C_6
REMARK    4  A    between atoms: C_6  and  N_7
REMARK    5  A    between atoms: N_7  and  C_8
REMARK    6  A    between atoms: C_8  and  C_9
REMARK    7  A    between atoms: C_17  and  O_18
REMARK    8  A    between atoms: O_18  and  C_19
REMARK    9  A    between atoms: C_19  and  C_20
REMARK                            x       y       z     vdW  Elec       q    Type
REMARK                         _______ _______ _______ _____ _____    ______ ____
ROOT
ATOM      1  C   UNL     1       2.274   5.483  20.057  0.00  0.00    +0.000 A 
ATOM      2  C   UNL     1       3.115   4.823  19.150  0.00  0.00    +0.000 A 
ATOM      3  C   UNL     1       3.675   5.458  18.042  0.00  0.00    +0.000 A 
ATOM      4  C   UNL     1       3.409   6.810  17.829  0.00  0.00    +0.000 A 
ATOM      5  C   UNL     1       2.589   7.511  18.710  0.00  0.00    +0.000 A 
ATOM      6  C   UNL     1       1.992   6.889  19.823  0.00  0.00    +0.000 A 
ENDROOT
BRANCH   1   8
ATOM      7  C   UNL     1       2.137   3.364  21.524  0.00  0.00    +0.000 C 
ATOM      8  O   UNL     1       1.872   4.632  21.055  0.00  0.00    +0.000 OA
ENDBRANCH   1   8
BRANCH   3   9
ATOM      9  C   UNL     1       4.551   4.684  17.093  0.00  0.00    +0.000 C 
BRANCH   9  10
ATOM     10  N   UNL     1       5.606   5.552  16.566  0.00  0.00    +0.000 NA
ATOM     11  H   UNL     1       5.854   6.259  17.300  0.00  0.00    +0.000 HD
BRANCH  10  12
ATOM     12  C   UNL     1       6.804   4.774  16.243  0.00  0.00    +0.000 C 
BRANCH  12  13
ATOM     13  C   UNL     1       6.950   4.667  14.754  0.00  0.00    +0.000 A 
ATOM     14  C   UNL     1       6.179   3.739  14.030  0.00  0.00    +0.000 A 
ATOM     15  C   UNL     1       6.324   3.670  12.647  0.00  0.00    +0.000 A 
ATOM     16  C   UNL     1       7.221   4.514  11.996  0.00  0.00    +0.000 A 
ATOM     17  C   UNL     1       7.970   5.423  12.743  0.00  0.00    +0.000 A 
ATOM     18  N   UNL     1       7.818   5.478  14.100  0.00  0.00    +0.000 NA
ENDBRANCH  12  13
ENDBRANCH  10  12
ENDBRANCH   9  10
ENDBRANCH   3   9
BRANCH   6  19
ATOM     19  O   UNL     1       1.197   7.714  20.564  0.00  0.00    +0.000 OA
BRANCH  19  20
ATOM     20  C   UNL     1       1.622   8.743  21.350  0.00  0.00    +0.000 C 
BRANCH  20  21
ATOM     21  C   UNL     1       0.554   9.719  21.754  0.00  0.00    +0.000 A 
ATOM     22  C   UNL     1      -0.168   9.610  22.955  0.00  0.00    +0.000 A 
ATOM     23  C   UNL     1      -1.150  10.560  23.270  0.00  0.00    +0.000 A 
ATOM     24  C   UNL     1      -1.409  11.622  22.398  0.00  0.00    +0.000 A 
ATOM     25 CL   UNL     1      -2.628  12.819  22.794  0.00  0.00    +0.000 Cl
ATOM     26  C   UNL     1      -0.693  11.737  21.205  0.00  0.00    +0.000 A 
ATOM     27  C   UNL     1       0.273  10.792  20.877  0.00  0.00    +0.000 A 
ATOM     28 CL   UNL     1       1.144  10.997  19.352  0.00  0.00    +0.000 Cl
ENDBRANCH  20  21
ENDBRANCH  19  20
ENDBRANCH   6  19
TORSDOF 8
ENDMDL
MODEL 6
REMARK VINA RESULT:      -7.4      4.472      8.495
REMARK  Name = 
REMARK  9 active torsions:
REMARK  status: ('A' for Active; 'I' for Inactive)
REMARK    1  A    between atoms: C_1  and  O_2
REMARK    2  A    between atoms: O_2  and  C_3
REMARK    3  A    between atoms: C_5  and  C_6
REMARK    4  A    between atoms: C_6  and  N_7
REMARK    5  A    between atoms: N_7  and  C_8
REMARK    6  A    between atoms: C_8  and  C_9
REMARK    7  A    between atoms: C_17  and  O_18
REMARK    8  A    between atoms: O_18  and  C_19
REMARK    9  A    between atoms: C_19  and  C_20
REMARK                            x       y       z     vdW  Elec       q    Type
REMARK                         _______ _______ _______ _____ _____    ______ ____
ROOT
ATOM      1  C   UNL     1       2.137   5.835  20.274  0.00  0.00    +0.000 A 
ATOM      2  C   UNL     1       1.594   7.034  20.755  0.00  0.00    +0.000 A 
ATOM      3  C   UNL     1       1.596   8.214  20.012  0.00  0.00    +0.000 A 
ATOM      4  C   UNL     1       2.141   8.206  18.730  0.00  0.00    +0.000 A 
ATOM      5  C   UNL     1       2.682   7.035  18.204  0.00  0.00    +0.000 A 
ATOM      6  C   UNL     1       2.714   5.836  18.941  0.00  0.00    +0.000 A 
ENDROOT
BRANCH   1   8
ATOM      7  C   UNL     1       1.796   3.469  21.248  0.00  0.00    +0.000 C 
ATOM      8  O   UNL     1       1.996   4.831  21.199  0.00  0.00    +0.000 OA
ENDBRANCH   1   8
BRANCH   3   9
ATOM      9  C   UNL     1       1.016   9.474  20.598  0.00  0.00    +0.000 C 
BRANCH   9  10
ATOM     10  N   UNL     1      -0.330   9.698  20.069  0.00  0.00    +0.000 NA
ATOM     11  H   UNL     1      -0.957   9.981  20.860  0.00  0.00    +0.000 HD
BRANCH  10  12
ATOM     12  C   UNL     1      -0.323  10.773  19.073  0.00  0.00    +0.000 C 
BRANCH  12  13
ATOM     13  C   UNL     1      -1.617  10.767  18.315  0.00  0.00    +0.000 A 
ATOM     14  C   UNL     1      -1.771   9.951  17.180  0.00  0.00    +0.000 A 
ATOM     15  C   UNL     1      -2.988   9.953  16.504  0.00  0.00    +0.000 A 
ATOM     16  C   UNL     1      -4.035  10.756  16.953  0.00  0.00    +0.000 A 
ATOM     17  C   UNL     1      -3.849  11.554  18.081  0.00  0.00    +0.000 A 
ATOM     18  N   UNL     1      -2.649  11.542  18.734  0.00  0.00    +0.000 NA
ENDBRANCH  12  13
ENDBRANCH  10  12
ENDBRANCH   9  10
ENDBRANCH   3   9
BRANCH   6  19
ATOM     19  O   UNL     1       3.304   4.794  18.287  0.00  0.00    +0.000 OA
BRANCH  19  20
ATOM     20  C   UNL     1       4.625   4.465  18.332  0.00  0.00    +0.000 C 
BRANCH  20  21
ATOM     21  C   UNL     1       5.356   4.581  17.024  0.00  0.00    +0.000 A 
ATOM     22  C   UNL     1       4.786   4.208  15.794  0.00  0.00    +0.000 A 
ATOM     23  C   UNL     1       5.525   4.346  14.611  0.00  0.00    +0.000 A 
ATOM     24  C   UNL     1       6.824   4.861  14.646  0.00  0.00    +0.000 A 
ATOM     25 CL   UNL     1       7.746   5.047  13.166  0.00  0.00    +0.000 Cl
ATOM     26  C   UNL     1       7.394   5.237  15.864  0.00  0.00    +0.000 A 
ATOM     27  C   UNL     1       6.674   5.090  17.045  0.00  0.00    +0.000 A 
ATOM     28 CL   UNL     1       7.454   5.585  18.553  0.00  0.00    +0.000 Cl
ENDBRANCH  20  21
ENDBRANCH  19  20
ENDBRANCH   6  19
TORSDOF 8
ENDMDL
MODEL 7
REMARK VINA RESULT:      -7.2      1.491      1.946
REMARK  Name = 
REMARK  9 active torsions:
REMARK  status: ('A' for Active; 'I' for Inactive)
REMARK    1  A    between atoms: C_1  and  O_2
REMARK    2  A    between atoms: O_2  and  C_3
REMARK    3  A    between atoms: C_5  and  C_6
REMARK    4  A    between atoms: C_6  and  N_7
REMARK    5  A    between atoms: N_7  and  C_8
REMARK    6  A    between atoms: C_8  and  C_9
REMARK    7  A    between atoms: C_17  and  O_18
REMARK    8  A    between atoms: O_18  and  C_19
REMARK    9  A    between atoms: C_19  and  C_20
REMARK                            x       y       z     vdW  Elec       q    Type
REMARK                         _______ _______ _______ _____ _____    ______ ____
ROOT
ATOM      1  C   UNL     1       2.455   5.651  19.359  0.00  0.00    +0.000 A 
ATOM      2  C   UNL     1       3.094   4.778  18.468  0.00  0.00    +0.000 A 
ATOM      3  C   UNL     1       3.784   5.224  17.341  0.00  0.00    +0.000 A 
ATOM      4  C   UNL     1       3.863   6.593  17.092  0.00  0.00    +0.000 A 
ATOM      5  C   UNL     1       3.253   7.500  17.955  0.00  0.00    +0.000 A 
ATOM      6  C   UNL     1       2.530   7.076  19.087  0.00  0.00    +0.000 A 
ENDROOT
BRANCH   1   8
ATOM      7  C   UNL     1       1.037   3.868  20.571  0.00  0.00    +0.000 C 
ATOM      8  O   UNL     1       1.862   4.954  20.382  0.00  0.00    +0.000 OA
ENDBRANCH   1   8
BRANCH   3   9
ATOM      9  C   UNL     1       4.430   4.230  16.411  0.00  0.00    +0.000 C 
BRANCH   9  10
ATOM     10  N   UNL     1       5.633   3.674  17.032  0.00  0.00    +0.000 NA
ATOM     11  H   UNL     1       5.629   2.635  16.897  0.00  0.00    +0.000 HD
BRANCH  10  12
ATOM     12  C   UNL     1       6.840   4.221  16.406  0.00  0.00    +0.000 C 
BRANCH  12  13
ATOM     13  C   UNL     1       7.299   5.430  17.166  0.00  0.00    +0.000 A 
ATOM     14  C   UNL     1       7.728   5.308  18.500  0.00  0.00    +0.000 A 
ATOM     15  C   UNL     1       8.164   6.443  19.178  0.00  0.00    +0.000 A 
ATOM     16  C   UNL     1       8.171   7.680  18.536  0.00  0.00    +0.000 A 
ATOM     17  C   UNL     1       7.739   7.766  17.213  0.00  0.00    +0.000 A 
ATOM     18  N   UNL     1       7.314   6.643  16.561  0.00  0.00    +0.000 NA
ENDBRANCH  12  13
ENDBRANCH  10  12
ENDBRANCH   9  10
ENDBRANCH   3   9
BRANCH   6  19
ATOM     19  O   UNL     1       1.975   8.093  19.807  0.00  0.00    +0.000 OA
BRANCH  19  20
ATOM     20  C   UNL     1       1.327   9.177  19.295  0.00  0.00    +0.000 C 
BRANCH  20  21
ATOM     21  C   UNL     1       0.657  10.058  20.311  0.00  0.00    +0.000 A 
ATOM     22  C   UNL     1      -0.058   9.551  21.410  0.00  0.00    +0.000 A 
ATOM     23  C   UNL     1      -0.656  10.432  22.322  0.00  0.00    +0.000 A 
ATOM     24  C   UNL     1      -0.538  11.814  22.147  0.00  0.00    +0.000 A 
ATOM     25 CL   UNL     1      -1.275  12.919  23.293  0.00  0.00    +0.000 Cl
ATOM     26  C   UNL     1       0.173  12.323  21.060  0.00  0.00    +0.000 A 
ATOM     27  C   UNL     1       0.758  11.457  20.142  0.00  0.00    +0.000 A 
ATOM     28 CL   UNL     1       1.646  12.167  18.787  0.00  0.00    +0.000 Cl
ENDBRANCH  20  21
ENDBRANCH  19  20
ENDBRANCH   6  19
TORSDOF 8
ENDMDL
MODEL 8
REMARK VINA RESULT:      -7.2      3.722      7.570
REMARK  Name = 
REMARK  9 active torsions:
REMARK  status: ('A' for Active; 'I' for Inactive)
REMARK    1  A    between atoms: C_1  and  O_2
REMARK    2  A    between atoms: O_2  and  C_3
REMARK    3  A    between atoms: C_5  and  C_6
REMARK    4  A    between atoms: C_6  and  N_7
REMARK    5  A    between atoms: N_7  and  C_8
REMARK    6  A    between atoms: C_8  and  C_9
REMARK    7  A    between atoms: C_17  and  O_18
REMARK    8  A    between atoms: O_18  and  C_19
REMARK    9  A    between atoms: C_19  and  C_20
REMARK                            x       y       z     vdW  Elec       q    Type
REMARK                         _______ _______ _______ _____ _____    ______ ____
ROOT
ATOM      1  C   UNL     1       4.084   3.563  19.343  0.00  0.00    +0.000 A 
ATOM      2  C   UNL     1       3.192   4.262  20.168  0.00  0.00    +0.000 A 
ATOM      3  C   UNL     1       2.242   5.151  19.668  0.00  0.00    +0.000 A 
ATOM      4  C   UNL     1       2.154   5.345  18.290  0.00  0.00    +0.000 A 
ATOM      5  C   UNL     1       3.011   4.664  17.430  0.00  0.00    +0.000 A 
ATOM      6  C   UNL     1       3.995   3.778  17.910  0.00  0.00    +0.000 A 
ENDROOT
BRANCH   1   8
ATOM      7  C   UNL     1       4.883   1.518  20.699  0.00  0.00    +0.000 C 
ATOM      8  O   UNL     1       4.903   2.753  20.089  0.00  0.00    +0.000 OA
ENDBRANCH   1   8
BRANCH   3   9
ATOM      9  C   UNL     1       1.329   5.888  20.612  0.00  0.00    +0.000 C 
BRANCH   9  10
ATOM     10  N   UNL     1       1.939   7.158  21.008  0.00  0.00    +0.000 NA
ATOM     11  H   UNL     1       2.975   7.089  20.868  0.00  0.00    +0.000 HD
BRANCH  10  12
ATOM     12  C   UNL     1       1.429   8.258  20.184  0.00  0.00    +0.000 C 
BRANCH  12  13
ATOM     13  C   UNL     1       0.597   9.177  21.029  0.00  0.00    +0.000 A 
ATOM     14  C   UNL     1       0.500   8.972  22.416  0.00  0.00    +0.000 A 
ATOM     15  C   UNL     1      -0.268   9.848  23.179  0.00  0.00    +0.000 A 
ATOM     16  C   UNL     1      -0.928  10.912  22.566  0.00  0.00    +0.000 A 
ATOM     17  C   UNL     1      -0.811  11.086  21.188  0.00  0.00    +0.000 A 
ATOM     18  N   UNL     1      -0.055  10.217  20.453  0.00  0.00    +0.000 NA
ENDBRANCH  12  13
ENDBRANCH  10  12
ENDBRANCH   9  10
ENDBRANCH   3   9
BRANCH   6  19
ATOM     19  O   UNL     1       4.766   3.219  16.933  0.00  0.00    +0.000 OA
BRANCH  19  20
ATOM     20  C   UNL     1       5.698   3.865  16.178  0.00  0.00    +0.000 C 
BRANCH  20  21
ATOM     21  C   UNL     1       6.453   4.952  16.889  0.00  0.00    +0.000 A 
ATOM     22  C   UNL     1       7.391   4.694  17.903  0.00  0.00    +0.000 A 
ATOM     23  C   UNL     1       8.062   5.757  18.523  0.00  0.00    +0.000 A 
ATOM     24  C   UNL     1       7.808   7.075  18.131  0.00  0.00    +0.000 A 
ATOM     25 CL   UNL     1       8.654   8.407  18.896  0.00  0.00    +0.000 Cl
ATOM     26  C   UNL     1       6.880   7.338  17.123  0.00  0.00    +0.000 A 
ATOM     27  C   UNL     1       6.199   6.290  16.512  0.00  0.00    +0.000 A 
ATOM     28 CL   UNL     1       5.036   6.692  15.241  0.00  0.00    +0.000 Cl
ENDBRANCH  20  21
ENDBRANCH  19  20
ENDBRANCH   6  19
TORSDOF 8
ENDMDL
MODEL 9
REMARK VINA RESULT:      -7.1      2.276      4.032
REMARK  Name = 
REMARK  9 active torsions:
REMARK  status: ('A' for Active; 'I' for Inactive)
REMARK    1  A    between atoms: C_1  and  O_2
REMARK    2  A    between atoms: O_2  and  C_3
REMARK    3  A    between atoms: C_5  and  C_6
REMARK    4  A    between atoms: C_6  and  N_7
REMARK    5  A    between atoms: N_7  and  C_8
REMARK    6  A    between atoms: C_8  and  C_9
REMARK    7  A    between atoms: C_17  and  O_18
REMARK    8  A    between atoms: O_18  and  C_19
REMARK    9  A    between atoms: C_19  and  C_20
REMARK                            x       y       z     vdW  Elec       q    Type
REMARK                         _______ _______ _______ _____ _____    ______ ____
ROOT
ATOM      1  C   UNL     1       1.116   8.773  20.619  0.00  0.00    +0.000 A 
ATOM      2  C   UNL     1       1.884   7.677  20.201  0.00  0.00    +0.000 A 
ATOM      3  C   UNL     1       2.321   7.520  18.886  0.00  0.00    +0.000 A 
ATOM      4  C   UNL     1       2.004   8.498  17.945  0.00  0.00    +0.000 A 
ATOM      5  C   UNL     1       1.253   9.611  18.316  0.00  0.00    +0.000 A 
ATOM      6  C   UNL     1       0.779   9.782  19.631  0.00  0.00    +0.000 A 
ENDROOT
BRANCH   1   8
ATOM      7  C   UNL     1       0.176   9.395  22.940  0.00  0.00    +0.000 C 
ATOM      8  O   UNL     1       0.830   8.685  21.958  0.00  0.00    +0.000 OA
ENDBRANCH   1   8
BRANCH   3   9
ATOM      9  C   UNL     1       3.124   6.306  18.499  0.00  0.00    +0.000 C 
BRANCH   9  10
ATOM     10  N   UNL     1       3.677   5.670  19.696  0.00  0.00    +0.000 NA
ATOM     11  H   UNL     1       2.922   5.609  20.420  0.00  0.00    +0.000 HD
BRANCH  10  12
ATOM     12  C   UNL     1       4.145   4.315  19.393  0.00  0.00    +0.000 C 
BRANCH  12  13
ATOM     13  C   UNL     1       5.156   4.366  18.286  0.00  0.00    +0.000 A 
ATOM     14  C   UNL     1       6.431   4.913  18.515  0.00  0.00    +0.000 A 
ATOM     15  C   UNL     1       7.356   4.935  17.475  0.00  0.00    +0.000 A 
ATOM     16  C   UNL     1       7.014   4.419  16.226  0.00  0.00    +0.000 A 
ATOM     17  C   UNL     1       5.741   3.884  16.032  0.00  0.00    +0.000 A 
ATOM     18  N   UNL     1       4.844   3.871  17.063  0.00  0.00    +0.000 NA
ENDBRANCH  12  13
ENDBRANCH  10  12
ENDBRANCH   9  10
ENDBRANCH   3   9
BRANCH   6  19
ATOM     19  O   UNL     1       0.037  10.913  19.813  0.00  0.00    +0.000 OA
BRANCH  19  20
ATOM     20  C   UNL     1      -0.516  11.676  18.829  0.00  0.00    +0.000 C 
BRANCH  20  21
ATOM     21  C   UNL     1      -1.988  11.466  18.610  0.00  0.00    +0.000 A 
ATOM     22  C   UNL     1      -2.498  10.533  17.692  0.00  0.00    +0.000 A 
ATOM     23  C   UNL     1      -3.885  10.386  17.540  0.00  0.00    +0.000 A 
ATOM     24  C   UNL     1      -4.763  11.160  18.306  0.00  0.00    +0.000 A 
ATOM     25 CL   UNL     1      -6.497  10.971  18.128  0.00  0.00    +0.000 Cl
ATOM     26  C   UNL     1      -4.261  12.086  19.221  0.00  0.00    +0.000 A 
ATOM     27  C   UNL     1      -2.887  12.248  19.368  0.00  0.00    +0.000 A 
ATOM     28 CL   UNL     1      -2.318  13.438  20.546  0.00  0.00    +0.000 Cl
ENDBRANCH  20  21
ENDBRANCH  19  20
ENDBRANCH   6  19
TORSDOF 8
ENDMDL
