MODEL 1
REMARK VINA RESULT:      -7.5      0.000      0.000
REMARK  Name = 
REMARK  10 active torsions:
REMARK  status: ('A' for Active; 'I' for Inactive)
REMARK    1  A    between atoms: C_1  and  O_2
REMARK    2  A    between atoms: O_2  and  C_3
REMARK    3  A    between atoms: C_3  and  C_5
REMARK    4  A    between atoms: C_6  and  N_7
REMARK    5  A    between atoms: C_8  and  C_10
REMARK    6  A    between atoms: C_10  and  N_11
REMARK    7  A    between atoms: C_18  and  C_19
REMARK    8  A    between atoms: C_19  and  C_20
REMARK    9  A    between atoms: C_19  and  C_21
REMARK   10  A    between atoms: C_19  and  C_22
REMARK                            x       y       z     vdW  Elec       q    Type
REMARK                         _______ _______ _______ _____ _____    ______ ____
ROOT
ATOM      1  N   UNL     1       1.433  10.302  19.203  0.00  0.00    +0.000 N 
ATOM      2  C   UNL     1       0.172  10.763  18.817  0.00  0.00    +0.000 C 
ATOM      3  O   UNL     1      -0.784  10.056  18.561  0.00  0.00    +0.000 OA
ATOM      4  H   UNL     1       2.100  10.937  19.622  0.00  0.00    +0.000 HD
ENDROOT
BRANCH   1   6
ATOM      5  C   UNL     1       1.333   8.031  20.288  0.00  0.00    +0.000 A 
ATOM      6  C   UNL     1       1.681   8.951  19.319  0.00  0.00    +0.000 A 
ATOM      7  S   UNL     1       2.508   8.253  18.013  0.00  0.00    +0.000 S 
ATOM      8  C   UNL     1       2.531   6.709  18.763  0.00  0.00    +0.000 A 
ATOM      9  C   UNL     1       1.851   6.717  19.974  0.00  0.00    +0.000 A 
ATOM     10  C   UNL     1       1.608   5.505  20.841  0.00  0.00    +0.000 C 
ATOM     11  C   UNL     1       1.220   4.279  20.023  0.00  0.00    +0.000 C 
ATOM     12  C   UNL     1       2.428   3.539  19.452  0.00  0.00    +0.000 C 
ATOM     13  C   UNL     1       3.595   4.422  18.996  0.00  0.00    +0.000 C 
ATOM     14  C   UNL     1       3.178   5.550  18.049  0.00  0.00    +0.000 C 
BRANCH   5  15
ATOM     15  C   UNL     1       0.494   8.335  21.437  0.00  0.00    +0.000 C 
ATOM     16  O   UNL     1      -0.658   7.916  21.566  0.00  0.00    +0.000 OA
BRANCH  15  18
ATOM     17  C   UNL     1       0.239   9.668  23.331  0.00  0.00    +0.000 C 
ATOM     18  O   UNL     1       1.096   9.194  22.299  0.00  0.00    +0.000 OA
ENDBRANCH  15  18
ENDBRANCH   5  15
ENDBRANCH   1   6
BRANCH   2  19
ATOM     19  C   UNL     1       0.059  12.292  18.847  0.00  0.00    +0.000 C 
BRANCH  19  20
ATOM     20  N   UNL     1      -0.500  12.682  20.118  0.00  0.00    +0.000 N 
ATOM     21  C   UNL     1       0.199  12.823  21.270  0.00  0.00    +0.000 C 
ATOM     22  O   UNL     1       1.409  12.658  21.421  0.00  0.00    +0.000 OA
ATOM     23  N   UNL     1      -0.655  13.169  22.272  0.00  0.00    +0.000 N 
ATOM     24  C   UNL     1      -2.036  13.170  21.837  0.00  0.00    +0.000 C 
ATOM     25  C   UNL     1      -2.772  12.003  22.503  0.00  0.00    +0.000 C 
ATOM     26  C   UNL     1      -3.277  12.337  23.909  0.00  0.00    +0.000 C 
ATOM     27  C   UNL     1      -4.053  13.667  24.015  0.00  0.00    +0.000 C 
ATOM     28  C   UNL     1      -3.145  14.787  23.446  0.00  0.00    +0.000 C 
ATOM     29  C   UNL     1      -2.656  14.549  22.026  0.00  0.00    +0.000 C 
ATOM     30  C   UNL     1      -1.820  12.921  20.339  0.00  0.00    +0.000 C 
ATOM     31  O   UNL     1      -2.710  12.943  19.476  0.00  0.00    +0.000 OA
ATOM     32  H   UNL     1      -0.341  13.254  23.234  0.00  0.00    +0.000 HD
BRANCH  27  33
ATOM     33  C   UNL     1      -5.545  13.653  23.485  0.00  0.00    +0.000 C 
ATOM     34  C   UNL     1      -6.491  12.659  24.204  0.00  0.00    +0.000 C 
ATOM     35  C   UNL     1      -6.175  15.050  23.679  0.00  0.00    +0.000 C 
ATOM     36  C   UNL     1      -5.614  13.309  21.997  0.00  0.00    +0.000 C 
ENDBRANCH  27  33
ENDBRANCH  19  20
ENDBRANCH   2  19
TORSDOF 6
ENDMDL
MODEL 2
REMARK VINA RESULT:      -7.3      0.551      1.081
REMARK  Name = 
REMARK  10 active torsions:
REMARK  status: ('A' for Active; 'I' for Inactive)
REMARK    1  A    between atoms: C_1  and  O_2
REMARK    2  A    between atoms: O_2  and  C_3
REMARK    3  A    between atoms: C_3  and  C_5
REMARK    4  A    between atoms: C_6  and  N_7
REMARK    5  A    between atoms: C_8  and  C_10
REMARK    6  A    between atoms: C_10  and  N_11
REMARK    7  A    between atoms: C_18  and  C_19
REMARK    8  A    between atoms: C_19  and  C_20
REMARK    9  A    between atoms: C_19  and  C_21
REMARK   10  A    between atoms: C_19  and  C_22
REMARK                            x       y       z     vdW  Elec       q    Type
REMARK                         _______ _______ _______ _____ _____    ______ ____
ROOT
ATOM      1  N   UNL     1       1.265  10.564  19.163  0.00  0.00    +0.000 N 
ATOM      2  C   UNL     1      -0.070  10.951  19.027  0.00  0.00    +0.000 C 
ATOM      3  O   UNL     1      -1.021  10.193  19.014  0.00  0.00    +0.000 OA
ATOM      4  H   UNL     1       1.972  11.249  19.399  0.00  0.00    +0.000 HD
ENDROOT
BRANCH   1   6
ATOM      5  C   UNL     1       1.617   8.392  20.388  0.00  0.00    +0.000 A 
ATOM      6  C   UNL     1       1.601   9.234  19.294  0.00  0.00    +0.000 A 
ATOM      7  S   UNL     1       2.009   8.445  17.849  0.00  0.00    +0.000 S 
ATOM      8  C   UNL     1       2.339   6.971  18.665  0.00  0.00    +0.000 A 
ATOM      9  C   UNL     1       2.071   7.067  20.025  0.00  0.00    +0.000 A 
ATOM     10  C   UNL     1       2.169   5.928  21.012  0.00  0.00    +0.000 C 
ATOM     11  C   UNL     1       1.603   4.629  20.451  0.00  0.00    +0.000 C 
ATOM     12  C   UNL     1       2.605   3.869  19.584  0.00  0.00    +0.000 C 
ATOM     13  C   UNL     1       3.529   4.735  18.720  0.00  0.00    +0.000 C 
ATOM     14  C   UNL     1       2.783   5.770  17.872  0.00  0.00    +0.000 C 
BRANCH   5  15
ATOM     15  C   UNL     1       1.166   8.774  21.718  0.00  0.00    +0.000 C 
ATOM     16  O   UNL     1       1.934   9.067  22.637  0.00  0.00    +0.000 OA
BRANCH  15  18
ATOM     17  C   UNL     1      -0.721   9.545  22.848  0.00  0.00    +0.000 C 
ATOM     18  O   UNL     1      -0.183   8.689  21.847  0.00  0.00    +0.000 OA
ENDBRANCH  15  18
ENDBRANCH   5  15
ENDBRANCH   1   6
BRANCH   2  19
ATOM     19  C   UNL     1      -0.252  12.474  19.000  0.00  0.00    +0.000 C 
BRANCH  19  20
ATOM     20  N   UNL     1      -0.827  12.885  20.258  0.00  0.00    +0.000 N 
ATOM     21  C   UNL     1      -0.149  13.016  21.423  0.00  0.00    +0.000 C 
ATOM     22  O   UNL     1       1.054  12.824  21.600  0.00  0.00    +0.000 OA
ATOM     23  N   UNL     1      -1.015  13.389  22.405  0.00  0.00    +0.000 N 
ATOM     24  C   UNL     1      -2.386  13.420  21.942  0.00  0.00    +0.000 C 
ATOM     25  C   UNL     1      -3.163  12.275  22.600  0.00  0.00    +0.000 C 
ATOM     26  C   UNL     1      -3.688  12.630  23.993  0.00  0.00    +0.000 C 
ATOM     27  C   UNL     1      -4.434  13.978  24.076  0.00  0.00    +0.000 C 
ATOM     28  C   UNL     1      -3.488  15.073  23.519  0.00  0.00    +0.000 C 
ATOM     29  C   UNL     1      -2.976  14.814  22.110  0.00  0.00    +0.000 C 
ATOM     30  C   UNL     1      -2.146  13.156  20.451  0.00  0.00    +0.000 C 
ATOM     31  O   UNL     1      -3.017  13.194  19.569  0.00  0.00    +0.000 OA
ATOM     32  H   UNL     1      -0.718  13.473  23.372  0.00  0.00    +0.000 HD
BRANCH  27  33
ATOM     33  C   UNL     1      -5.915  13.996  23.516  0.00  0.00    +0.000 C 
ATOM     34  C   UNL     1      -6.039  13.879  21.976  0.00  0.00    +0.000 C 
ATOM     35  C   UNL     1      -6.701  12.799  24.095  0.00  0.00    +0.000 C 
ATOM     36  C   UNL     1      -6.653  15.277  23.908  0.00  0.00    +0.000 C 
ENDBRANCH  27  33
ENDBRANCH  19  20
ENDBRANCH   2  19
TORSDOF 6
ENDMDL
MODEL 3
REMARK VINA RESULT:      -7.2      1.485      2.452
REMARK  Name = 
REMARK  10 active torsions:
REMARK  status: ('A' for Active; 'I' for Inactive)
REMARK    1  A    between atoms: C_1  and  O_2
REMARK    2  A    between atoms: O_2  and  C_3
REMARK    3  A    between atoms: C_3  and  C_5
REMARK    4  A    between atoms: C_6  and  N_7
REMARK    5  A    between atoms: C_8  and  C_10
REMARK    6  A    between atoms: C_10  and  N_11
REMARK    7  A    between atoms: C_18  and  C_19
REMARK    8  A    between atoms: C_19  and  C_20
REMARK    9  A    between atoms: C_19  and  C_21
REMARK   10  A    between atoms: C_19  and  C_22
REMARK                            x       y       z     vdW  Elec       q    Type
REMARK                         _______ _______ _______ _____ _____    ______ ____
ROOT
ATOM      1  N   UNL     1       0.547  10.751  18.882  0.00  0.00    +0.000 N 
ATOM      2  C   UNL     1      -0.733  10.848  18.332  0.00  0.00    +0.000 C 
ATOM      3  O   UNL     1      -1.447   9.906  18.048  0.00  0.00    +0.000 OA
ATOM      4  H   UNL     1       0.982  11.561  19.306  0.00  0.00    +0.000 HD
ENDROOT
BRANCH   1   6
ATOM      5  C   UNL     1       0.992   8.668  20.228  0.00  0.00    +0.000 A 
ATOM      6  C   UNL     1       1.106   9.519  19.146  0.00  0.00    +0.000 A 
ATOM      7  S   UNL     1       2.062   8.877  17.901  0.00  0.00    +0.000 S 
ATOM      8  C   UNL     1       2.453   7.483  18.824  0.00  0.00    +0.000 A 
ATOM      9  C   UNL     1       1.800   7.481  20.051  0.00  0.00    +0.000 A 
ATOM     10  C   UNL     1       1.854   6.361  21.061  0.00  0.00    +0.000 C 
ATOM     11  C   UNL     1       1.757   4.988  20.407  0.00  0.00    +0.000 C 
ATOM     12  C   UNL     1       3.100   4.484  19.881  0.00  0.00    +0.000 C 
ATOM     13  C   UNL     1       4.025   5.550  19.284  0.00  0.00    +0.000 C 
ATOM     14  C   UNL     1       3.346   6.427  18.228  0.00  0.00    +0.000 C 
BRANCH   5  15
ATOM     15  C   UNL     1       0.114   8.908  21.364  0.00  0.00    +0.000 C 
ATOM     16  O   UNL     1      -0.798   8.146  21.689  0.00  0.00    +0.000 OA
BRANCH  15  18
ATOM     17  C   UNL     1      -0.554  10.427  22.999  0.00  0.00    +0.000 C 
ATOM     18  O   UNL     1       0.365  10.099  21.964  0.00  0.00    +0.000 OA
ENDBRANCH  15  18
ENDBRANCH   5  15
ENDBRANCH   1   6
BRANCH   2  19
ATOM     19  C   UNL     1      -1.223  12.297  18.211  0.00  0.00    +0.000 C 
BRANCH  19  20
ATOM     20  N   UNL     1      -2.176  12.545  19.264  0.00  0.00    +0.000 N 
ATOM     21  C   UNL     1      -3.472  12.149  19.258  0.00  0.00    +0.000 C 
ATOM     22  O   UNL     1      -4.041  11.510  18.373  0.00  0.00    +0.000 OA
ATOM     23  N   UNL     1      -4.078  12.583  20.397  0.00  0.00    +0.000 N 
ATOM     24  C   UNL     1      -3.205  13.415  21.198  0.00  0.00    +0.000 C 
ATOM     25  C   UNL     1      -3.715  14.859  21.159  0.00  0.00    +0.000 C 
ATOM     26  C   UNL     1      -4.818  15.132  22.184  0.00  0.00    +0.000 C 
ATOM     27  C   UNL     1      -4.500  14.653  23.616  0.00  0.00    +0.000 C 
ATOM     28  C   UNL     1      -4.144  13.147  23.539  0.00  0.00    +0.000 C 
ATOM     29  C   UNL     1      -3.011  12.809  22.582  0.00  0.00    +0.000 C 
ATOM     30  C   UNL     1      -1.909  13.251  20.395  0.00  0.00    +0.000 C 
ATOM     31  O   UNL     1      -0.799  13.690  20.733  0.00  0.00    +0.000 OA
ATOM     32  H   UNL     1      -5.072  12.450  20.554  0.00  0.00    +0.000 HD
BRANCH  27  33
ATOM     33  C   UNL     1      -3.502  15.555  24.452  0.00  0.00    +0.000 C 
ATOM     34  C   UNL     1      -2.323  16.154  23.648  0.00  0.00    +0.000 C 
ATOM     35  C   UNL     1      -4.267  16.762  25.041  0.00  0.00    +0.000 C 
ATOM     36  C   UNL     1      -2.879  14.781  25.615  0.00  0.00    +0.000 C 
ENDBRANCH  27  33
ENDBRANCH  19  20
ENDBRANCH   2  19
TORSDOF 6
ENDMDL
MODEL 4
REMARK VINA RESULT:      -7.2      3.594      5.638
REMARK  Name = 
REMARK  10 active torsions:
REMARK  status: ('A' for Active; 'I' for Inactive)
REMARK    1  A    between atoms: C_1  and  O_2
REMARK    2  A    between atoms: O_2  and  C_3
REMARK    3  A    between atoms: C_3  and  C_5
REMARK    4  A    between atoms: C_6  and  N_7
REMARK    5  A    between atoms: C_8  and  C_10
REMARK    6  A    between atoms: C_10  and  N_11
REMARK    7  A    between atoms: C_18  and  C_19
REMARK    8  A    between atoms: C_19  and  C_20
REMARK    9  A    between atoms: C_19  and  C_21
REMARK   10  A    between atoms: C_19  and  C_22
REMARK                            x       y       z     vdW  Elec       q    Type
REMARK                         _______ _______ _______ _____ _____    ______ ____
ROOT
ATOM      1  N   UNL     1       1.393   7.783  18.732  0.00  0.00    +0.000 N 
ATOM      2  C   UNL     1       1.318   8.166  20.073  0.00  0.00    +0.000 C 
ATOM      3  O   UNL     1       2.164   7.936  20.916  0.00  0.00    +0.000 OA
ATOM      4  H   UNL     1       0.779   8.204  18.047  0.00  0.00    +0.000 HD
ENDROOT
BRANCH   1   6
ATOM      5  C   UNL     1       2.731   5.730  18.145  0.00  0.00    +0.000 A 
ATOM      6  C   UNL     1       2.485   7.084  18.262  0.00  0.00    +0.000 A 
ATOM      7  S   UNL     1       3.744   8.038  17.647  0.00  0.00    +0.000 S 
ATOM      8  C   UNL     1       4.716   6.664  17.312  0.00  0.00    +0.000 A 
ATOM      9  C   UNL     1       4.050   5.481  17.607  0.00  0.00    +0.000 A 
ATOM     10  C   UNL     1       4.587   4.094  17.345  0.00  0.00    +0.000 C 
ATOM     11  C   UNL     1       5.278   3.989  15.991  0.00  0.00    +0.000 C 
ATOM     12  C   UNL     1       6.729   4.466  16.026  0.00  0.00    +0.000 C 
ATOM     13  C   UNL     1       7.014   5.665  16.938  0.00  0.00    +0.000 C 
ATOM     14  C   UNL     1       6.079   6.853  16.698  0.00  0.00    +0.000 C 
BRANCH   5  15
ATOM     15  C   UNL     1       1.757   4.695  18.457  0.00  0.00    +0.000 C 
ATOM     16  O   UNL     1       1.184   4.021  17.598  0.00  0.00    +0.000 OA
BRANCH  15  18
ATOM     17  C   UNL     1       0.980   3.360  20.202  0.00  0.00    +0.000 C 
ATOM     18  O   UNL     1       1.496   4.619  19.787  0.00  0.00    +0.000 OA
ENDBRANCH  15  18
ENDBRANCH   5  15
ENDBRANCH   1   6
BRANCH   2  19
ATOM     19  C   UNL     1       0.084   9.024  20.382  0.00  0.00    +0.000 C 
BRANCH  19  20
ATOM     20  N   UNL     1       0.250  10.306  19.742  0.00  0.00    +0.000 N 
ATOM     21  C   UNL     1      -0.145  10.609  18.482  0.00  0.00    +0.000 C 
ATOM     22  O   UNL     1      -0.715   9.859  17.689  0.00  0.00    +0.000 OA
ATOM     23  N   UNL     1       0.200  11.896  18.202  0.00  0.00    +0.000 N 
ATOM     24  C   UNL     1       0.969  12.499  19.270  0.00  0.00    +0.000 C 
ATOM     25  C   UNL     1       2.411  12.702  18.795  0.00  0.00    +0.000 C 
ATOM     26  C   UNL     1       2.605  13.997  18.003  0.00  0.00    +0.000 C 
ATOM     27  C   UNL     1       2.018  15.257  18.674  0.00  0.00    +0.000 C 
ATOM     28  C   UNL     1       0.522  14.978  18.968  0.00  0.00    +0.000 C 
ATOM     29  C   UNL     1       0.260  13.736  19.806  0.00  0.00    +0.000 C 
ATOM     30  C   UNL     1       0.869  11.376  20.308  0.00  0.00    +0.000 C 
ATOM     31  O   UNL     1       1.281  11.444  21.476  0.00  0.00    +0.000 OA
ATOM     32  H   UNL     1       0.056  12.297  17.281  0.00  0.00    +0.000 HD
BRANCH  27  33
ATOM     33  C   UNL     1       2.854  15.868  19.873  0.00  0.00    +0.000 C 
ATOM     34  C   UNL     1       2.583  15.231  21.258  0.00  0.00    +0.000 C 
ATOM     35  C   UNL     1       4.363  15.668  19.605  0.00  0.00    +0.000 C 
ATOM     36  C   UNL     1       2.601  17.367  20.033  0.00  0.00    +0.000 C 
ENDBRANCH  27  33
ENDBRANCH  19  20
ENDBRANCH   2  19
TORSDOF 6
ENDMDL
MODEL 5
REMARK VINA RESULT:      -7.2      2.945      9.364
REMARK  Name = 
REMARK  10 active torsions:
REMARK  status: ('A' for Active; 'I' for Inactive)
REMARK    1  A    between atoms: C_1  and  O_2
REMARK    2  A    between atoms: O_2  and  C_3
REMARK    3  A    between atoms: C_3  and  C_5
REMARK    4  A    between atoms: C_6  and  N_7
REMARK    5  A    between atoms: C_8  and  C_10
REMARK    6  A    between atoms: C_10  and  N_11
REMARK    7  A    between atoms: C_18  and  C_19
REMARK    8  A    between atoms: C_19  and  C_20
REMARK    9  A    between atoms: C_19  and  C_21
REMARK   10  A    between atoms: C_19  and  C_22
REMARK                            x       y       z     vdW  Elec       q    Type
REMARK                         _______ _______ _______ _____ _____    ______ ____
ROOT
ATOM      1  N   UNL     1      -0.464  11.362  19.470  0.00  0.00    +0.000 N 
ATOM      2  C   UNL     1      -0.045  10.184  20.091  0.00  0.00    +0.000 C 
ATOM      3  O   UNL     1      -0.778   9.288  20.462  0.00  0.00    +0.000 OA
ATOM      4  H   UNL     1       0.203  11.947  18.983  0.00  0.00    +0.000 HD
ENDROOT
BRANCH   1   6
ATOM      5  C   UNL     1      -2.615  11.273  18.162  0.00  0.00    +0.000 A 
ATOM      6  C   UNL     1      -1.802  11.592  19.231  0.00  0.00    +0.000 A 
ATOM      7  S   UNL     1      -2.643  12.346  20.497  0.00  0.00    +0.000 S 
ATOM      8  C   UNL     1      -4.106  12.377  19.600  0.00  0.00    +0.000 A 
ATOM      9  C   UNL     1      -3.965  11.752  18.367  0.00  0.00    +0.000 A 
ATOM     10  C   UNL     1      -5.081  11.528  17.374  0.00  0.00    +0.000 C 
ATOM     11  C   UNL     1      -6.372  11.081  18.049  0.00  0.00    +0.000 C 
ATOM     12  C   UNL     1      -7.191  12.249  18.597  0.00  0.00    +0.000 C 
ATOM     13  C   UNL     1      -6.382  13.410  19.188  0.00  0.00    +0.000 C 
ATOM     14  C   UNL     1      -5.343  12.970  20.222  0.00  0.00    +0.000 C 
BRANCH   5  15
ATOM     15  C   UNL     1      -2.182  10.492  17.013  0.00  0.00    +0.000 C 
ATOM     16  O   UNL     1      -1.500   9.470  17.106  0.00  0.00    +0.000 OA
BRANCH  15  18
ATOM     17  C   UNL     1      -2.903  10.130  14.827  0.00  0.00    +0.000 C 
ATOM     18  O   UNL     1      -2.543  11.066  15.837  0.00  0.00    +0.000 OA
ENDBRANCH  15  18
ENDBRANCH   5  15
ENDBRANCH   1   6
BRANCH   2  19
ATOM     19  C   UNL     1       1.483  10.062  20.173  0.00  0.00    +0.000 C 
BRANCH  19  20
ATOM     20  N   UNL     1       1.892   8.931  19.378  0.00  0.00    +0.000 N 
ATOM     21  C   UNL     1       2.126   8.955  18.044  0.00  0.00    +0.000 C 
ATOM     22  O   UNL     1       2.044   9.932  17.300  0.00  0.00    +0.000 OA
ATOM     23  N   UNL     1       2.462   7.703  17.625  0.00  0.00    +0.000 N 
ATOM     24  C   UNL     1       2.357   6.726  18.689  0.00  0.00    +0.000 C 
ATOM     25  C   UNL     1       1.177   5.794  18.397  0.00  0.00    +0.000 C 
ATOM     26  C   UNL     1       1.540   4.644  17.455  0.00  0.00    +0.000 C 
ATOM     27  C   UNL     1       2.822   3.876  17.840  0.00  0.00    +0.000 C 
ATOM     28  C   UNL     1       3.970   4.909  17.959  0.00  0.00    +0.000 C 
ATOM     29  C   UNL     1       3.701   6.051  18.928  0.00  0.00    +0.000 C 
ATOM     30  C   UNL     1       2.057   7.669  19.859  0.00  0.00    +0.000 C 
ATOM     31  O   UNL     1       1.985   7.330  21.050  0.00  0.00    +0.000 OA
ATOM     32  H   UNL     1       2.608   7.492  16.644  0.00  0.00    +0.000 HD
BRANCH  27  33
ATOM     33  C   UNL     1       2.691   2.849  19.039  0.00  0.00    +0.000 C 
ATOM     34  C   UNL     1       2.817   3.468  20.453  0.00  0.00    +0.000 C 
ATOM     35  C   UNL     1       1.301   2.177  18.995  0.00  0.00    +0.000 C 
ATOM     36  C   UNL     1       3.749   1.747  18.958  0.00  0.00    +0.000 C 
ENDBRANCH  27  33
ENDBRANCH  19  20
ENDBRANCH   2  19
TORSDOF 6
ENDMDL
MODEL 6
REMARK VINA RESULT:      -7.0      2.854      9.753
REMARK  Name = 
REMARK  10 active torsions:
REMARK  status: ('A' for Active; 'I' for Inactive)
REMARK    1  A    between atoms: C_1  and  O_2
REMARK    2  A    between atoms: O_2  and  C_3
REMARK    3  A    between atoms: C_3  and  C_5
REMARK    4  A    between atoms: C_6  and  N_7
REMARK    5  A    between atoms: C_8  and  C_10
REMARK    6  A    between atoms: C_10  and  N_11
REMARK    7  A    between atoms: C_18  and  C_19
REMARK    8  A    between atoms: C_19  and  C_20
REMARK    9  A    between atoms: C_19  and  C_21
REMARK   10  A    between atoms: C_19  and  C_22
REMARK                            x       y       z     vdW  Elec       q    Type
REMARK                         _______ _______ _______ _____ _____    ______ ____
ROOT
ATOM      1  N   UNL     1       0.503   8.901  20.125  0.00  0.00    +0.000 N 
ATOM      2  C   UNL     1       1.250   8.068  20.961  0.00  0.00    +0.000 C 
ATOM      3  O   UNL     1       2.125   8.438  21.720  0.00  0.00    +0.000 OA
ATOM      4  H   UNL     1      -0.353   8.564  19.703  0.00  0.00    +0.000 HD
ENDROOT
BRANCH   1   6
ATOM      5  C   UNL     1       0.312  11.274  20.949  0.00  0.00    +0.000 A 
ATOM      6  C   UNL     1       0.728  10.261  20.108  0.00  0.00    +0.000 A 
ATOM      7  S   UNL     1       1.755  10.809  18.875  0.00  0.00    +0.000 S 
ATOM      8  C   UNL     1       1.579  12.446  19.359  0.00  0.00    +0.000 A 
ATOM      9  C   UNL     1       0.793  12.562  20.499  0.00  0.00    +0.000 A 
ATOM     10  C   UNL     1       0.515  13.850  21.235  0.00  0.00    +0.000 C 
ATOM     11  C   UNL     1       1.758  14.724  21.358  0.00  0.00    +0.000 C 
ATOM     12  C   UNL     1       2.013  15.573  20.114  0.00  0.00    +0.000 C 
ATOM     13  C   UNL     1       1.676  14.909  18.774  0.00  0.00    +0.000 C 
ATOM     14  C   UNL     1       2.307  13.525  18.600  0.00  0.00    +0.000 C 
BRANCH   5  15
ATOM     15  C   UNL     1      -0.451  11.058  22.169  0.00  0.00    +0.000 C 
ATOM     16  O   UNL     1      -0.002  10.472  23.156  0.00  0.00    +0.000 OA
BRANCH  15  18
ATOM     17  C   UNL     1      -2.259  12.038  23.267  0.00  0.00    +0.000 C 
ATOM     18  O   UNL     1      -1.730  11.500  22.060  0.00  0.00    +0.000 OA
ENDBRANCH  15  18
ENDBRANCH   5  15
ENDBRANCH   1   6
BRANCH   2  19
ATOM     19  C   UNL     1       0.785   6.606  20.919  0.00  0.00    +0.000 C 
BRANCH  19  20
ATOM     20  N   UNL     1       1.823   5.816  20.303  0.00  0.00    +0.000 N 
ATOM     21  C   UNL     1       2.262   4.615  20.749  0.00  0.00    +0.000 C 
ATOM     22  O   UNL     1       1.847   3.998  21.730  0.00  0.00    +0.000 OA
ATOM     23  N   UNL     1       3.268   4.178  19.942  0.00  0.00    +0.000 N 
ATOM     24  C   UNL     1       3.632   5.161  18.943  0.00  0.00    +0.000 C 
ATOM     25  C   UNL     1       5.022   5.715  19.270  0.00  0.00    +0.000 C 
ATOM     26  C   UNL     1       6.158   4.838  18.737  0.00  0.00    +0.000 C 
ATOM     27  C   UNL     1       6.015   4.430  17.256  0.00  0.00    +0.000 C 
ATOM     28  C   UNL     1       4.633   3.749  17.088  0.00  0.00    +0.000 C 
ATOM     29  C   UNL     1       3.450   4.591  17.542  0.00  0.00    +0.000 C 
ATOM     30  C   UNL     1       2.533   6.197  19.207  0.00  0.00    +0.000 C 
ATOM     31  O   UNL     1       2.328   7.211  18.524  0.00  0.00    +0.000 OA
ATOM     32  H   UNL     1       3.782   3.327  20.146  0.00  0.00    +0.000 HD
BRANCH  27  33
ATOM     33  C   UNL     1       6.372   5.540  16.184  0.00  0.00    +0.000 C 
ATOM     34  C   UNL     1       5.167   6.355  15.653  0.00  0.00    +0.000 C 
ATOM     35  C   UNL     1       7.337   6.571  16.810  0.00  0.00    +0.000 C 
ATOM     36  C   UNL     1       7.058   4.940  14.956  0.00  0.00    +0.000 C 
ENDBRANCH  27  33
ENDBRANCH  19  20
ENDBRANCH   2  19
TORSDOF 6
ENDMDL
MODEL 7
REMARK VINA RESULT:      -6.8      1.293      1.594
REMARK  Name = 
REMARK  10 active torsions:
REMARK  status: ('A' for Active; 'I' for Inactive)
REMARK    1  A    between atoms: C_1  and  O_2
REMARK    2  A    between atoms: O_2  and  C_3
REMARK    3  A    between atoms: C_3  and  C_5
REMARK    4  A    between atoms: C_6  and  N_7
REMARK    5  A    between atoms: C_8  and  C_10
REMARK    6  A    between atoms: C_10  and  N_11
REMARK    7  A    between atoms: C_18  and  C_19
REMARK    8  A    between atoms: C_19  and  C_20
REMARK    9  A    between atoms: C_19  and  C_21
REMARK   10  A    between atoms: C_19  and  C_22
REMARK                            x       y       z     vdW  Elec       q    Type
REMARK                         _______ _______ _______ _____ _____    ______ ____
ROOT
ATOM      1  N   UNL     1       0.374  10.804  18.719  0.00  0.00    +0.000 N 
ATOM      2  C   UNL     1       0.979  12.014  19.064  0.00  0.00    +0.000 C 
ATOM      3  O   UNL     1       2.048  12.126  19.634  0.00  0.00    +0.000 OA
ATOM      4  H   UNL     1      -0.385  10.787  18.050  0.00  0.00    +0.000 HD
ENDROOT
BRANCH   1   6
ATOM      5  C   UNL     1       0.887   8.778  20.125  0.00  0.00    +0.000 A 
ATOM      6  C   UNL     1       0.980   9.604  19.023  0.00  0.00    +0.000 A 
ATOM      7  S   UNL     1       1.979   8.971  17.807  0.00  0.00    +0.000 S 
ATOM      8  C   UNL     1       2.416   7.620  18.772  0.00  0.00    +0.000 A 
ATOM      9  C   UNL     1       1.747   7.622  19.989  0.00  0.00    +0.000 A 
ATOM     10  C   UNL     1       1.835   6.531  21.030  0.00  0.00    +0.000 C 
ATOM     11  C   UNL     1       1.805   5.139  20.411  0.00  0.00    +0.000 C 
ATOM     12  C   UNL     1       3.175   4.679  19.916  0.00  0.00    +0.000 C 
ATOM     13  C   UNL     1       4.062   5.768  19.302  0.00  0.00    +0.000 C 
ATOM     14  C   UNL     1       3.361   6.588  18.215  0.00  0.00    +0.000 C 
BRANCH   5  15
ATOM     15  C   UNL     1      -0.015   9.009  21.243  0.00  0.00    +0.000 C 
ATOM     16  O   UNL     1      -0.906   8.223  21.570  0.00  0.00    +0.000 OA
BRANCH  15  18
ATOM     17  C   UNL     1      -0.498  10.387  23.059  0.00  0.00    +0.000 C 
ATOM     18  O   UNL     1       0.187  10.219  21.824  0.00  0.00    +0.000 OA
ENDBRANCH  15  18
ENDBRANCH   5  15
ENDBRANCH   1   6
BRANCH   2  19
ATOM     19  C   UNL     1       0.208  13.237  18.551  0.00  0.00    +0.000 C 
BRANCH  19  20
ATOM     20  N   UNL     1      -0.492  13.833  19.662  0.00  0.00    +0.000 N 
ATOM     21  C   UNL     1      -0.027  14.849  20.427  0.00  0.00    +0.000 C 
ATOM     22  O   UNL     1       1.048  15.436  20.296  0.00  0.00    +0.000 OA
ATOM     23  N   UNL     1      -0.937  15.131  21.399  0.00  0.00    +0.000 N 
ATOM     24  C   UNL     1      -2.049  14.203  21.392  0.00  0.00    +0.000 C 
ATOM     25  C   UNL     1      -1.970  13.317  22.639  0.00  0.00    +0.000 C 
ATOM     26  C   UNL     1      -2.596  13.966  23.876  0.00  0.00    +0.000 C 
ATOM     27  C   UNL     1      -4.006  14.551  23.652  0.00  0.00    +0.000 C 
ATOM     28  C   UNL     1      -3.920  15.540  22.462  0.00  0.00    +0.000 C 
ATOM     29  C   UNL     1      -3.362  14.944  21.178  0.00  0.00    +0.000 C 
ATOM     30  C   UNL     1      -1.705  13.420  20.119  0.00  0.00    +0.000 C 
ATOM     31  O   UNL     1      -2.425  12.557  19.595  0.00  0.00    +0.000 OA
ATOM     32  H   UNL     1      -0.747  15.816  22.123  0.00  0.00    +0.000 HD
BRANCH  27  33
ATOM     33  C   UNL     1      -5.198  13.510  23.597  0.00  0.00    +0.000 C 
ATOM     34  C   UNL     1      -5.379  12.785  22.241  0.00  0.00    +0.000 C 
ATOM     35  C   UNL     1      -4.959  12.397  24.642  0.00  0.00    +0.000 C 
ATOM     36  C   UNL     1      -6.541  14.170  23.912  0.00  0.00    +0.000 C 
ENDBRANCH  27  33
ENDBRANCH  19  20
ENDBRANCH   2  19
TORSDOF 6
ENDMDL
MODEL 8
REMARK VINA RESULT:      -6.8      3.345      9.824
REMARK  Name = 
REMARK  10 active torsions:
REMARK  status: ('A' for Active; 'I' for Inactive)
REMARK    1  A    between atoms: C_1  and  O_2
REMARK    2  A    between atoms: O_2  and  C_3
REMARK    3  A    between atoms: C_3  and  C_5
REMARK    4  A    between atoms: C_6  and  N_7
REMARK    5  A    between atoms: C_8  and  C_10
REMARK    6  A    between atoms: C_10  and  N_11
REMARK    7  A    between atoms: C_18  and  C_19
REMARK    8  A    between atoms: C_19  and  C_20
REMARK    9  A    between atoms: C_19  and  C_21
REMARK   10  A    between atoms: C_19  and  C_22
REMARK                            x       y       z     vdW  Elec       q    Type
REMARK                         _______ _______ _______ _____ _____    ______ ____
ROOT
ATOM      1  N   UNL     1       0.670   8.918  19.843  0.00  0.00    +0.000 N 
ATOM      2  C   UNL     1       1.402   8.089  20.695  0.00  0.00    +0.000 C 
ATOM      3  O   UNL     1       2.303   8.455  21.425  0.00  0.00    +0.000 OA
ATOM      4  H   UNL     1      -0.205   8.597  19.448  0.00  0.00    +0.000 HD
ENDROOT
BRANCH   1   6
ATOM      5  C   UNL     1       0.521  11.333  20.544  0.00  0.00    +0.000 A 
ATOM      6  C   UNL     1       0.941  10.268  19.772  0.00  0.00    +0.000 A 
ATOM      7  S   UNL     1       2.042  10.722  18.565  0.00  0.00    +0.000 S 
ATOM      8  C   UNL     1       1.899  12.386  18.963  0.00  0.00    +0.000 A 
ATOM      9  C   UNL     1       1.066  12.582  20.057  0.00  0.00    +0.000 A 
ATOM     10  C   UNL     1       0.799  13.913  20.718  0.00  0.00    +0.000 C 
ATOM     11  C   UNL     1       2.063  14.751  20.859  0.00  0.00    +0.000 C 
ATOM     12  C   UNL     1       2.404  15.531  19.590  0.00  0.00    +0.000 C 
ATOM     13  C   UNL     1       2.107  14.813  18.268  0.00  0.00    +0.000 C 
ATOM     14  C   UNL     1       2.698  13.403  18.189  0.00  0.00    +0.000 C 
BRANCH   5  15
ATOM     15  C   UNL     1      -0.304  11.201  21.735  0.00  0.00    +0.000 C 
ATOM     16  O   UNL     1      -1.455  11.634  21.815  0.00  0.00    +0.000 OA
BRANCH  15  18
ATOM     17  C   UNL     1      -0.356   9.589  23.417  0.00  0.00    +0.000 C 
ATOM     18  O   UNL     1       0.368  10.625  22.765  0.00  0.00    +0.000 OA
ENDBRANCH  15  18
ENDBRANCH   5  15
ENDBRANCH   1   6
BRANCH   2  19
ATOM     19  C   UNL     1       0.887   6.645  20.714  0.00  0.00    +0.000 C 
BRANCH  19  20
ATOM     20  N   UNL     1       1.886   5.797  20.111  0.00  0.00    +0.000 N 
ATOM     21  C   UNL     1       2.433   4.700  20.687  0.00  0.00    +0.000 C 
ATOM     22  O   UNL     1       2.165   4.241  21.798  0.00  0.00    +0.000 OA
ATOM     23  N   UNL     1       3.361   4.168  19.845  0.00  0.00    +0.000 N 
ATOM     24  C   UNL     1       3.558   4.983  18.665  0.00  0.00    +0.000 C 
ATOM     25  C   UNL     1       4.947   5.627  18.728  0.00  0.00    +0.000 C 
ATOM     26  C   UNL     1       6.057   4.711  18.209  0.00  0.00    +0.000 C 
ATOM     27  C   UNL     1       5.766   4.059  16.840  0.00  0.00    +0.000 C 
ATOM     28  C   UNL     1       4.411   3.317  16.952  0.00  0.00    +0.000 C 
ATOM     29  C   UNL     1       3.246   4.185  17.406  0.00  0.00    +0.000 C 
ATOM     30  C   UNL     1       2.446   6.013  18.891  0.00  0.00    +0.000 C 
ATOM     31  O   UNL     1       2.113   6.894  18.084  0.00  0.00    +0.000 OA
ATOM     32  H   UNL     1       3.938   3.379  20.119  0.00  0.00    +0.000 HD
BRANCH  27  33
ATOM     33  C   UNL     1       5.942   4.987  15.569  0.00  0.00    +0.000 C 
ATOM     34  C   UNL     1       5.259   6.374  15.666  0.00  0.00    +0.000 C 
ATOM     35  C   UNL     1       7.443   5.271  15.340  0.00  0.00    +0.000 C 
ATOM     36  C   UNL     1       5.391   4.326  14.305  0.00  0.00    +0.000 C 
ENDBRANCH  27  33
ENDBRANCH  19  20
ENDBRANCH   2  19
TORSDOF 6
ENDMDL
MODEL 9
REMARK VINA RESULT:      -6.8      1.952      3.233
REMARK  Name = 
REMARK  10 active torsions:
REMARK  status: ('A' for Active; 'I' for Inactive)
REMARK    1  A    between atoms: C_1  and  O_2
REMARK    2  A    between atoms: O_2  and  C_3
REMARK    3  A    between atoms: C_3  and  C_5
REMARK    4  A    between atoms: C_6  and  N_7
REMARK    5  A    between atoms: C_8  and  C_10
REMARK    6  A    between atoms: C_10  and  N_11
REMARK    7  A    between atoms: C_18  and  C_19
REMARK    8  A    between atoms: C_19  and  C_20
REMARK    9  A    between atoms: C_19  and  C_21
REMARK   10  A    between atoms: C_19  and  C_22
REMARK                            x       y       z     vdW  Elec       q    Type
REMARK                         _______ _______ _______ _____ _____    ______ ____
ROOT
ATOM      1  N   UNL     1       2.105   7.955  21.026  0.00  0.00    +0.000 N 
ATOM      2  C   UNL     1       0.927   8.603  21.404  0.00  0.00    +0.000 C 
ATOM      3  O   UNL     1      -0.198   8.210  21.159  0.00  0.00    +0.000 OA
ATOM      4  H   UNL     1       2.985   8.206  21.458  0.00  0.00    +0.000 HD
ENDROOT
BRANCH   1   6
ATOM      5  C   UNL     1       2.264   6.499  18.976  0.00  0.00    +0.000 A 
ATOM      6  C   UNL     1       2.061   6.776  20.314  0.00  0.00    +0.000 A 
ATOM      7  S   UNL     1       1.771   5.384  21.238  0.00  0.00    +0.000 S 
ATOM      8  C   UNL     1       1.790   4.373  19.851  0.00  0.00    +0.000 A 
ATOM      9  C   UNL     1       2.084   5.091  18.698  0.00  0.00    +0.000 A 
ATOM     10  C   UNL     1       2.265   4.491  17.325  0.00  0.00    +0.000 C 
ATOM     11  C   UNL     1       3.069   3.196  17.362  0.00  0.00    +0.000 C 
ATOM     12  C   UNL     1       2.215   1.977  17.704  0.00  0.00    +0.000 C 
ATOM     13  C   UNL     1       1.097   2.211  18.726  0.00  0.00    +0.000 C 
ATOM     14  C   UNL     1       1.576   2.891  20.012  0.00  0.00    +0.000 C 
BRANCH   5  15
ATOM     15  C   UNL     1       2.677   7.489  17.993  0.00  0.00    +0.000 C 
ATOM     16  O   UNL     1       3.817   7.550  17.529  0.00  0.00    +0.000 OA
BRANCH  15  18
ATOM     17  C   UNL     1       2.099   9.738  17.799  0.00  0.00    +0.000 C 
ATOM     18  O   UNL     1       1.690   8.379  17.715  0.00  0.00    +0.000 OA
ENDBRANCH  15  18
ENDBRANCH   5  15
ENDBRANCH   1   6
BRANCH   2  19
ATOM     19  C   UNL     1       1.177   9.838  22.278  0.00  0.00    +0.000 C 
BRANCH  19  20
ATOM     20  N   UNL     1       0.267  10.879  21.866  0.00  0.00    +0.000 N 
ATOM     21  C   UNL     1       0.485  11.755  20.857  0.00  0.00    +0.000 C 
ATOM     22  O   UNL     1       1.473  11.803  20.125  0.00  0.00    +0.000 OA
ATOM     23  N   UNL     1      -0.570  12.613  20.772  0.00  0.00    +0.000 N 
ATOM     24  C   UNL     1      -1.529  12.404  21.836  0.00  0.00    +0.000 C 
ATOM     25  C   UNL     1      -1.482  13.598  22.795  0.00  0.00    +0.000 C 
ATOM     26  C   UNL     1      -2.342  14.775  22.330  0.00  0.00    +0.000 C 
ATOM     27  C   UNL     1      -3.782  14.398  21.921  0.00  0.00    +0.000 C 
ATOM     28  C   UNL     1      -3.689  13.289  20.843  0.00  0.00    +0.000 C 
ATOM     29  C   UNL     1      -2.897  12.059  21.262  0.00  0.00    +0.000 C 
ATOM     30  C   UNL     1      -0.923  11.146  22.469  0.00  0.00    +0.000 C 
ATOM     31  O   UNL     1      -1.443  10.481  23.378  0.00  0.00    +0.000 OA
ATOM     32  H   UNL     1      -0.570  13.393  20.124  0.00  0.00    +0.000 HD
BRANCH  27  33
ATOM     33  C   UNL     1      -4.799  14.126  23.105  0.00  0.00    +0.000 C 
ATOM     34  C   UNL     1      -5.884  13.062  22.810  0.00  0.00    +0.000 C 
ATOM     35  C   UNL     1      -4.027  13.610  24.340  0.00  0.00    +0.000 C 
ATOM     36  C   UNL     1      -5.544  15.397  23.514  0.00  0.00    +0.000 C 
ENDBRANCH  27  33
ENDBRANCH  19  20
ENDBRANCH   2  19
TORSDOF 6
ENDMDL
