MODEL 1
REMARK VINA RESULT:      -6.8      0.000      0.000
REMARK  Name = 
REMARK  4 active torsions:
REMARK  status: ('A' for Active; 'I' for Inactive)
REMARK    1  A    between atoms: C_1  and  C_2
REMARK    2  A    between atoms: C_4  and  C_5
REMARK    3  A    between atoms: C_13  and  C_15
REMARK    4  A    between atoms: C_20  and  C_21
REMARK                            x       y       z     vdW  Elec       q    Type
REMARK                         _______ _______ _______ _____ _____    ______ ____
ROOT
ATOM      1  C   UNL     1       2.872  14.707  17.977  0.00  0.00    +0.000 C 
ATOM      2  C   UNL     1       2.190  13.475  18.477  0.00  0.00    +0.000 A 
ATOM      3  C   UNL     1       2.490  12.231  17.967  0.00  0.00    +0.000 A 
ATOM      4  C   UNL     1       1.801  11.170  18.508  0.00  0.00    +0.000 A 
ATOM      5  C   UNL     1       2.049   9.762  18.063  0.00  0.00    +0.000 C 
ATOM      6  N   UNL     1       0.883  11.329  19.479  0.00  0.00    +0.000 NA
ATOM      7  C   UNL     1       0.655  12.569  19.939  0.00  0.00    +0.000 A 
ATOM      8  N   UNL     1      -0.251  12.731  20.972  0.00  0.00    +0.000 N 
ATOM      9  C   UNL     1      -0.057  13.898  21.819  0.00  0.00    +0.000 C 
ATOM     10  C   UNL     1      -0.833  13.584  23.107  0.00  0.00    +0.000 C 
ATOM     11  C   UNL     1      -2.120  14.393  23.246  0.00  0.00    +0.000 C 
ATOM     12  N   UNL     1      -3.151  13.579  22.634  0.00  0.00    +0.000 N 
ATOM     13  C   UNL     1      -4.343  14.147  22.198  0.00  0.00    +0.000 C 
ATOM     14  O   UNL     1      -4.608  15.337  22.351  0.00  0.00    +0.000 OA
ATOM     15  C   UNL     1      -2.782  12.175  22.708  0.00  0.00    +0.000 C 
ATOM     16  C   UNL     1      -1.281  12.119  22.970  0.00  0.00    +0.000 C 
ATOM     17  C   UNL     1      -0.513  11.557  21.779  0.00  0.00    +0.000 C 
ATOM     18  N   UNL     1       1.282  13.651  19.456  0.00  0.00    +0.000 NA
ENDROOT
BRANCH  13  19
ATOM     19  C   UNL     1      -5.368  13.297  21.543  0.00  0.00    +0.000 A 
ATOM     20  C   UNL     1      -5.245  13.029  20.170  0.00  0.00    +0.000 A 
ATOM     21  C   UNL     1      -6.195  12.267  19.502  0.00  0.00    +0.000 A 
ATOM     22  C   UNL     1      -7.215  11.718  20.242  0.00  0.00    +0.000 A 
ATOM     23  N   UNL     1      -7.334  11.891  21.572  0.00  0.00    +0.000 NA
ATOM     24  C   UNL     1      -6.418  12.682  22.236  0.00  0.00    +0.000 A 
BRANCH  24  25
ATOM     25  C   UNL     1      -6.642  12.794  23.740  0.00  0.00    +0.000 C 
ATOM     26  F   UNL     1      -7.680  12.093  24.268  0.00  0.00    +0.000 F 
ATOM     27  F   UNL     1      -5.552  12.355  24.443  0.00  0.00    +0.000 F 
ATOM     28  F   UNL     1      -6.816  14.091  24.141  0.00  0.00    +0.000 F 
ENDBRANCH  24  25
ENDBRANCH  13  19
TORSDOF 2
ENDMDL
MODEL 2
REMARK VINA RESULT:      -6.4      4.467      5.856
REMARK  Name = 
REMARK  4 active torsions:
REMARK  status: ('A' for Active; 'I' for Inactive)
REMARK    1  A    between atoms: C_1  and  C_2
REMARK    2  A    between atoms: C_4  and  C_5
REMARK    3  A    between atoms: C_13  and  C_15
REMARK    4  A    between atoms: C_20  and  C_21
REMARK                            x       y       z     vdW  Elec       q    Type
REMARK                         _______ _______ _______ _____ _____    ______ ____
ROOT
ATOM      1  C   UNL     1       4.280   6.371  17.388  0.00  0.00    +0.000 C 
ATOM      2  C   UNL     1       3.215   6.389  18.437  0.00  0.00    +0.000 A 
ATOM      3  C   UNL     1       2.813   5.234  19.071  0.00  0.00    +0.000 A 
ATOM      4  C   UNL     1       1.827   5.375  20.021  0.00  0.00    +0.000 A 
ATOM      5  C   UNL     1       1.317   4.205  20.804  0.00  0.00    +0.000 C 
ATOM      6  N   UNL     1       1.280   6.568  20.318  0.00  0.00    +0.000 NA
ATOM      7  C   UNL     1       1.734   7.653  19.671  0.00  0.00    +0.000 A 
ATOM      8  N   UNL     1       1.210   8.887  20.010  0.00  0.00    +0.000 N 
ATOM      9  C   UNL     1       2.069  10.038  19.768  0.00  0.00    +0.000 C 
ATOM     10  C   UNL     1       1.487  11.155  20.646  0.00  0.00    +0.000 C 
ATOM     11  C   UNL     1       0.763  12.234  19.845  0.00  0.00    +0.000 C 
ATOM     12  N   UNL     1      -0.619  11.802  19.784  0.00  0.00    +0.000 N 
ATOM     13  C   UNL     1      -1.476  12.292  18.804  0.00  0.00    +0.000 C 
ATOM     14  O   UNL     1      -1.134  13.140  17.984  0.00  0.00    +0.000 OA
ATOM     15  C   UNL     1      -0.927  10.964  20.931  0.00  0.00    +0.000 C 
ATOM     16  C   UNL     1       0.401  10.482  21.504  0.00  0.00    +0.000 C 
ATOM     17  C   UNL     1       0.594   8.981  21.317  0.00  0.00    +0.000 C 
ATOM     18  N   UNL     1       2.686   7.592  18.729  0.00  0.00    +0.000 NA
ENDROOT
BRANCH  13  19
ATOM     19  C   UNL     1      -2.877  11.807  18.743  0.00  0.00    +0.000 A 
ATOM     20  C   UNL     1      -3.825  12.369  19.615  0.00  0.00    +0.000 A 
ATOM     21  C   UNL     1      -5.142  11.927  19.621  0.00  0.00    +0.000 A 
ATOM     22  C   UNL     1      -5.506  10.980  18.693  0.00  0.00    +0.000 A 
ATOM     23  N   UNL     1      -4.648  10.464  17.793  0.00  0.00    +0.000 NA
ATOM     24  C   UNL     1      -3.327  10.866  17.809  0.00  0.00    +0.000 A 
BRANCH  24  25
ATOM     25  C   UNL     1      -2.453  10.228  16.736  0.00  0.00    +0.000 C 
ATOM     26  F   UNL     1      -1.264   9.701  17.134  0.00  0.00    +0.000 F 
ATOM     27  F   UNL     1      -3.093   9.183  16.124  0.00  0.00    +0.000 F 
ATOM     28  F   UNL     1      -2.162  11.100  15.722  0.00  0.00    +0.000 F 
ENDBRANCH  24  25
ENDBRANCH  13  19
TORSDOF 2
ENDMDL
MODEL 3
REMARK VINA RESULT:      -6.4      0.838      1.250
REMARK  Name = 
REMARK  4 active torsions:
REMARK  status: ('A' for Active; 'I' for Inactive)
REMARK    1  A    between atoms: C_1  and  C_2
REMARK    2  A    between atoms: C_4  and  C_5
REMARK    3  A    between atoms: C_13  and  C_15
REMARK    4  A    between atoms: C_20  and  C_21
REMARK                            x       y       z     vdW  Elec       q    Type
REMARK                         _______ _______ _______ _____ _____    ______ ____
ROOT
ATOM      1  C   UNL     1       2.554  12.705  17.658  0.00  0.00    +0.000 C 
ATOM      2  C   UNL     1       1.831  11.746  18.546  0.00  0.00    +0.000 A 
ATOM      3  C   UNL     1       2.059  10.389  18.475  0.00  0.00    +0.000 A 
ATOM      4  C   UNL     1       1.337   9.605  19.345  0.00  0.00    +0.000 A 
ATOM      5  C   UNL     1       1.508   8.118  19.389  0.00  0.00    +0.000 C 
ATOM      6  N   UNL     1       0.455  10.125  20.217  0.00  0.00    +0.000 NA
ATOM      7  C   UNL     1       0.297  11.457  20.243  0.00  0.00    +0.000 A 
ATOM      8  N   UNL     1      -0.571  11.999  21.173  0.00  0.00    +0.000 N 
ATOM      9  C   UNL     1      -0.301  13.369  21.583  0.00  0.00    +0.000 C 
ATOM     10  C   UNL     1      -1.054  13.540  22.910  0.00  0.00    +0.000 C 
ATOM     11  C   UNL     1      -2.298  14.416  22.787  0.00  0.00    +0.000 C 
ATOM     12  N   UNL     1      -3.382  13.501  22.491  0.00  0.00    +0.000 N 
ATOM     13  C   UNL     1      -4.558  13.955  21.905  0.00  0.00    +0.000 C 
ATOM     14  O   UNL     1      -4.764  15.140  21.656  0.00  0.00    +0.000 OA
ATOM     15  C   UNL     1      -3.077  12.183  23.023  0.00  0.00    +0.000 C 
ATOM     16  C   UNL     1      -1.573  12.138  23.272  0.00  0.00    +0.000 C 
ATOM     17  C   UNL     1      -0.864  11.174  22.327  0.00  0.00    +0.000 C 
ATOM     18  N   UNL     1       0.960  12.284  19.421  0.00  0.00    +0.000 NA
ENDROOT
BRANCH  13  19
ATOM     19  C   UNL     1      -5.639  12.991  21.580  0.00  0.00    +0.000 A 
ATOM     20  C   UNL     1      -5.652  12.393  20.308  0.00  0.00    +0.000 A 
ATOM     21  C   UNL     1      -6.659  11.511  19.943  0.00  0.00    +0.000 A 
ATOM     22  C   UNL     1      -7.598  11.179  20.890  0.00  0.00    +0.000 A 
ATOM     23  N   UNL     1      -7.586  11.673  22.143  0.00  0.00    +0.000 NA
ATOM     24  C   UNL     1      -6.612  12.585  22.501  0.00  0.00    +0.000 A 
BRANCH  24  25
ATOM     25  C   UNL     1      -6.687  13.064  23.946  0.00  0.00    +0.000 C 
ATOM     26  F   UNL     1      -5.777  12.554  24.818  0.00  0.00    +0.000 F 
ATOM     27  F   UNL     1      -6.512  14.419  24.034  0.00  0.00    +0.000 F 
ATOM     28  F   UNL     1      -7.916  12.834  24.502  0.00  0.00    +0.000 F 
ENDBRANCH  24  25
ENDBRANCH  13  19
TORSDOF 2
ENDMDL
MODEL 4
REMARK VINA RESULT:      -6.3      4.474      6.983
REMARK  Name = 
REMARK  4 active torsions:
REMARK  status: ('A' for Active; 'I' for Inactive)
REMARK    1  A    between atoms: C_1  and  C_2
REMARK    2  A    between atoms: C_4  and  C_5
REMARK    3  A    between atoms: C_13  and  C_15
REMARK    4  A    between atoms: C_20  and  C_21
REMARK                            x       y       z     vdW  Elec       q    Type
REMARK                         _______ _______ _______ _____ _____    ______ ____
ROOT
ATOM      1  C   UNL     1      -2.877  10.460  15.066  0.00  0.00    +0.000 C 
ATOM      2  C   UNL     1      -3.300  10.992  16.397  0.00  0.00    +0.000 A 
ATOM      3  C   UNL     1      -4.631  11.143  16.720  0.00  0.00    +0.000 A 
ATOM      4  C   UNL     1      -4.900  11.639  17.975  0.00  0.00    +0.000 A 
ATOM      5  C   UNL     1      -6.303  11.827  18.462  0.00  0.00    +0.000 C 
ATOM      6  N   UNL     1      -3.924  11.963  18.843  0.00  0.00    +0.000 NA
ATOM      7  C   UNL     1      -2.650  11.774  18.466  0.00  0.00    +0.000 A 
ATOM      8  N   UNL     1      -1.647  12.058  19.374  0.00  0.00    +0.000 N 
ATOM      9  C   UNL     1      -0.398  11.329  19.201  0.00  0.00    +0.000 C 
ATOM     10  C   UNL     1       0.318  11.447  20.554  0.00  0.00    +0.000 C 
ATOM     11  C   UNL     1       1.517  12.392  20.519  0.00  0.00    +0.000 C 
ATOM     12  N   UNL     1       0.989  13.692  20.883  0.00  0.00    +0.000 N 
ATOM     13  C   UNL     1       1.674  14.857  20.556  0.00  0.00    +0.000 C 
ATOM     14  O   UNL     1       2.768  14.851  19.998  0.00  0.00    +0.000 OA
ATOM     15  C   UNL     1      -0.196  13.531  21.710  0.00  0.00    +0.000 C 
ATOM     16  C   UNL     1      -0.698  12.106  21.502  0.00  0.00    +0.000 C 
ATOM     17  C   UNL     1      -2.035  12.072  20.769  0.00  0.00    +0.000 C 
ATOM     18  N   UNL     1      -2.312  11.302  17.257  0.00  0.00    +0.000 NA
ENDROOT
BRANCH  13  19
ATOM     19  C   UNL     1       1.094  16.176  20.910  0.00  0.00    +0.000 A 
ATOM     20  C   UNL     1       1.404  16.736  22.161  0.00  0.00    +0.000 A 
ATOM     21  C   UNL     1       0.861  17.952  22.555  0.00  0.00    +0.000 A 
ATOM     22  C   UNL     1       0.076  18.628  21.651  0.00  0.00    +0.000 A 
ATOM     23  N   UNL     1      -0.191  18.163  20.416  0.00  0.00    +0.000 NA
ATOM     24  C   UNL     1       0.310  16.934  20.033  0.00  0.00    +0.000 A 
BRANCH  24  25
ATOM     25  C   UNL     1      -0.042  16.517  18.609  0.00  0.00    +0.000 C 
ATOM     26  F   UNL     1      -0.532  15.262  18.432  0.00  0.00    +0.000 F 
ATOM     27  F   UNL     1      -1.006  17.330  18.074  0.00  0.00    +0.000 F 
ATOM     28  F   UNL     1       1.024  16.634  17.759  0.00  0.00    +0.000 F 
ENDBRANCH  24  25
ENDBRANCH  13  19
TORSDOF 2
ENDMDL
MODEL 5
REMARK VINA RESULT:      -6.2      6.126     10.007
REMARK  Name = 
REMARK  4 active torsions:
REMARK  status: ('A' for Active; 'I' for Inactive)
REMARK    1  A    between atoms: C_1  and  C_2
REMARK    2  A    between atoms: C_4  and  C_5
REMARK    3  A    between atoms: C_13  and  C_15
REMARK    4  A    between atoms: C_20  and  C_21
REMARK                            x       y       z     vdW  Elec       q    Type
REMARK                         _______ _______ _______ _____ _____    ______ ____
ROOT
ATOM      1  C   UNL     1      -2.173  13.558  23.678  0.00  0.00    +0.000 C 
ATOM      2  C   UNL     1      -1.228  12.733  22.866  0.00  0.00    +0.000 A 
ATOM      3  C   UNL     1      -1.229  11.357  22.941  0.00  0.00    +0.000 A 
ATOM      4  C   UNL     1      -0.317  10.705  22.144  0.00  0.00    +0.000 A 
ATOM      5  C   UNL     1      -0.229   9.211  22.110  0.00  0.00    +0.000 C 
ATOM      6  N   UNL     1       0.533  11.365  21.337  0.00  0.00    +0.000 NA
ATOM      7  C   UNL     1       0.466  12.705  21.303  0.00  0.00    +0.000 A 
ATOM      8  N   UNL     1       1.303  13.384  20.437  0.00  0.00    +0.000 N 
ATOM      9  C   UNL     1       0.840  14.688  19.985  0.00  0.00    +0.000 C 
ATOM     10  C   UNL     1       1.660  14.981  18.719  0.00  0.00    +0.000 C 
ATOM     11  C   UNL     1       2.724  16.055  18.928  0.00  0.00    +0.000 C 
ATOM     12  N   UNL     1       3.919  15.338  19.325  0.00  0.00    +0.000 N 
ATOM     13  C   UNL     1       4.950  15.986  19.996  0.00  0.00    +0.000 C 
ATOM     14  O   UNL     1       4.932  17.189  20.241  0.00  0.00    +0.000 OA
ATOM     15  C   UNL     1       3.884  13.986  18.791  0.00  0.00    +0.000 C 
ATOM     16  C   UNL     1       2.435  13.686  18.422  0.00  0.00    +0.000 C 
ATOM     17  C   UNL     1       1.825  12.618  19.323  0.00  0.00    +0.000 C 
ATOM     18  N   UNL     1      -0.392  13.409  22.056  0.00  0.00    +0.000 NA
ENDROOT
BRANCH  13  19
ATOM     19  C   UNL     1       6.148  15.220  20.421  0.00  0.00    +0.000 A 
ATOM     20  C   UNL     1       6.123  14.563  21.663  0.00  0.00    +0.000 A 
ATOM     21  C   UNL     1       7.229  13.861  22.123  0.00  0.00    +0.000 A 
ATOM     22  C   UNL     1       8.319  13.762  21.291  0.00  0.00    +0.000 A 
ATOM     23  N   UNL     1       8.361  14.316  20.064  0.00  0.00    +0.000 NA
ATOM     24  C   UNL     1       7.281  15.052  19.618  0.00  0.00    +0.000 A 
BRANCH  24  25
ATOM     25  C   UNL     1       7.434  15.618  18.210  0.00  0.00    +0.000 C 
ATOM     26  F   UNL     1       7.257  16.957  18.056  0.00  0.00    +0.000 F 
ATOM     27  F   UNL     1       8.688  15.387  17.711  0.00  0.00    +0.000 F 
ATOM     28  F   UNL     1       6.587  15.017  17.318  0.00  0.00    +0.000 F 
ENDBRANCH  24  25
ENDBRANCH  13  19
TORSDOF 2
ENDMDL
MODEL 6
REMARK VINA RESULT:      -6.1      6.105      8.756
REMARK  Name = 
REMARK  4 active torsions:
REMARK  status: ('A' for Active; 'I' for Inactive)
REMARK    1  A    between atoms: C_1  and  C_2
REMARK    2  A    between atoms: C_4  and  C_5
REMARK    3  A    between atoms: C_13  and  C_15
REMARK    4  A    between atoms: C_20  and  C_21
REMARK                            x       y       z     vdW  Elec       q    Type
REMARK                         _______ _______ _______ _____ _____    ______ ____
ROOT
ATOM      1  C   UNL     1      11.284  13.621  16.405  0.00  0.00    +0.000 C 
ATOM      2  C   UNL     1      10.455  13.210  17.578  0.00  0.00    +0.000 A 
ATOM      3  C   UNL     1      10.698  12.033  18.252  0.00  0.00    +0.000 A 
ATOM      4  C   UNL     1       9.871  11.761  19.318  0.00  0.00    +0.000 A 
ATOM      5  C   UNL     1      10.043  10.530  20.152  0.00  0.00    +0.000 C 
ATOM      6  N   UNL     1       8.878  12.591  19.687  0.00  0.00    +0.000 NA
ATOM      7  C   UNL     1       8.710  13.728  18.994  0.00  0.00    +0.000 A 
ATOM      8  N   UNL     1       7.723  14.606  19.401  0.00  0.00    +0.000 N 
ATOM      9  C   UNL     1       7.929  16.007  19.061  0.00  0.00    +0.000 C 
ATOM     10  C   UNL     1       7.005  16.784  20.010  0.00  0.00    +0.000 C 
ATOM     11  C   UNL     1       5.784  17.374  19.311  0.00  0.00    +0.000 C 
ATOM     12  N   UNL     1       4.754  16.361  19.419  0.00  0.00    +0.000 N 
ATOM     13  C   UNL     1       3.663  16.357  18.557  0.00  0.00    +0.000 C 
ATOM     14  O   UNL     1       3.486  17.224  17.705  0.00  0.00    +0.000 OA
ATOM     15  C   UNL     1       4.993  15.535  20.592  0.00  0.00    +0.000 C 
ATOM     16  C   UNL     1       6.451  15.737  20.993  0.00  0.00    +0.000 C 
ATOM     17  C   UNL     1       7.284  14.479  20.776  0.00  0.00    +0.000 C 
ATOM     18  N   UNL     1       9.472  14.056  17.940  0.00  0.00    +0.000 NA
ENDROOT
BRANCH  13  19
ATOM     19  C   UNL     1       2.641  15.287  18.668  0.00  0.00    +0.000 A 
ATOM     20  C   UNL     1       2.930  14.019  18.135  0.00  0.00    +0.000 A 
ATOM     21  C   UNL     1       1.995  12.993  18.182  0.00  0.00    +0.000 A 
ATOM     22  C   UNL     1       0.810  13.234  18.836  0.00  0.00    +0.000 A 
ATOM     23  N   UNL     1       0.518  14.411  19.422  0.00  0.00    +0.000 NA
ATOM     24  C   UNL     1       1.425  15.449  19.341  0.00  0.00    +0.000 A 
BRANCH  24  25
ATOM     25  C   UNL     1       0.995  16.728  20.053  0.00  0.00    +0.000 C 
ATOM     26  F   UNL     1       0.805  17.833  19.285  0.00  0.00    +0.000 F 
ATOM     27  F   UNL     1      -0.199  16.562  20.703  0.00  0.00    +0.000 F 
ATOM     28  F   UNL     1       1.878  17.093  21.033  0.00  0.00    +0.000 F 
ENDBRANCH  24  25
ENDBRANCH  13  19
TORSDOF 2
ENDMDL
MODEL 7
REMARK VINA RESULT:      -6.0      2.949      4.375
REMARK  Name = 
REMARK  4 active torsions:
REMARK  status: ('A' for Active; 'I' for Inactive)
REMARK    1  A    between atoms: C_1  and  C_2
REMARK    2  A    between atoms: C_4  and  C_5
REMARK    3  A    between atoms: C_13  and  C_15
REMARK    4  A    between atoms: C_20  and  C_21
REMARK                            x       y       z     vdW  Elec       q    Type
REMARK                         _______ _______ _______ _____ _____    ______ ____
ROOT
ATOM      1  C   UNL     1       5.284  15.135  20.235  0.00  0.00    +0.000 C 
ATOM      2  C   UNL     1       3.975  15.347  19.547  0.00  0.00    +0.000 A 
ATOM      3  C   UNL     1       3.786  16.394  18.671  0.00  0.00    +0.000 A 
ATOM      4  C   UNL     1       2.540  16.487  18.094  0.00  0.00    +0.000 A 
ATOM      5  C   UNL     1       2.209  17.561  17.105  0.00  0.00    +0.000 C 
ATOM      6  N   UNL     1       1.555  15.611  18.367  0.00  0.00    +0.000 NA
ATOM      7  C   UNL     1       1.816  14.606  19.218  0.00  0.00    +0.000 A 
ATOM      8  N   UNL     1       0.823  13.676  19.461  0.00  0.00    +0.000 N 
ATOM      9  C   UNL     1       1.269  12.351  19.869  0.00  0.00    +0.000 C 
ATOM     10  C   UNL     1       0.071  11.430  19.596  0.00  0.00    +0.000 C 
ATOM     11  C   UNL     1      -0.635  10.969  20.869  0.00  0.00    +0.000 C 
ATOM     12  N   UNL     1      -1.670  11.954  21.109  0.00  0.00    +0.000 N 
ATOM     13  C   UNL     1      -2.230  12.107  22.373  0.00  0.00    +0.000 C 
ATOM     14  O   UNL     1      -1.923  11.395  23.327  0.00  0.00    +0.000 OA
ATOM     15  C   UNL     1      -2.068  12.571  19.854  0.00  0.00    +0.000 C 
ATOM     16  C   UNL     1      -0.954  12.299  18.848  0.00  0.00    +0.000 C 
ATOM     17  C   UNL     1      -0.214  13.573  18.456  0.00  0.00    +0.000 C 
ATOM     18  N   UNL     1       3.004  14.456  19.823  0.00  0.00    +0.000 NA
ENDROOT
BRANCH  13  19
ATOM     19  C   UNL     1      -3.264  13.147  22.600  0.00  0.00    +0.000 A 
ATOM     20  C   UNL     1      -4.618  12.787  22.493  0.00  0.00    +0.000 A 
ATOM     21  C   UNL     1      -5.624  13.729  22.663  0.00  0.00    +0.000 A 
ATOM     22  C   UNL     1      -5.256  15.005  23.018  0.00  0.00    +0.000 A 
ATOM     23  N   UNL     1      -3.974  15.378  23.199  0.00  0.00    +0.000 NA
ATOM     24  C   UNL     1      -2.966  14.458  22.990  0.00  0.00    +0.000 A 
BRANCH  24  25
ATOM     25  C   UNL     1      -1.558  14.986  23.239  0.00  0.00    +0.000 C 
ATOM     26  F   UNL     1      -0.664  14.881  22.221  0.00  0.00    +0.000 F 
ATOM     27  F   UNL     1      -1.570  16.323  23.536  0.00  0.00    +0.000 F 
ATOM     28  F   UNL     1      -0.970  14.394  24.324  0.00  0.00    +0.000 F 
ENDBRANCH  24  25
ENDBRANCH  13  19
TORSDOF 2
ENDMDL
MODEL 8
REMARK VINA RESULT:      -6.0      5.086      8.962
REMARK  Name = 
REMARK  4 active torsions:
REMARK  status: ('A' for Active; 'I' for Inactive)
REMARK    1  A    between atoms: C_1  and  C_2
REMARK    2  A    between atoms: C_4  and  C_5
REMARK    3  A    between atoms: C_13  and  C_15
REMARK    4  A    between atoms: C_20  and  C_21
REMARK                            x       y       z     vdW  Elec       q    Type
REMARK                         _______ _______ _______ _____ _____    ______ ____
ROOT
ATOM      1  C   UNL     1      -1.810  11.761  23.423  0.00  0.00    +0.000 C 
ATOM      2  C   UNL     1      -0.759  11.293  22.469  0.00  0.00    +0.000 A 
ATOM      3  C   UNL     1      -0.450   9.957  22.341  0.00  0.00    +0.000 A 
ATOM      4  C   UNL     1       0.533   9.645  21.429  0.00  0.00    +0.000 A 
ATOM      5  C   UNL     1       0.947   8.229  21.172  0.00  0.00    +0.000 C 
ATOM      6  N   UNL     1       1.162  10.586  20.702  0.00  0.00    +0.000 NA
ATOM      7  C   UNL     1       0.798  11.867  20.868  0.00  0.00    +0.000 A 
ATOM      8  N   UNL     1       1.407  12.830  20.086  0.00  0.00    +0.000 N 
ATOM      9  C   UNL     1       0.638  14.043  19.845  0.00  0.00    +0.000 C 
ATOM     10  C   UNL     1       1.290  14.686  18.612  0.00  0.00    +0.000 C 
ATOM     11  C   UNL     1       2.100  15.936  18.944  0.00  0.00    +0.000 C 
ATOM     12  N   UNL     1       3.447  15.464  19.194  0.00  0.00    +0.000 N 
ATOM     13  C   UNL     1       4.349  16.233  19.921  0.00  0.00    +0.000 C 
ATOM     14  O   UNL     1       4.080  17.355  20.341  0.00  0.00    +0.000 OA
ATOM     15  C   UNL     1       3.680  14.226  18.468  0.00  0.00    +0.000 C 
ATOM     16  C   UNL     1       2.314  13.656  18.104  0.00  0.00    +0.000 C 
ATOM     17  C   UNL     1       2.013  12.364  18.856  0.00  0.00    +0.000 C 
ATOM     18  N   UNL     1      -0.146  12.247  21.742  0.00  0.00    +0.000 NA
ENDROOT
BRANCH  13  19
ATOM     19  C   UNL     1       5.712  15.710  20.192  0.00  0.00    +0.000 A 
ATOM     20  C   UNL     1       6.782  16.181  19.414  0.00  0.00    +0.000 A 
ATOM     21  C   UNL     1       8.071  15.700  19.604  0.00  0.00    +0.000 A 
ATOM     22  C   UNL     1       8.279  14.809  20.630  0.00  0.00    +0.000 A 
ATOM     23  N   UNL     1       7.296  14.382  21.445  0.00  0.00    +0.000 NA
ATOM     24  C   UNL     1       6.004  14.823  21.235  0.00  0.00    +0.000 A 
BRANCH  24  25
ATOM     25  C   UNL     1       4.978  14.288  22.227  0.00  0.00    +0.000 C 
ATOM     26  F   UNL     1       3.921  13.601  21.719  0.00  0.00    +0.000 F 
ATOM     27  F   UNL     1       5.548  13.415  23.115  0.00  0.00    +0.000 F 
ATOM     28  F   UNL     1       4.447  15.280  23.006  0.00  0.00    +0.000 F 
ENDBRANCH  24  25
ENDBRANCH  13  19
TORSDOF 2
ENDMDL
MODEL 9
REMARK VINA RESULT:      -5.9      4.470      7.145
REMARK  Name = 
REMARK  4 active torsions:
REMARK  status: ('A' for Active; 'I' for Inactive)
REMARK    1  A    between atoms: C_1  and  C_2
REMARK    2  A    between atoms: C_4  and  C_5
REMARK    3  A    between atoms: C_13  and  C_15
REMARK    4  A    between atoms: C_20  and  C_21
REMARK                            x       y       z     vdW  Elec       q    Type
REMARK                         _______ _______ _______ _____ _____    ______ ____
ROOT
ATOM      1  C   UNL     1       2.330   5.181  21.114  0.00  0.00    +0.000 C 
ATOM      2  C   UNL     1       2.516   6.186  20.024  0.00  0.00    +0.000 A 
ATOM      3  C   UNL     1       3.346   5.939  18.953  0.00  0.00    +0.000 A 
ATOM      4  C   UNL     1       3.435   6.937  18.010  0.00  0.00    +0.000 A 
ATOM      5  C   UNL     1       4.281   6.787  16.783  0.00  0.00    +0.000 C 
ATOM      6  N   UNL     1       2.756   8.093  18.121  0.00  0.00    +0.000 NA
ATOM      7  C   UNL     1       1.953   8.258  19.184  0.00  0.00    +0.000 A 
ATOM      8  N   UNL     1       1.215   9.424  19.276  0.00  0.00    +0.000 N 
ATOM      9  C   UNL     1      -0.019   9.344  20.044  0.00  0.00    +0.000 C 
ATOM     10  C   UNL     1      -0.845  10.557  19.589  0.00  0.00    +0.000 C 
ATOM     11  C   UNL     1      -0.921  11.660  20.641  0.00  0.00    +0.000 C 
ATOM     12  N   UNL     1       0.197  12.537  20.357  0.00  0.00    +0.000 N 
ATOM     13  C   UNL     1       0.696  13.395  21.331  0.00  0.00    +0.000 C 
ATOM     14  O   UNL     1       0.196  13.496  22.448  0.00  0.00    +0.000 OA
ATOM     15  C   UNL     1       0.546  12.453  18.948  0.00  0.00    +0.000 C 
ATOM     16  C   UNL     1      -0.068  11.165  18.409  0.00  0.00    +0.000 C 
ATOM     17  C   UNL     1       0.994  10.138  18.035  0.00  0.00    +0.000 C 
ATOM     18  N   UNL     1       1.821   7.333  20.146  0.00  0.00    +0.000 NA
ENDROOT
BRANCH  13  19
ATOM     19  C   UNL     1       1.864  14.257  21.024  0.00  0.00    +0.000 A 
ATOM     20  C   UNL     1       3.156  13.736  21.214  0.00  0.00    +0.000 A 
ATOM     21  C   UNL     1       4.282  14.512  20.974  0.00  0.00    +0.000 A 
ATOM     22  C   UNL     1       4.095  15.778  20.470  0.00  0.00    +0.000 A 
ATOM     23  N   UNL     1       2.879  16.293  20.207  0.00  0.00    +0.000 NA
ATOM     24  C   UNL     1       1.753  15.543  20.484  0.00  0.00    +0.000 A 
BRANCH  24  25
ATOM     25  C   UNL     1       0.433  16.221  20.131  0.00  0.00    +0.000 C 
ATOM     26  F   UNL     1      -0.527  16.250  21.093  0.00  0.00    +0.000 F 
ATOM     27  F   UNL     1       0.619  17.537  19.803  0.00  0.00    +0.000 F 
ATOM     28  F   UNL     1      -0.152  15.666  19.026  0.00  0.00    +0.000 F 
ENDBRANCH  24  25
ENDBRANCH  13  19
TORSDOF 2
ENDMDL
