MODEL 1
REMARK VINA RESULT:      -8.5      0.000      0.000
REMARK  Name = 
REMARK  7 active torsions:
REMARK  status: ('A' for Active; 'I' for Inactive)
REMARK    1  A    between atoms: C_1  and  N_2
REMARK    2  A    between atoms: C_5  and  C_6
REMARK    3  A    between atoms: C_6  and  C_8
REMARK    4  A    between atoms: N_14  and  C_15
REMARK    5  A    between atoms: C_15  and  C_16
REMARK    6  A    between atoms: N_24  and  C_25
REMARK    7  A    between atoms: C_26  and  O_27
REMARK                            x       y       z     vdW  Elec       q    Type
REMARK                         _______ _______ _______ _____ _____    ______ ____
ROOT
ATOM      1  C   UNL     1       2.926   7.206  17.724  0.00  0.00    +0.000 A 
ATOM      2  C   UNL     1       2.218   6.034  18.061  0.00  0.00    +0.000 A 
ATOM      3  C   UNL     1       2.659   4.806  17.618  0.00  0.00    +0.000 A 
ATOM      4  C   UNL     1       4.024   4.734  17.467  0.00  0.00    +0.000 A 
ATOM      5  C   UNL     1       4.754   5.768  16.882  0.00  0.00    +0.000 A 
ATOM      6  C   UNL     1       4.160   7.062  17.024  0.00  0.00    +0.000 A 
ATOM      7  N   UNL     1       6.164   5.559  17.200  0.00  0.00    +0.000 N 
ATOM      8  C   UNL     1       6.092   4.847  18.454  0.00  0.00    +0.000 A 
ATOM      9  O   UNL     1       7.013   4.697  19.261  0.00  0.00    +0.000 OA
ATOM     10  N   UNL     1       4.815   4.259  18.536  0.00  0.00    +0.000 N 
ATOM     11  C   UNL     1       4.279   3.739  19.769  0.00  0.00    +0.000 C 
ENDROOT
BRANCH   1  12
ATOM     12  C   UNL     1       2.186   8.448  18.206  0.00  0.00    +0.000 C 
ATOM     13  O   UNL     1       2.041   9.356  17.374  0.00  0.00    +0.000 OA
BRANCH  12  18
ATOM     14  C   UNL     1      -0.378  10.606  21.850  0.00  0.00    +0.000 C 
ATOM     15  N   UNL     1       0.442   9.669  21.108  0.00  0.00    +0.000 N 
ATOM     16  N   UNL     1       0.904   8.549  21.698  0.00  0.00    +0.000 NA
ATOM     17  C   UNL     1       1.583   7.939  20.720  0.00  0.00    +0.000 A 
ATOM     18  C   UNL     1       1.600   8.659  19.512  0.00  0.00    +0.000 A 
ATOM     19  C   UNL     1       0.830   9.786  19.805  0.00  0.00    +0.000 A 
BRANCH  19  20
ATOM     20  O   UNL     1       0.468  10.837  19.067  0.00  0.00    +0.000 OA
ATOM     21  H   UNL     1       1.300  11.279  18.785  0.00  0.00    +0.000 HD
ENDBRANCH  19  20
ENDBRANCH  12  18
ENDBRANCH   1  12
BRANCH   7  22
ATOM     22  C   UNL     1       7.014   4.663  16.381  0.00  0.00    +0.000 C 
BRANCH  22  23
ATOM     23  C   UNL     1       6.935   4.585  14.881  0.00  0.00    +0.000 A 
ATOM     24  C   UNL     1       7.802   5.269  14.032  0.00  0.00    +0.000 A 
ATOM     25  C   UNL     1       7.702   5.108  12.644  0.00  0.00    +0.000 A 
ATOM     26  C   UNL     1       6.758   4.240  12.090  0.00  0.00    +0.000 A 
ATOM     27  C   UNL     1       5.942   3.487  12.926  0.00  0.00    +0.000 A 
ATOM     28  C   UNL     1       6.039   3.650  14.309  0.00  0.00    +0.000 A 
ENDBRANCH  22  23
ENDBRANCH   7  22
TORSDOF 5
ENDMDL
MODEL 2
REMARK VINA RESULT:      -8.2      1.840      2.598
REMARK  Name = 
REMARK  7 active torsions:
REMARK  status: ('A' for Active; 'I' for Inactive)
REMARK    1  A    between atoms: C_1  and  N_2
REMARK    2  A    between atoms: C_5  and  C_6
REMARK    3  A    between atoms: C_6  and  C_8
REMARK    4  A    between atoms: N_14  and  C_15
REMARK    5  A    between atoms: C_15  and  C_16
REMARK    6  A    between atoms: N_24  and  C_25
REMARK    7  A    between atoms: C_26  and  O_27
REMARK                            x       y       z     vdW  Elec       q    Type
REMARK                         _______ _______ _______ _____ _____    ______ ____
ROOT
ATOM      1  C   UNL     1       3.623   5.600  18.654  0.00  0.00    +0.000 A 
ATOM      2  C   UNL     1       4.412   4.925  19.608  0.00  0.00    +0.000 A 
ATOM      3  C   UNL     1       5.477   4.149  19.204  0.00  0.00    +0.000 A 
ATOM      4  C   UNL     1       6.073   4.594  18.047  0.00  0.00    +0.000 A 
ATOM      5  C   UNL     1       5.324   5.026  16.953  0.00  0.00    +0.000 A 
ATOM      6  C   UNL     1       4.036   5.548  17.290  0.00  0.00    +0.000 A 
ATOM      7  N   UNL     1       6.216   5.762  16.061  0.00  0.00    +0.000 N 
ATOM      8  C   UNL     1       7.207   6.276  16.976  0.00  0.00    +0.000 A 
ATOM      9  O   UNL     1       8.005   7.189  16.748  0.00  0.00    +0.000 OA
ATOM     10  N   UNL     1       7.176   5.473  18.132  0.00  0.00    +0.000 N 
ATOM     11  C   UNL     1       7.800   5.870  19.368  0.00  0.00    +0.000 C 
ENDROOT
BRANCH   1  12
ATOM     12  C   UNL     1       2.431   6.282  19.315  0.00  0.00    +0.000 C 
ATOM     13  O   UNL     1       1.790   5.597  20.126  0.00  0.00    +0.000 OA
BRANCH  12  18
ATOM     14  C   UNL     1       0.740  10.804  20.409  0.00  0.00    +0.000 C 
ATOM     15  N   UNL     1       1.237   9.658  19.674  0.00  0.00    +0.000 N 
ATOM     16  N   UNL     1       1.415   9.727  18.340  0.00  0.00    +0.000 NA
ATOM     17  C   UNL     1       1.895   8.516  18.027  0.00  0.00    +0.000 A 
ATOM     18  C   UNL     1       2.000   7.650  19.130  0.00  0.00    +0.000 A 
ATOM     19  C   UNL     1       1.567   8.441  20.197  0.00  0.00    +0.000 A 
BRANCH  19  20
ATOM     20  O   UNL     1       1.449   8.194  21.502  0.00  0.00    +0.000 OA
ATOM     21  H   UNL     1       1.245   9.055  21.931  0.00  0.00    +0.000 HD
ENDBRANCH  19  20
ENDBRANCH  12  18
ENDBRANCH   1  12
BRANCH   7  22
ATOM     22  C   UNL     1       7.050   5.063  15.056  0.00  0.00    +0.000 C 
BRANCH  22  23
ATOM     23  C   UNL     1       6.485   4.334  13.867  0.00  0.00    +0.000 A 
ATOM     24  C   UNL     1       5.146   3.966  13.761  0.00  0.00    +0.000 A 
ATOM     25  C   UNL     1       4.679   3.336  12.601  0.00  0.00    +0.000 A 
ATOM     26  C   UNL     1       5.535   3.093  11.524  0.00  0.00    +0.000 A 
ATOM     27  C   UNL     1       6.853   3.530  11.580  0.00  0.00    +0.000 A 
ATOM     28  C   UNL     1       7.319   4.155  12.738  0.00  0.00    +0.000 A 
ENDBRANCH  22  23
ENDBRANCH   7  22
TORSDOF 5
ENDMDL
MODEL 3
REMARK VINA RESULT:      -7.8      1.114      1.615
REMARK  Name = 
REMARK  7 active torsions:
REMARK  status: ('A' for Active; 'I' for Inactive)
REMARK    1  A    between atoms: C_1  and  N_2
REMARK    2  A    between atoms: C_5  and  C_6
REMARK    3  A    between atoms: C_6  and  C_8
REMARK    4  A    between atoms: N_14  and  C_15
REMARK    5  A    between atoms: C_15  and  C_16
REMARK    6  A    between atoms: N_24  and  C_25
REMARK    7  A    between atoms: C_26  and  O_27
REMARK                            x       y       z     vdW  Elec       q    Type
REMARK                         _______ _______ _______ _____ _____    ______ ____
ROOT
ATOM      1  C   UNL     1       2.747   7.747  17.835  0.00  0.00    +0.000 A 
ATOM      2  C   UNL     1       1.881   6.689  18.184  0.00  0.00    +0.000 A 
ATOM      3  C   UNL     1       2.210   5.390  17.866  0.00  0.00    +0.000 A 
ATOM      4  C   UNL     1       3.565   5.156  17.841  0.00  0.00    +0.000 A 
ATOM      5  C   UNL     1       4.456   6.055  17.257  0.00  0.00    +0.000 A 
ATOM      6  C   UNL     1       4.009   7.413  17.258  0.00  0.00    +0.000 A 
ATOM      7  N   UNL     1       5.801   5.715  17.713  0.00  0.00    +0.000 N 
ATOM      8  C   UNL     1       5.545   5.113  19.000  0.00  0.00    +0.000 A 
ATOM      9  O   UNL     1       6.373   4.924  19.894  0.00  0.00    +0.000 OA
ATOM     10  N   UNL     1       4.206   4.679  19.007  0.00  0.00    +0.000 N 
ATOM     11  C   UNL     1       3.514   4.317  20.218  0.00  0.00    +0.000 C 
ENDROOT
BRANCH   1  12
ATOM     12  C   UNL     1       2.121   9.096  18.165  0.00  0.00    +0.000 C 
ATOM     13  O   UNL     1       2.528  10.064  17.506  0.00  0.00    +0.000 OA
BRANCH  12  18
ATOM     14  C   UNL     1      -0.349   9.064  22.456  0.00  0.00    +0.000 C 
ATOM     15  N   UNL     1       0.012   9.310  21.073  0.00  0.00    +0.000 N 
ATOM     16  N   UNL     1      -0.808  10.014  20.269  0.00  0.00    +0.000 NA
ATOM     17  C   UNL     1      -0.146  10.053  19.106  0.00  0.00    +0.000 A 
ATOM     18  C   UNL     1       1.076   9.357  19.131  0.00  0.00    +0.000 A 
ATOM     19  C   UNL     1       1.149   8.891  20.445  0.00  0.00    +0.000 A 
BRANCH  19  20
ATOM     20  O   UNL     1       2.072   8.177  21.090  0.00  0.00    +0.000 OA
ATOM     21  H   UNL     1       2.805   8.798  21.304  0.00  0.00    +0.000 HD
ENDBRANCH  19  20
ENDBRANCH  12  18
ENDBRANCH   1  12
BRANCH   7  22
ATOM     22  C   UNL     1       6.604   4.670  17.035  0.00  0.00    +0.000 C 
BRANCH  22  23
ATOM     23  C   UNL     1       6.610   4.463  15.544  0.00  0.00    +0.000 A 
ATOM     24  C   UNL     1       5.632   3.738  14.869  0.00  0.00    +0.000 A 
ATOM     25  C   UNL     1       5.673   3.631  13.473  0.00  0.00    +0.000 A 
ATOM     26  C   UNL     1       6.671   4.270  12.734  0.00  0.00    +0.000 A 
ATOM     27  C   UNL     1       7.605   5.067  13.386  0.00  0.00    +0.000 A 
ATOM     28  C   UNL     1       7.566   5.171  14.777  0.00  0.00    +0.000 A 
ENDBRANCH  22  23
ENDBRANCH   7  22
TORSDOF 5
ENDMDL
MODEL 4
REMARK VINA RESULT:      -7.8      2.529      8.014
REMARK  Name = 
REMARK  7 active torsions:
REMARK  status: ('A' for Active; 'I' for Inactive)
REMARK    1  A    between atoms: C_1  and  N_2
REMARK    2  A    between atoms: C_5  and  C_6
REMARK    3  A    between atoms: C_6  and  C_8
REMARK    4  A    between atoms: N_14  and  C_15
REMARK    5  A    between atoms: C_15  and  C_16
REMARK    6  A    between atoms: N_24  and  C_25
REMARK    7  A    between atoms: C_26  and  O_27
REMARK                            x       y       z     vdW  Elec       q    Type
REMARK                         _______ _______ _______ _____ _____    ______ ____
ROOT
ATOM      1  C   UNL     1       5.901   5.726  17.327  0.00  0.00    +0.000 A 
ATOM      2  C   UNL     1       6.372   4.759  18.240  0.00  0.00    +0.000 A 
ATOM      3  C   UNL     1       5.848   4.692  19.513  0.00  0.00    +0.000 A 
ATOM      4  C   UNL     1       4.532   5.087  19.586  0.00  0.00    +0.000 A 
ATOM      5  C   UNL     1       4.062   6.212  18.910  0.00  0.00    +0.000 A 
ATOM      6  C   UNL     1       4.796   6.536  17.726  0.00  0.00    +0.000 A 
ATOM      7  N   UNL     1       2.604   6.146  18.886  0.00  0.00    +0.000 N 
ATOM      8  C   UNL     1       2.362   4.723  18.938  0.00  0.00    +0.000 A 
ATOM      9  O   UNL     1       1.304   4.153  18.656  0.00  0.00    +0.000 OA
ATOM     10  N   UNL     1       3.512   4.115  19.476  0.00  0.00    +0.000 N 
ATOM     11  C   UNL     1       3.752   2.698  19.388  0.00  0.00    +0.000 C 
ENDROOT
BRANCH   1  12
ATOM     12  C   UNL     1       6.711   5.700  16.038  0.00  0.00    +0.000 C 
ATOM     13  O   UNL     1       7.741   6.390  16.025  0.00  0.00    +0.000 OA
BRANCH  12  18
ATOM     14  C   UNL     1       7.212   3.857  11.470  0.00  0.00    +0.000 C 
ATOM     15  N   UNL     1       6.700   4.132  12.798  0.00  0.00    +0.000 N 
ATOM     16  N   UNL     1       5.571   3.537  13.232  0.00  0.00    +0.000 NA
ATOM     17  C   UNL     1       5.430   4.007  14.477  0.00  0.00    +0.000 A 
ATOM     18  C   UNL     1       6.430   4.924  14.850  0.00  0.00    +0.000 A 
ATOM     19  C   UNL     1       7.251   4.972  13.722  0.00  0.00    +0.000 A 
BRANCH  19  20
ATOM     20  O   UNL     1       8.370   5.649  13.460  0.00  0.00    +0.000 OA
ATOM     21  H   UNL     1       8.327   5.901  12.510  0.00  0.00    +0.000 HD
ENDBRANCH  19  20
ENDBRANCH  12  18
ENDBRANCH   1  12
BRANCH   7  22
ATOM     22  C   UNL     1       1.791   6.642  20.021  0.00  0.00    +0.000 C 
BRANCH  22  23
ATOM     23  C   UNL     1       1.461   8.095  20.234  0.00  0.00    +0.000 A 
ATOM     24  C   UNL     1       1.383   9.022  19.199  0.00  0.00    +0.000 A 
ATOM     25  C   UNL     1       1.018  10.348  19.466  0.00  0.00    +0.000 A 
ATOM     26  C   UNL     1       0.699  10.755  20.763  0.00  0.00    +0.000 A 
ATOM     27  C   UNL     1       0.690   9.823  21.794  0.00  0.00    +0.000 A 
ATOM     28  C   UNL     1       1.056   8.503  21.528  0.00  0.00    +0.000 A 
ENDBRANCH  22  23
ENDBRANCH   7  22
TORSDOF 5
ENDMDL
MODEL 5
REMARK VINA RESULT:      -7.5      3.864      5.772
REMARK  Name = 
REMARK  7 active torsions:
REMARK  status: ('A' for Active; 'I' for Inactive)
REMARK    1  A    between atoms: C_1  and  N_2
REMARK    2  A    between atoms: C_5  and  C_6
REMARK    3  A    between atoms: C_6  and  C_8
REMARK    4  A    between atoms: N_14  and  C_15
REMARK    5  A    between atoms: C_15  and  C_16
REMARK    6  A    between atoms: N_24  and  C_25
REMARK    7  A    between atoms: C_26  and  O_27
REMARK                            x       y       z     vdW  Elec       q    Type
REMARK                         _______ _______ _______ _____ _____    ______ ____
ROOT
ATOM      1  C   UNL     1       3.835   6.038  17.429  0.00  0.00    +0.000 A 
ATOM      2  C   UNL     1       4.390   5.043  16.598  0.00  0.00    +0.000 A 
ATOM      3  C   UNL     1       5.551   5.290  15.899  0.00  0.00    +0.000 A 
ATOM      4  C   UNL     1       6.398   6.169  16.534  0.00  0.00    +0.000 A 
ATOM      5  C   UNL     1       5.927   7.329  17.148  0.00  0.00    +0.000 A 
ATOM      6  C   UNL     1       4.576   7.245  17.610  0.00  0.00    +0.000 A 
ATOM      7  N   UNL     1       6.981   7.834  18.024  0.00  0.00    +0.000 N 
ATOM      8  C   UNL     1       7.694   6.627  18.371  0.00  0.00    +0.000 A 
ATOM      9  O   UNL     1       8.486   6.492  19.307  0.00  0.00    +0.000 OA
ATOM     10  N   UNL     1       7.409   5.666  17.382  0.00  0.00    +0.000 N 
ATOM     11  C   UNL     1       7.691   4.264  17.560  0.00  0.00    +0.000 C 
ENDROOT
BRANCH   1  12
ATOM     12  C   UNL     1       2.491   5.594  17.991  0.00  0.00    +0.000 C 
ATOM     13  O   UNL     1       1.531   6.348  17.774  0.00  0.00    +0.000 OA
BRANCH  12  18
ATOM     14  C   UNL     1       1.770   2.499  21.787  0.00  0.00    +0.000 C 
ATOM     15  N   UNL     1       1.900   3.027  20.443  0.00  0.00    +0.000 N 
ATOM     16  N   UNL     1       1.730   2.224  19.374  0.00  0.00    +0.000 NA
ATOM     17  C   UNL     1       1.900   3.050  18.335  0.00  0.00    +0.000 A 
ATOM     18  C   UNL     1       2.210   4.370  18.708  0.00  0.00    +0.000 A 
ATOM     19  C   UNL     1       2.191   4.317  20.104  0.00  0.00    +0.000 A 
BRANCH  19  20
ATOM     20  O   UNL     1       2.395   5.248  21.036  0.00  0.00    +0.000 OA
ATOM     21  H   UNL     1       2.968   5.933  20.623  0.00  0.00    +0.000 HD
ENDBRANCH  19  20
ENDBRANCH  12  18
ENDBRANCH   1  12
BRANCH   7  22
ATOM     22  C   UNL     1       8.067   8.699  17.504  0.00  0.00    +0.000 C 
BRANCH  22  23
ATOM     23  C   UNL     1       8.544   9.943  18.202  0.00  0.00    +0.000 A 
ATOM     24  C   UNL     1       9.262   9.923  19.395  0.00  0.00    +0.000 A 
ATOM     25  C   UNL     1       9.720  11.120  19.961  0.00  0.00    +0.000 A 
ATOM     26  C   UNL     1       9.493  12.345  19.328  0.00  0.00    +0.000 A 
ATOM     27  C   UNL     1       8.851  12.373  18.096  0.00  0.00    +0.000 A 
ATOM     28  C   UNL     1       8.392  11.182  17.534  0.00  0.00    +0.000 A 
ENDBRANCH  22  23
ENDBRANCH   7  22
TORSDOF 5
ENDMDL
MODEL 6
REMARK VINA RESULT:      -7.5      1.631      1.968
REMARK  Name = 
REMARK  7 active torsions:
REMARK  status: ('A' for Active; 'I' for Inactive)
REMARK    1  A    between atoms: C_1  and  N_2
REMARK    2  A    between atoms: C_5  and  C_6
REMARK    3  A    between atoms: C_6  and  C_8
REMARK    4  A    between atoms: N_14  and  C_15
REMARK    5  A    between atoms: C_15  and  C_16
REMARK    6  A    between atoms: N_24  and  C_25
REMARK    7  A    between atoms: C_26  and  O_27
REMARK                            x       y       z     vdW  Elec       q    Type
REMARK                         _______ _______ _______ _____ _____    ______ ____
ROOT
ATOM      1  C   UNL     1       2.282   6.262  19.034  0.00  0.00    +0.000 A 
ATOM      2  C   UNL     1       1.917   5.089  19.727  0.00  0.00    +0.000 A 
ATOM      3  C   UNL     1       2.135   3.852  19.161  0.00  0.00    +0.000 A 
ATOM      4  C   UNL     1       3.229   3.815  18.327  0.00  0.00    +0.000 A 
ATOM      5  C   UNL     1       3.494   4.836  17.416  0.00  0.00    +0.000 A 
ATOM      6  C   UNL     1       2.985   6.116  17.801  0.00  0.00    +0.000 A 
ATOM      7  N   UNL     1       4.875   4.689  16.965  0.00  0.00    +0.000 N 
ATOM      8  C   UNL     1       5.500   4.049  18.099  0.00  0.00    +0.000 A 
ATOM      9  O   UNL     1       6.711   3.974  18.317  0.00  0.00    +0.000 OA
ATOM     10  N   UNL     1       4.483   3.427  18.849  0.00  0.00    +0.000 N 
ATOM     11  C   UNL     1       4.689   2.962  20.197  0.00  0.00    +0.000 C 
ENDROOT
BRANCH   1  12
ATOM     12  C   UNL     1       1.828   7.506  19.788  0.00  0.00    +0.000 C 
ATOM     13  O   UNL     1       1.626   7.366  21.003  0.00  0.00    +0.000 OA
BRANCH  12  18
ATOM     14  C   UNL     1       0.297  12.198  19.406  0.00  0.00    +0.000 C 
ATOM     15  N   UNL     1       0.937  10.928  19.123  0.00  0.00    +0.000 N 
ATOM     16  N   UNL     1       1.659  10.764  17.997  0.00  0.00    +0.000 NA
ATOM     17  C   UNL     1       2.101   9.504  18.093  0.00  0.00    +0.000 A 
ATOM     18  C   UNL     1       1.651   8.835  19.246  0.00  0.00    +0.000 A 
ATOM     19  C   UNL     1       0.897   9.809  19.902  0.00  0.00    +0.000 A 
BRANCH  19  20
ATOM     20  O   UNL     1       0.223   9.791  21.053  0.00  0.00    +0.000 OA
ATOM     21  H   UNL     1       0.880   9.589  21.757  0.00  0.00    +0.000 HD
ENDBRANCH  19  20
ENDBRANCH  12  18
ENDBRANCH   1  12
BRANCH   7  22
ATOM     22  C   UNL     1       5.231   3.775  15.855  0.00  0.00    +0.000 C 
BRANCH  22  23
ATOM     23  C   UNL     1       6.021   4.202  14.648  0.00  0.00    +0.000 A 
ATOM     24  C   UNL     1       7.101   5.079  14.711  0.00  0.00    +0.000 A 
ATOM     25  C   UNL     1       7.824   5.391  13.552  0.00  0.00    +0.000 A 
ATOM     26  C   UNL     1       7.496   4.808  12.326  0.00  0.00    +0.000 A 
ATOM     27  C   UNL     1       6.475   3.867  12.261  0.00  0.00    +0.000 A 
ATOM     28  C   UNL     1       5.754   3.559  13.415  0.00  0.00    +0.000 A 
ENDBRANCH  22  23
ENDBRANCH   7  22
TORSDOF 5
ENDMDL
MODEL 7
REMARK VINA RESULT:      -7.4      1.697      2.609
REMARK  Name = 
REMARK  7 active torsions:
REMARK  status: ('A' for Active; 'I' for Inactive)
REMARK    1  A    between atoms: C_1  and  N_2
REMARK    2  A    between atoms: C_5  and  C_6
REMARK    3  A    between atoms: C_6  and  C_8
REMARK    4  A    between atoms: N_14  and  C_15
REMARK    5  A    between atoms: C_15  and  C_16
REMARK    6  A    between atoms: N_24  and  C_25
REMARK    7  A    between atoms: C_26  and  O_27
REMARK                            x       y       z     vdW  Elec       q    Type
REMARK                         _______ _______ _______ _____ _____    ______ ____
ROOT
ATOM      1  C   UNL     1       3.519   5.224  18.766  0.00  0.00    +0.000 A 
ATOM      2  C   UNL     1       4.381   4.583  19.680  0.00  0.00    +0.000 A 
ATOM      3  C   UNL     1       5.528   3.962  19.234  0.00  0.00    +0.000 A 
ATOM      4  C   UNL     1       6.068   4.547  18.113  0.00  0.00    +0.000 A 
ATOM      5  C   UNL     1       5.275   4.960  17.043  0.00  0.00    +0.000 A 
ATOM      6  C   UNL     1       3.935   5.308  17.404  0.00  0.00    +0.000 A 
ATOM      7  N   UNL     1       6.075   5.850  16.206  0.00  0.00    +0.000 N 
ATOM      8  C   UNL     1       7.001   6.414  17.160  0.00  0.00    +0.000 A 
ATOM      9  O   UNL     1       7.689   7.425  16.997  0.00  0.00    +0.000 OA
ATOM     10  N   UNL     1       7.063   5.539  18.261  0.00  0.00    +0.000 N 
ATOM     11  C   UNL     1       7.638   5.924  19.525  0.00  0.00    +0.000 C 
ENDROOT
BRANCH   1  12
ATOM     12  C   UNL     1       2.258   5.720  19.461  0.00  0.00    +0.000 C 
ATOM     13  O   UNL     1       1.460   4.848  19.835  0.00  0.00    +0.000 OA
BRANCH  12  18
ATOM     14  C   UNL     1       1.396  10.550  18.799  0.00  0.00    +0.000 C 
ATOM     15  N   UNL     1       1.546   9.248  19.418  0.00  0.00    +0.000 N 
ATOM     16  N   UNL     1       1.328   9.090  20.739  0.00  0.00    +0.000 NA
ATOM     17  C   UNL     1       1.535   7.782  20.934  0.00  0.00    +0.000 A 
ATOM     18  C   UNL     1       1.917   7.092  19.769  0.00  0.00    +0.000 A 
ATOM     19  C   UNL     1       1.903   8.089  18.792  0.00  0.00    +0.000 A 
BRANCH  19  20
ATOM     20  O   UNL     1       2.161   8.061  17.484  0.00  0.00    +0.000 OA
ATOM     21  H   UNL     1       1.549   7.396  17.094  0.00  0.00    +0.000 HD
ENDBRANCH  19  20
ENDBRANCH  12  18
ENDBRANCH   1  12
BRANCH   7  22
ATOM     22  C   UNL     1       6.984   5.317  15.165  0.00  0.00    +0.000 C 
BRANCH  22  23
ATOM     23  C   UNL     1       6.513   4.520  13.978  0.00  0.00    +0.000 A 
ATOM     24  C   UNL     1       5.212   4.044  13.845  0.00  0.00    +0.000 A 
ATOM     25  C   UNL     1       4.830   3.353  12.687  0.00  0.00    +0.000 A 
ATOM     26  C   UNL     1       5.733   3.157  11.640  0.00  0.00    +0.000 A 
ATOM     27  C   UNL     1       7.010   3.700  11.722  0.00  0.00    +0.000 A 
ATOM     28  C   UNL     1       7.391   4.385  12.876  0.00  0.00    +0.000 A 
ENDBRANCH  22  23
ENDBRANCH   7  22
TORSDOF 5
ENDMDL
MODEL 8
REMARK VINA RESULT:      -7.3      1.812      2.539
REMARK  Name = 
REMARK  7 active torsions:
REMARK  status: ('A' for Active; 'I' for Inactive)
REMARK    1  A    between atoms: C_1  and  N_2
REMARK    2  A    between atoms: C_5  and  C_6
REMARK    3  A    between atoms: C_6  and  C_8
REMARK    4  A    between atoms: N_14  and  C_15
REMARK    5  A    between atoms: C_15  and  C_16
REMARK    6  A    between atoms: N_24  and  C_25
REMARK    7  A    between atoms: C_26  and  O_27
REMARK                            x       y       z     vdW  Elec       q    Type
REMARK                         _______ _______ _______ _____ _____    ______ ____
ROOT
ATOM      1  C   UNL     1       1.755   6.728  19.854  0.00  0.00    +0.000 A 
ATOM      2  C   UNL     1       1.125   5.625  20.466  0.00  0.00    +0.000 A 
ATOM      3  C   UNL     1       1.152   4.387  19.862  0.00  0.00    +0.000 A 
ATOM      4  C   UNL     1       2.280   4.169  19.105  0.00  0.00    +0.000 A 
ATOM      5  C   UNL     1       2.800   5.149  18.261  0.00  0.00    +0.000 A 
ATOM      6  C   UNL     1       2.511   6.490  18.667  0.00  0.00    +0.000 A 
ATOM      7  N   UNL     1       4.160   4.758  17.901  0.00  0.00    +0.000 N 
ATOM      8  C   UNL     1       4.565   3.976  19.045  0.00  0.00    +0.000 A 
ATOM      9  O   UNL     1       5.721   3.666  19.344  0.00  0.00    +0.000 OA
ATOM     10  N   UNL     1       3.396   3.534  19.694  0.00  0.00    +0.000 N 
ATOM     11  C   UNL     1       3.407   2.998  21.031  0.00  0.00    +0.000 C 
ENDROOT
BRANCH   1  12
ATOM     12  C   UNL     1       1.485   8.011  20.629  0.00  0.00    +0.000 C 
ATOM     13  O   UNL     1       1.633   7.949  21.859  0.00  0.00    +0.000 OA
BRANCH  12  18
ATOM     14  C   UNL     1       0.159  12.778  20.457  0.00  0.00    +0.000 C 
ATOM     15  N   UNL     1       0.523  11.432  20.060  0.00  0.00    +0.000 N 
ATOM     16  N   UNL     1       0.587  11.099  18.756  0.00  0.00    +0.000 NA
ATOM     17  C   UNL     1       0.967   9.815  18.781  0.00  0.00    +0.000 A 
ATOM     18  C   UNL     1       1.118   9.298  20.080  0.00  0.00    +0.000 A 
ATOM     19  C   UNL     1       0.827  10.395  20.894  0.00  0.00    +0.000 A 
BRANCH  19  20
ATOM     20  O   UNL     1       0.810  10.545  22.219  0.00  0.00    +0.000 OA
ATOM     21  H   UNL     1       0.833   9.638  22.601  0.00  0.00    +0.000 HD
ENDBRANCH  19  20
ENDBRANCH  12  18
ENDBRANCH   1  12
BRANCH   7  22
ATOM     22  C   UNL     1       4.423   3.828  16.778  0.00  0.00    +0.000 C 
BRANCH  22  23
ATOM     23  C   UNL     1       5.425   4.101  15.690  0.00  0.00    +0.000 A 
ATOM     24  C   UNL     1       5.243   3.710  14.366  0.00  0.00    +0.000 A 
ATOM     25  C   UNL     1       6.196   4.045  13.395  0.00  0.00    +0.000 A 
ATOM     26  C   UNL     1       7.323   4.799  13.729  0.00  0.00    +0.000 A 
ATOM     27  C   UNL     1       7.478   5.268  15.028  0.00  0.00    +0.000 A 
ATOM     28  C   UNL     1       6.530   4.931  15.996  0.00  0.00    +0.000 A 
ENDBRANCH  22  23
ENDBRANCH   7  22
TORSDOF 5
ENDMDL
MODEL 9
REMARK VINA RESULT:      -6.9      1.080      1.267
REMARK  Name = 
REMARK  7 active torsions:
REMARK  status: ('A' for Active; 'I' for Inactive)
REMARK    1  A    between atoms: C_1  and  N_2
REMARK    2  A    between atoms: C_5  and  C_6
REMARK    3  A    between atoms: C_6  and  C_8
REMARK    4  A    between atoms: N_14  and  C_15
REMARK    5  A    between atoms: C_15  and  C_16
REMARK    6  A    between atoms: N_24  and  C_25
REMARK    7  A    between atoms: C_26  and  O_27
REMARK                            x       y       z     vdW  Elec       q    Type
REMARK                         _______ _______ _______ _____ _____    ______ ____
ROOT
ATOM      1  C   UNL     1       2.823   7.143  18.461  0.00  0.00    +0.000 A 
ATOM      2  C   UNL     1       3.128   6.400  19.621  0.00  0.00    +0.000 A 
ATOM      3  C   UNL     1       3.672   5.139  19.514  0.00  0.00    +0.000 A 
ATOM      4  C   UNL     1       4.455   4.971  18.395  0.00  0.00    +0.000 A 
ATOM      5  C   UNL     1       4.068   5.456  17.147  0.00  0.00    +0.000 A 
ATOM      6  C   UNL     1       3.206   6.597  17.200  0.00  0.00    +0.000 A 
ATOM      7  N   UNL     1       5.242   5.451  16.279  0.00  0.00    +0.000 N 
ATOM      8  C   UNL     1       6.322   5.609  17.224  0.00  0.00    +0.000 A 
ATOM      9  O   UNL     1       7.479   5.945  16.960  0.00  0.00    +0.000 OA
ATOM     10  N   UNL     1       5.846   5.200  18.485  0.00  0.00    +0.000 N 
ATOM     11  C   UNL     1       6.537   5.507  19.711  0.00  0.00    +0.000 C 
ENDROOT
BRANCH   1  12
ATOM     12  C   UNL     1       2.113   8.443  18.816  0.00  0.00    +0.000 C 
ATOM     13  O   UNL     1       2.103   9.319  17.939  0.00  0.00    +0.000 OA
BRANCH  12  18
ATOM     14  C   UNL     1      -0.539  10.963  22.152  0.00  0.00    +0.000 C 
ATOM     15  N   UNL     1       0.228   9.917  21.504  0.00  0.00    +0.000 N 
ATOM     16  N   UNL     1       0.464   8.751  22.138  0.00  0.00    +0.000 NA
ATOM     17  C   UNL     1       1.163   8.045  21.241  0.00  0.00    +0.000 A 
ATOM     18  C   UNL     1       1.415   8.744  20.047  0.00  0.00    +0.000 A 
ATOM     19  C   UNL     1       0.775   9.968  20.255  0.00  0.00    +0.000 A 
BRANCH  19  20
ATOM     20  O   UNL     1       0.644  11.049  19.486  0.00  0.00    +0.000 OA
ATOM     21  H   UNL     1       0.240  11.745  20.052  0.00  0.00    +0.000 HD
ENDBRANCH  19  20
ENDBRANCH  12  18
ENDBRANCH   1  12
BRANCH   7  22
ATOM     22  C   UNL     1       5.649   4.233  15.540  0.00  0.00    +0.000 C 
BRANCH  22  23
ATOM     23  C   UNL     1       6.177   4.252  14.131  0.00  0.00    +0.000 A 
ATOM     24  C   UNL     1       7.301   4.977  13.745  0.00  0.00    +0.000 A 
ATOM     25  C   UNL     1       7.766   4.906  12.425  0.00  0.00    +0.000 A 
ATOM     26  C   UNL     1       7.132   4.089  11.486  0.00  0.00    +0.000 A 
ATOM     27  C   UNL     1       6.060   3.295  11.877  0.00  0.00    +0.000 A 
ATOM     28  C   UNL     1       5.595   3.368  13.190  0.00  0.00    +0.000 A 
ENDBRANCH  22  23
ENDBRANCH   7  22
TORSDOF 5
ENDMDL
