MODEL 1
REMARK VINA RESULT:      -8.0      0.000      0.000
REMARK  Name = 
REMARK  3 active torsions:
REMARK  status: ('A' for Active; 'I' for Inactive)
REMARK    1  A    between atoms: C_2  and  C_4
REMARK    2  A    between atoms: C_7  and  N_8
REMARK    3  A    between atoms: C_14  and  N_15
REMARK                            x       y       z     vdW  Elec       q    Type
REMARK                         _______ _______ _______ _____ _____    ______ ____
ROOT
ATOM      1  C   UNL     1       5.613   5.118  15.491  0.00  0.00    +0.000 A 
ATOM      2  C   UNL     1       5.462   6.494  15.594  0.00  0.00    +0.000 A 
ATOM      3  C   UNL     1       4.598   7.024  16.549  0.00  0.00    +0.000 A 
ATOM      4  C   UNL     1       3.848   6.233  17.460  0.00  0.00    +0.000 A 
ATOM      5  C   UNL     1       3.993   4.812  17.295  0.00  0.00    +0.000 A 
ATOM      6  C   UNL     1       4.890   4.284  16.351  0.00  0.00    +0.000 A 
ENDROOT
BRANCH   5   7
ATOM      7  N   UNL     1       3.300   3.854  18.080  0.00  0.00    +0.000 N 
ATOM      8  C   UNL     1       1.989   3.532  17.837  0.00  0.00    +0.000 C 
ATOM      9  O   UNL     1       1.183   4.120  17.123  0.00  0.00    +0.000 OA
ATOM     10  C   UNL     1       1.659   2.246  18.544  0.00  0.00    +0.000 C 
ATOM     11  C   UNL     1       2.955   1.835  19.212  0.00  0.00    +0.000 C 
ATOM     12  C   UNL     1       3.898   2.990  18.972  0.00  0.00    +0.000 C 
ATOM     13  O   UNL     1       4.989   3.076  19.498  0.00  0.00    +0.000 OA
ENDBRANCH   5   7
BRANCH   4  14
ATOM     14  N   UNL     1       3.059   6.868  18.426  0.00  0.00    +0.000 N 
ATOM     15  C   UNL     1       3.118   6.459  19.832  0.00  0.00    +0.000 C 
ATOM     16  C   UNL     1       1.735   6.626  20.451  0.00  0.00    +0.000 C 
ATOM     17  C   UNL     1       1.305   8.081  20.374  0.00  0.00    +0.000 C 
ATOM     18  C   UNL     1       1.391   8.597  18.943  0.00  0.00    +0.000 C 
ATOM     19  C   UNL     1       2.757   8.315  18.322  0.00  0.00    +0.000 C 
ENDBRANCH   4  14
BRANCH   1  21
ATOM     20  N   UNL     1       6.155   3.468  13.800  0.00  0.00    +0.000 N 
ATOM     21  C   UNL     1       6.544   4.590  14.473  0.00  0.00    +0.000 C 
ATOM     22  O   UNL     1       7.593   5.159  14.201  0.00  0.00    +0.000 OA
ATOM     23  H   UNL     1       6.739   3.206  13.017  0.00  0.00    +0.000 HD
ATOM     24  H   UNL     1       5.191   3.165  13.787  0.00  0.00    +0.000 HD
ENDBRANCH   1  21
TORSDOF 3
ENDMDL
MODEL 2
REMARK VINA RESULT:      -7.9      0.363      1.656
REMARK  Name = 
REMARK  3 active torsions:
REMARK  status: ('A' for Active; 'I' for Inactive)
REMARK    1  A    between atoms: C_2  and  C_4
REMARK    2  A    between atoms: C_7  and  N_8
REMARK    3  A    between atoms: C_14  and  N_15
REMARK                            x       y       z     vdW  Elec       q    Type
REMARK                         _______ _______ _______ _____ _____    ______ ____
ROOT
ATOM      1  C   UNL     1       5.606   5.113  15.625  0.00  0.00    +0.000 A 
ATOM      2  C   UNL     1       5.483   6.490  15.752  0.00  0.00    +0.000 A 
ATOM      3  C   UNL     1       4.607   7.020  16.697  0.00  0.00    +0.000 A 
ATOM      4  C   UNL     1       3.819   6.227  17.573  0.00  0.00    +0.000 A 
ATOM      5  C   UNL     1       3.936   4.807  17.382  0.00  0.00    +0.000 A 
ATOM      6  C   UNL     1       4.845   4.278  16.449  0.00  0.00    +0.000 A 
ENDROOT
BRANCH   5   7
ATOM      7  N   UNL     1       3.205   3.849  18.131  0.00  0.00    +0.000 N 
ATOM      8  C   UNL     1       3.760   3.189  19.198  0.00  0.00    +0.000 C 
ATOM      9  O   UNL     1       4.942   3.134  19.525  0.00  0.00    +0.000 OA
ATOM     10  C   UNL     1       2.663   2.559  20.012  0.00  0.00    +0.000 C 
ATOM     11  C   UNL     1       1.386   2.957  19.302  0.00  0.00    +0.000 C 
ATOM     12  C   UNL     1       1.843   3.658  18.045  0.00  0.00    +0.000 C 
ATOM     13  O   UNL     1       1.085   3.983  17.153  0.00  0.00    +0.000 OA
ENDBRANCH   5   7
BRANCH   4  14
ATOM     14  N   UNL     1       3.020   6.860  18.532  0.00  0.00    +0.000 N 
ATOM     15  C   UNL     1       3.086   6.467  19.943  0.00  0.00    +0.000 C 
ATOM     16  C   UNL     1       1.702   6.619  20.561  0.00  0.00    +0.000 C 
ATOM     17  C   UNL     1       1.248   8.065  20.469  0.00  0.00    +0.000 C 
ATOM     18  C   UNL     1       1.325   8.568  19.033  0.00  0.00    +0.000 C 
ATOM     19  C   UNL     1       2.695   8.300  18.413  0.00  0.00    +0.000 C 
ENDBRANCH   4  14
BRANCH   1  21
ATOM     20  N   UNL     1       6.191   3.436  13.974  0.00  0.00    +0.000 N 
ATOM     21  C   UNL     1       6.550   4.586  14.618  0.00  0.00    +0.000 C 
ATOM     22  O   UNL     1       7.583   5.176  14.329  0.00  0.00    +0.000 OA
ATOM     23  H   UNL     1       6.782   3.171  13.197  0.00  0.00    +0.000 HD
ATOM     24  H   UNL     1       5.236   3.107  13.971  0.00  0.00    +0.000 HD
ENDBRANCH   1  21
TORSDOF 3
ENDMDL
MODEL 3
REMARK VINA RESULT:      -7.7      0.983      1.448
REMARK  Name = 
REMARK  3 active torsions:
REMARK  status: ('A' for Active; 'I' for Inactive)
REMARK    1  A    between atoms: C_2  and  C_4
REMARK    2  A    between atoms: C_7  and  N_8
REMARK    3  A    between atoms: C_14  and  N_15
REMARK                            x       y       z     vdW  Elec       q    Type
REMARK                         _______ _______ _______ _____ _____    ______ ____
ROOT
ATOM      1  C   UNL     1       5.583   5.008  16.440  0.00  0.00    +0.000 A 
ATOM      2  C   UNL     1       5.550   6.396  16.427  0.00  0.00    +0.000 A 
ATOM      3  C   UNL     1       4.560   7.069  17.138  0.00  0.00    +0.000 A 
ATOM      4  C   UNL     1       3.560   6.417  17.908  0.00  0.00    +0.000 A 
ATOM      5  C   UNL     1       3.595   4.980  17.861  0.00  0.00    +0.000 A 
ATOM      6  C   UNL     1       4.616   4.307  17.169  0.00  0.00    +0.000 A 
ENDROOT
BRANCH   5   7
ATOM      7  N   UNL     1       2.661   4.148  18.532  0.00  0.00    +0.000 N 
ATOM      8  C   UNL     1       1.437   3.851  17.987  0.00  0.00    +0.000 C 
ATOM      9  O   UNL     1       0.883   4.383  17.030  0.00  0.00    +0.000 OA
ATOM     10  C   UNL     1       0.851   2.670  18.711  0.00  0.00    +0.000 C 
ATOM     11  C   UNL     1       1.901   2.290  19.734  0.00  0.00    +0.000 C 
ATOM     12  C   UNL     1       2.951   3.372  19.633  0.00  0.00    +0.000 C 
ATOM     13  O   UNL     1       3.873   3.477  20.415  0.00  0.00    +0.000 OA
ENDBRANCH   5   7
BRANCH   4  14
ATOM     14  N   UNL     1       2.650   7.190  18.639  0.00  0.00    +0.000 N 
ATOM     15  C   UNL     1       1.664   8.033  17.959  0.00  0.00    +0.000 C 
ATOM     16  C   UNL     1       1.426   9.284  18.797  0.00  0.00    +0.000 C 
ATOM     17  C   UNL     1       0.890   8.897  20.164  0.00  0.00    +0.000 C 
ATOM     18  C   UNL     1       1.806   7.884  20.840  0.00  0.00    +0.000 C 
ATOM     19  C   UNL     1       2.108   6.698  19.927  0.00  0.00    +0.000 C 
ENDBRANCH   4  14
BRANCH   1  21
ATOM     20  N   UNL     1       6.276   3.630  14.570  0.00  0.00    +0.000 N 
ATOM     21  C   UNL     1       6.652   4.326  15.683  0.00  0.00    +0.000 C 
ATOM     22  O   UNL     1       7.830   4.421  16.000  0.00  0.00    +0.000 OA
ATOM     23  H   UNL     1       7.034   3.290  13.993  0.00  0.00    +0.000 HD
ATOM     24  H   UNL     1       5.382   3.784  14.126  0.00  0.00    +0.000 HD
ENDBRANCH   1  21
TORSDOF 3
ENDMDL
MODEL 4
REMARK VINA RESULT:      -7.4      1.082      1.106
REMARK  Name = 
REMARK  3 active torsions:
REMARK  status: ('A' for Active; 'I' for Inactive)
REMARK    1  A    between atoms: C_2  and  C_4
REMARK    2  A    between atoms: C_7  and  N_8
REMARK    3  A    between atoms: C_14  and  N_15
REMARK                            x       y       z     vdW  Elec       q    Type
REMARK                         _______ _______ _______ _____ _____    ______ ____
ROOT
ATOM      1  C   UNL     1       5.504   5.001  16.464  0.00  0.00    +0.000 A 
ATOM      2  C   UNL     1       5.508   6.388  16.387  0.00  0.00    +0.000 A 
ATOM      3  C   UNL     1       4.545   7.120  17.075  0.00  0.00    +0.000 A 
ATOM      4  C   UNL     1       3.537   6.532  17.885  0.00  0.00    +0.000 A 
ATOM      5  C   UNL     1       3.533   5.094  17.905  0.00  0.00    +0.000 A 
ATOM      6  C   UNL     1       4.527   4.362  17.234  0.00  0.00    +0.000 A 
ENDROOT
BRANCH   5   7
ATOM      7  N   UNL     1       2.584   4.320  18.623  0.00  0.00    +0.000 N 
ATOM      8  C   UNL     1       1.404   3.914  18.054  0.00  0.00    +0.000 C 
ATOM      9  O   UNL     1       0.893   4.301  17.007  0.00  0.00    +0.000 OA
ATOM     10  C   UNL     1       0.809   2.812  18.887  0.00  0.00    +0.000 C 
ATOM     11  C   UNL     1       1.807   2.601  20.008  0.00  0.00    +0.000 C 
ATOM     12  C   UNL     1       2.829   3.698  19.828  0.00  0.00    +0.000 C 
ATOM     13  O   UNL     1       3.701   3.933  20.640  0.00  0.00    +0.000 OA
ENDBRANCH   5   7
BRANCH   4  14
ATOM     14  N   UNL     1       2.656   7.362  18.588  0.00  0.00    +0.000 N 
ATOM     15  C   UNL     1       2.560   7.289  20.049  0.00  0.00    +0.000 C 
ATOM     16  C   UNL     1       1.121   7.576  20.461  0.00  0.00    +0.000 C 
ATOM     17  C   UNL     1       0.719   8.969  20.006  0.00  0.00    +0.000 C 
ATOM     18  C   UNL     1       0.964   9.143  18.513  0.00  0.00    +0.000 C 
ATOM     19  C   UNL     1       2.385   8.742  18.122  0.00  0.00    +0.000 C 
ENDBRANCH   4  14
BRANCH   1  21
ATOM     20  N   UNL     1       6.145   3.552  14.629  0.00  0.00    +0.000 N 
ATOM     21  C   UNL     1       6.546   4.256  15.728  0.00  0.00    +0.000 C 
ATOM     22  O   UNL     1       7.725   4.307  16.050  0.00  0.00    +0.000 OA
ATOM     23  H   UNL     1       6.890   3.166  14.065  0.00  0.00    +0.000 HD
ATOM     24  H   UNL     1       5.260   3.735  14.177  0.00  0.00    +0.000 HD
ENDBRANCH   1  21
TORSDOF 3
ENDMDL
MODEL 5
REMARK VINA RESULT:      -7.3      1.860      5.349
REMARK  Name = 
REMARK  3 active torsions:
REMARK  status: ('A' for Active; 'I' for Inactive)
REMARK    1  A    between atoms: C_2  and  C_4
REMARK    2  A    between atoms: C_7  and  N_8
REMARK    3  A    between atoms: C_14  and  N_15
REMARK                            x       y       z     vdW  Elec       q    Type
REMARK                         _______ _______ _______ _____ _____    ______ ____
ROOT
ATOM      1  C   UNL     1       2.544   7.426  18.912  0.00  0.00    +0.000 A 
ATOM      2  C   UNL     1       3.269   8.086  17.928  0.00  0.00    +0.000 A 
ATOM      3  C   UNL     1       4.117   7.361  17.095  0.00  0.00    +0.000 A 
ATOM      4  C   UNL     1       4.289   5.954  17.175  0.00  0.00    +0.000 A 
ATOM      5  C   UNL     1       3.560   5.310  18.235  0.00  0.00    +0.000 A 
ATOM      6  C   UNL     1       2.681   6.041  19.051  0.00  0.00    +0.000 A 
ENDROOT
BRANCH   5   7
ATOM      7  N   UNL     1       3.626   3.918  18.503  0.00  0.00    +0.000 N 
ATOM      8  C   UNL     1       4.618   3.380  19.284  0.00  0.00    +0.000 C 
ATOM      9  O   UNL     1       5.658   3.910  19.663  0.00  0.00    +0.000 OA
ATOM     10  C   UNL     1       4.213   1.994  19.706  0.00  0.00    +0.000 C 
ATOM     11  C   UNL     1       2.841   1.795  19.096  0.00  0.00    +0.000 C 
ATOM     12  C   UNL     1       2.617   3.019  18.239  0.00  0.00    +0.000 C 
ATOM     13  O   UNL     1       1.679   3.132  17.476  0.00  0.00    +0.000 OA
ENDBRANCH   5   7
BRANCH   4  14
ATOM     14  N   UNL     1       5.116   5.313  16.245  0.00  0.00    +0.000 N 
ATOM     15  C   UNL     1       6.533   5.079  16.537  0.00  0.00    +0.000 C 
ATOM     16  C   UNL     1       7.325   5.183  15.239  0.00  0.00    +0.000 C 
ATOM     17  C   UNL     1       6.841   4.135  14.251  0.00  0.00    +0.000 C 
ATOM     18  C   UNL     1       5.335   4.236  14.047  0.00  0.00    +0.000 C 
ATOM     19  C   UNL     1       4.584   4.237  15.376  0.00  0.00    +0.000 C 
ENDBRANCH   4  14
BRANCH   1  21
ATOM     20  N   UNL     1       1.540   7.842  21.080  0.00  0.00    +0.000 N 
ATOM     21  C   UNL     1       1.647   8.224  19.773  0.00  0.00    +0.000 C 
ATOM     22  O   UNL     1       1.065   9.217  19.355  0.00  0.00    +0.000 OA
ATOM     23  H   UNL     1       1.034   8.480  21.679  0.00  0.00    +0.000 HD
ATOM     24  H   UNL     1       2.223   7.236  21.512  0.00  0.00    +0.000 HD
ENDBRANCH   1  21
TORSDOF 3
ENDMDL
MODEL 6
REMARK VINA RESULT:      -7.2      0.617      2.017
REMARK  Name = 
REMARK  3 active torsions:
REMARK  status: ('A' for Active; 'I' for Inactive)
REMARK    1  A    between atoms: C_2  and  C_4
REMARK    2  A    between atoms: C_7  and  N_8
REMARK    3  A    between atoms: C_14  and  N_15
REMARK                            x       y       z     vdW  Elec       q    Type
REMARK                         _______ _______ _______ _____ _____    ______ ____
ROOT
ATOM      1  C   UNL     1       5.633   5.186  15.863  0.00  0.00    +0.000 A 
ATOM      2  C   UNL     1       5.489   6.564  15.956  0.00  0.00    +0.000 A 
ATOM      3  C   UNL     1       4.538   7.101  16.819  0.00  0.00    +0.000 A 
ATOM      4  C   UNL     1       3.690   6.317  17.645  0.00  0.00    +0.000 A 
ATOM      5  C   UNL     1       3.833   4.894  17.489  0.00  0.00    +0.000 A 
ATOM      6  C   UNL     1       4.816   4.358  16.640  0.00  0.00    +0.000 A 
ENDROOT
BRANCH   5   7
ATOM      7  N   UNL     1       3.053   3.943  18.196  0.00  0.00    +0.000 N 
ATOM      8  C   UNL     1       3.556   3.248  19.267  0.00  0.00    +0.000 C 
ATOM      9  O   UNL     1       4.725   3.154  19.629  0.00  0.00    +0.000 OA
ATOM     10  C   UNL     1       2.418   2.633  20.033  0.00  0.00    +0.000 C 
ATOM     11  C   UNL     1       1.174   3.080  19.293  0.00  0.00    +0.000 C 
ATOM     12  C   UNL     1       1.689   3.792  18.065  0.00  0.00    +0.000 C 
ATOM     13  O   UNL     1       0.970   4.154  17.157  0.00  0.00    +0.000 OA
ENDBRANCH   5   7
BRANCH   4  14
ATOM     14  N   UNL     1       2.813   6.959  18.528  0.00  0.00    +0.000 N 
ATOM     15  C   UNL     1       1.739   7.820  18.026  0.00  0.00    +0.000 C 
ATOM     16  C   UNL     1       1.520   8.959  19.015  0.00  0.00    +0.000 C 
ATOM     17  C   UNL     1       1.118   8.400  20.369  0.00  0.00    +0.000 C 
ATOM     18  C   UNL     1       2.129   7.368  20.852  0.00  0.00    +0.000 C 
ATOM     19  C   UNL     1       2.402   6.304  19.792  0.00  0.00    +0.000 C 
ENDBRANCH   4  14
BRANCH   1  21
ATOM     20  N   UNL     1       6.294   3.590  14.161  0.00  0.00    +0.000 N 
ATOM     21  C   UNL     1       6.657   4.650  14.943  0.00  0.00    +0.000 C 
ATOM     22  O   UNL     1       7.764   5.161  14.840  0.00  0.00    +0.000 OA
ATOM     23  H   UNL     1       6.960   3.331  13.446  0.00  0.00    +0.000 HD
ATOM     24  H   UNL     1       5.324   3.353  14.008  0.00  0.00    +0.000 HD
ENDBRANCH   1  21
TORSDOF 3
ENDMDL
MODEL 7
REMARK VINA RESULT:      -7.2      0.919      2.031
REMARK  Name = 
REMARK  3 active torsions:
REMARK  status: ('A' for Active; 'I' for Inactive)
REMARK    1  A    between atoms: C_2  and  C_4
REMARK    2  A    between atoms: C_7  and  N_8
REMARK    3  A    between atoms: C_14  and  N_15
REMARK                            x       y       z     vdW  Elec       q    Type
REMARK                         _______ _______ _______ _____ _____    ______ ____
ROOT
ATOM      1  C   UNL     1       5.728   5.053  15.488  0.00  0.00    +0.000 A 
ATOM      2  C   UNL     1       5.249   6.352  15.586  0.00  0.00    +0.000 A 
ATOM      3  C   UNL     1       4.325   6.674  16.576  0.00  0.00    +0.000 A 
ATOM      4  C   UNL     1       3.834   5.742  17.529  0.00  0.00    +0.000 A 
ATOM      5  C   UNL     1       4.315   4.396  17.370  0.00  0.00    +0.000 A 
ATOM      6  C   UNL     1       5.272   4.085  16.389  0.00  0.00    +0.000 A 
ENDROOT
BRANCH   5   7
ATOM      7  N   UNL     1       3.915   3.315  18.197  0.00  0.00    +0.000 N 
ATOM      8  C   UNL     1       4.474   3.105  19.433  0.00  0.00    +0.000 C 
ATOM      9  O   UNL     1       5.483   3.618  19.906  0.00  0.00    +0.000 OA
ATOM     10  C   UNL     1       3.600   2.162  20.214  0.00  0.00    +0.000 C 
ATOM     11  C   UNL     1       2.438   1.864  19.288  0.00  0.00    +0.000 C 
ATOM     12  C   UNL     1       2.800   2.534  17.984  0.00  0.00    +0.000 C 
ATOM     13  O   UNL     1       2.167   2.378  16.960  0.00  0.00    +0.000 OA
ENDBRANCH   5   7
BRANCH   4  14
ATOM     14  N   UNL     1       2.956   6.184  18.526  0.00  0.00    +0.000 N 
ATOM     15  C   UNL     1       2.451   7.560  18.527  0.00  0.00    +0.000 C 
ATOM     16  C   UNL     1       2.275   8.018  19.970  0.00  0.00    +0.000 C 
ATOM     17  C   UNL     1       1.275   7.121  20.680  0.00  0.00    +0.000 C 
ATOM     18  C   UNL     1       1.677   5.657  20.557  0.00  0.00    +0.000 C 
ATOM     19  C   UNL     1       1.950   5.265  19.107  0.00  0.00    +0.000 C 
ENDBRANCH   4  14
BRANCH   1  21
ATOM     20  N   UNL     1       6.468   3.657  13.649  0.00  0.00    +0.000 N 
ATOM     21  C   UNL     1       6.715   4.748  14.431  0.00  0.00    +0.000 C 
ATOM     22  O   UNL     1       7.682   5.468  14.224  0.00  0.00    +0.000 OA
ATOM     23  H   UNL     1       7.077   3.549  12.849  0.00  0.00    +0.000 HD
ATOM     24  H   UNL     1       5.550   3.238  13.599  0.00  0.00    +0.000 HD
ENDBRANCH   1  21
TORSDOF 3
ENDMDL
MODEL 8
REMARK VINA RESULT:      -7.2      1.855      5.390
REMARK  Name = 
REMARK  3 active torsions:
REMARK  status: ('A' for Active; 'I' for Inactive)
REMARK    1  A    between atoms: C_2  and  C_4
REMARK    2  A    between atoms: C_7  and  N_8
REMARK    3  A    between atoms: C_14  and  N_15
REMARK                            x       y       z     vdW  Elec       q    Type
REMARK                         _______ _______ _______ _____ _____    ______ ____
ROOT
ATOM      1  C   UNL     1       2.424   7.541  18.991  0.00  0.00    +0.000 A 
ATOM      2  C   UNL     1       3.208   8.261  18.100  0.00  0.00    +0.000 A 
ATOM      3  C   UNL     1       4.121   7.592  17.289  0.00  0.00    +0.000 A 
ATOM      4  C   UNL     1       4.304   6.184  17.302  0.00  0.00    +0.000 A 
ATOM      5  C   UNL     1       3.510   5.475  18.270  0.00  0.00    +0.000 A 
ATOM      6  C   UNL     1       2.567   6.152  19.062  0.00  0.00    +0.000 A 
ENDROOT
BRANCH   5   7
ATOM      7  N   UNL     1       3.574   4.071  18.463  0.00  0.00    +0.000 N 
ATOM      8  C   UNL     1       4.552   3.492  19.233  0.00  0.00    +0.000 C 
ATOM      9  O   UNL     1       5.584   4.001  19.658  0.00  0.00    +0.000 OA
ATOM     10  C   UNL     1       4.142   2.085  19.571  0.00  0.00    +0.000 C 
ATOM     11  C   UNL     1       2.782   1.918  18.926  0.00  0.00    +0.000 C 
ATOM     12  C   UNL     1       2.571   3.186  18.132  0.00  0.00    +0.000 C 
ATOM     13  O   UNL     1       1.647   3.339  17.360  0.00  0.00    +0.000 OA
ENDBRANCH   5   7
BRANCH   4  14
ATOM     14  N   UNL     1       5.202   5.604  16.399  0.00  0.00    +0.000 N 
ATOM     15  C   UNL     1       5.008   5.741  14.953  0.00  0.00    +0.000 C 
ATOM     16  C   UNL     1       5.498   4.470  14.269  0.00  0.00    +0.000 C 
ATOM     17  C   UNL     1       6.976   4.264  14.554  0.00  0.00    +0.000 C 
ATOM     18  C   UNL     1       7.246   4.284  16.053  0.00  0.00    +0.000 C 
ATOM     19  C   UNL     1       6.646   5.519  16.720  0.00  0.00    +0.000 C 
ENDBRANCH   4  14
BRANCH   1  21
ATOM     20  N   UNL     1       1.378   7.923  21.145  0.00  0.00    +0.000 N 
ATOM     21  C   UNL     1       1.459   8.282  19.830  0.00  0.00    +0.000 C 
ATOM     22  O   UNL     1       0.798   9.212  19.387  0.00  0.00    +0.000 OA
ATOM     23  H   UNL     1       0.817   8.531  21.727  0.00  0.00    +0.000 HD
ATOM     24  H   UNL     1       2.106   7.386  21.594  0.00  0.00    +0.000 HD
ENDBRANCH   1  21
TORSDOF 3
ENDMDL
MODEL 9
REMARK VINA RESULT:      -7.0      1.906      5.110
REMARK  Name = 
REMARK  3 active torsions:
REMARK  status: ('A' for Active; 'I' for Inactive)
REMARK    1  A    between atoms: C_2  and  C_4
REMARK    2  A    between atoms: C_7  and  N_8
REMARK    3  A    between atoms: C_14  and  N_15
REMARK                            x       y       z     vdW  Elec       q    Type
REMARK                         _______ _______ _______ _____ _____    ______ ____
ROOT
ATOM      1  C   UNL     1       2.405   7.499  19.082  0.00  0.00    +0.000 A 
ATOM      2  C   UNL     1       3.236   8.132  18.167  0.00  0.00    +0.000 A 
ATOM      3  C   UNL     1       4.078   7.372  17.359  0.00  0.00    +0.000 A 
ATOM      4  C   UNL     1       4.138   5.953  17.396  0.00  0.00    +0.000 A 
ATOM      5  C   UNL     1       3.298   5.333  18.386  0.00  0.00    +0.000 A 
ATOM      6  C   UNL     1       2.428   6.103  19.177  0.00  0.00    +0.000 A 
ENDROOT
BRANCH   5   7
ATOM      7  N   UNL     1       3.243   3.932  18.606  0.00  0.00    +0.000 N 
ATOM      8  C   UNL     1       2.239   3.158  18.081  0.00  0.00    +0.000 C 
ATOM      9  O   UNL     1       1.183   3.525  17.575  0.00  0.00    +0.000 OA
ATOM     10  C   UNL     1       2.651   1.713  18.140  0.00  0.00    +0.000 C 
ATOM     11  C   UNL     1       4.041   1.737  18.743  0.00  0.00    +0.000 C 
ATOM     12  C   UNL     1       4.271   3.179  19.129  0.00  0.00    +0.000 C 
ATOM     13  O   UNL     1       5.226   3.546  19.782  0.00  0.00    +0.000 OA
ENDBRANCH   5   7
BRANCH   4  14
ATOM     14  N   UNL     1       4.970   5.281  16.494  0.00  0.00    +0.000 N 
ATOM     15  C   UNL     1       6.358   4.968  16.842  0.00  0.00    +0.000 C 
ATOM     16  C   UNL     1       7.211   5.046  15.582  0.00  0.00    +0.000 C 
ATOM     17  C   UNL     1       6.717   4.039  14.558  0.00  0.00    +0.000 C 
ATOM     18  C   UNL     1       5.228   4.223  14.291  0.00  0.00    +0.000 C 
ATOM     19  C   UNL     1       4.420   4.247  15.586  0.00  0.00    +0.000 C 
ENDBRANCH   4  14
BRANCH   1  21
ATOM     20  N   UNL     1       1.483   8.056  21.254  0.00  0.00    +0.000 N 
ATOM     21  C   UNL     1       1.519   8.335  19.917  0.00  0.00    +0.000 C 
ATOM     22  O   UNL     1       0.885   9.272  19.450  0.00  0.00    +0.000 OA
ATOM     23  H   UNL     1       0.982   8.725  21.823  0.00  0.00    +0.000 HD
ATOM     24  H   UNL     1       2.205   7.508  21.700  0.00  0.00    +0.000 HD
ENDBRANCH   1  21
TORSDOF 3
ENDMDL
