MODEL 1
REMARK VINA RESULT:      -7.3      0.000      0.000
REMARK  Name = 
REMARK  6 active torsions:
REMARK  status: ('A' for Active; 'I' for Inactive)
REMARK    1  A    between atoms: C_2  and  C_3
REMARK    2  A    between atoms: C_7  and  C_8
REMARK    3  A    between atoms: N_10  and  C_11
REMARK    4  A    between atoms: C_15  and  C_16
REMARK    5  A    between atoms: N_24  and  C_25
REMARK    6  A    between atoms: C_33  and  N_34
REMARK                            x       y       z     vdW  Elec       q    Type
REMARK                         _______ _______ _______ _____ _____    ______ ____
ROOT
ATOM      1  C   UNL     1       2.044  15.272  18.451  0.00  0.00    +0.000 A 
ATOM      2  N   UNL     1       0.821  15.564  19.043  0.00  0.00    +0.000 NA
ATOM      3  N   UNL     1       0.049  14.673  19.474  0.00  0.00    +0.000 NA
ATOM      4  C   UNL     1       0.408  13.367  19.373  0.00  0.00    +0.000 A 
ATOM      5  C   UNL     1      -0.228  12.192  19.715  0.00  0.00    +0.000 A 
ATOM      6  C   UNL     1       0.700  11.167  19.350  0.00  0.00    +0.000 A 
ATOM      7  N   UNL     1       0.459   9.845  19.568  0.00  0.00    +0.000 N 
ATOM      8  N   UNL     1       1.820  11.690  18.842  0.00  0.00    +0.000 NA
ATOM      9  N   UNL     1       1.621  13.022  18.805  0.00  0.00    +0.000 N 
ATOM     10  C   UNL     1       2.503  14.015  18.305  0.00  0.00    +0.000 A 
ATOM     11  H   UNL     1      -0.474   9.589  19.896  0.00  0.00    +0.000 HD
ENDROOT
BRANCH   7  12
ATOM     12  C   UNL     1       1.329   8.728  19.496  0.00  0.00    +0.000 A 
ATOM     13  C   UNL     1       1.507   7.821  20.549  0.00  0.00    +0.000 A 
ATOM     14  C   UNL     1       2.250   6.646  20.387  0.00  0.00    +0.000 A 
ATOM     15  C   UNL     1       2.841   6.358  19.163  0.00  0.00    +0.000 A 
ATOM     16  C   UNL     1       2.718   7.265  18.115  0.00  0.00    +0.000 A 
ATOM     17  C   UNL     1       1.973   8.440  18.282  0.00  0.00    +0.000 A 
ENDBRANCH   7  12
BRANCH   5  18
ATOM     18  C   UNL     1      -1.551  12.055  20.308  0.00  0.00    +0.000 C 
ATOM     19  O   UNL     1      -1.737  11.235  21.205  0.00  0.00    +0.000 OA
ATOM     20  N   UNL     1      -2.524  12.962  19.846  0.00  0.00    +0.000 N 
ATOM     21  H   UNL     1      -2.117  13.853  19.581  0.00  0.00    +0.000 HD
BRANCH  20  22
ATOM     22  C   UNL     1      -3.704  13.034  20.577  0.00  0.00    +0.000 A 
ATOM     23  S   UNL     1      -5.101  12.343  19.880  0.00  0.00    +0.000 S 
ATOM     24  C   UNL     1      -5.968  12.496  21.344  0.00  0.00    +0.000 A 
ATOM     25  C   UNL     1      -5.199  13.073  22.326  0.00  0.00    +0.000 A 
ATOM     26  C   UNL     1      -3.945  13.581  21.822  0.00  0.00    +0.000 A 
ATOM     27  C   UNL     1      -5.595  13.087  23.758  0.00  0.00    +0.000 C 
ATOM     28  C   UNL     1      -7.047  12.727  24.044  0.00  0.00    +0.000 C 
ATOM     29  C   UNL     1      -7.916  12.135  22.928  0.00  0.00    +0.000 C 
ATOM     30  C   UNL     1      -7.345  11.954  21.514  0.00  0.00    +0.000 C 
BRANCH  26  31
ATOM     31  C   UNL     1      -3.001  14.345  22.620  0.00  0.00    +0.000 C 
ATOM     32  N   UNL     1      -2.097  13.609  23.334  0.00  0.00    +0.000 N 
ATOM     33  O   UNL     1      -2.914  15.567  22.592  0.00  0.00    +0.000 OA
ATOM     34  H   UNL     1      -1.901  12.660  23.043  0.00  0.00    +0.000 HD
ATOM     35  H   UNL     1      -1.293  14.157  23.623  0.00  0.00    +0.000 HD
ENDBRANCH  26  31
ENDBRANCH  20  22
ENDBRANCH   5  18
BRANCH  10  36
ATOM     36  N   UNL     1       3.705  13.602  17.739  0.00  0.00    +0.000 N 
ATOM     37  H   UNL     1       4.508  14.128  18.097  0.00  0.00    +0.000 HD
ATOM     38  H   UNL     1       3.712  13.476  16.729  0.00  0.00    +0.000 HD
ENDBRANCH  10  36
BRANCH   1  40
ATOM     39  N   UNL     1       3.380  17.562  17.612  0.00  0.00    +0.000 NA
ATOM     40  C   UNL     1       2.774  16.523  17.993  0.00  0.00    +0.000 C 
ENDBRANCH   1  40
TORSDOF 6
ENDMDL
MODEL 2
REMARK VINA RESULT:      -7.2      1.708      2.490
REMARK  Name = 
REMARK  6 active torsions:
REMARK  status: ('A' for Active; 'I' for Inactive)
REMARK    1  A    between atoms: C_2  and  C_3
REMARK    2  A    between atoms: C_7  and  C_8
REMARK    3  A    between atoms: N_10  and  C_11
REMARK    4  A    between atoms: C_15  and  C_16
REMARK    5  A    between atoms: N_24  and  C_25
REMARK    6  A    between atoms: C_33  and  N_34
REMARK                            x       y       z     vdW  Elec       q    Type
REMARK                         _______ _______ _______ _____ _____    ______ ____
ROOT
ATOM      1  C   UNL     1       2.572  15.004  18.406  0.00  0.00    +0.000 A 
ATOM      2  N   UNL     1       1.257  15.195  18.812  0.00  0.00    +0.000 NA
ATOM      3  N   UNL     1       0.469  14.240  19.020  0.00  0.00    +0.000 NA
ATOM      4  C   UNL     1       0.903  12.964  18.854  0.00  0.00    +0.000 A 
ATOM      5  C   UNL     1       0.276  11.740  18.970  0.00  0.00    +0.000 A 
ATOM      6  C   UNL     1       1.300  10.788  18.666  0.00  0.00    +0.000 A 
ATOM      7  N   UNL     1       1.091   9.444  18.711  0.00  0.00    +0.000 N 
ATOM      8  N   UNL     1       2.461  11.396  18.404  0.00  0.00    +0.000 NA
ATOM      9  N   UNL     1       2.207  12.718  18.463  0.00  0.00    +0.000 N 
ATOM     10  C   UNL     1       3.109  13.785  18.216  0.00  0.00    +0.000 A 
ATOM     11  H   UNL     1       0.130   9.126  18.853  0.00  0.00    +0.000 HD
ENDROOT
BRANCH   7  12
ATOM     12  C   UNL     1       2.014   8.368  18.676  0.00  0.00    +0.000 A 
ATOM     13  C   UNL     1       2.106   7.399  19.683  0.00  0.00    +0.000 A 
ATOM     14  C   UNL     1       2.916   6.267  19.540  0.00  0.00    +0.000 A 
ATOM     15  C   UNL     1       3.663   6.086  18.382  0.00  0.00    +0.000 A 
ATOM     16  C   UNL     1       3.625   7.057  17.386  0.00  0.00    +0.000 A 
ATOM     17  C   UNL     1       2.811   8.188  17.534  0.00  0.00    +0.000 A 
ENDBRANCH   7  12
BRANCH   5  18
ATOM     18  C   UNL     1      -1.116  11.500  19.319  0.00  0.00    +0.000 C 
ATOM     19  O   UNL     1      -1.479  10.372  19.646  0.00  0.00    +0.000 OA
ATOM     20  N   UNL     1      -1.946  12.638  19.334  0.00  0.00    +0.000 N 
ATOM     21  H   UNL     1      -1.439  13.476  19.596  0.00  0.00    +0.000 HD
BRANCH  20  22
ATOM     22  C   UNL     1      -3.199  12.486  19.919  0.00  0.00    +0.000 A 
ATOM     23  S   UNL     1      -3.353  12.913  21.564  0.00  0.00    +0.000 S 
ATOM     24  C   UNL     1      -5.055  12.797  21.487  0.00  0.00    +0.000 A 
ATOM     25  C   UNL     1      -5.478  12.427  20.232  0.00  0.00    +0.000 A 
ATOM     26  C   UNL     1      -4.385  12.040  19.371  0.00  0.00    +0.000 A 
ATOM     27  C   UNL     1      -6.898  12.506  19.803  0.00  0.00    +0.000 C 
ATOM     28  C   UNL     1      -7.915  12.699  20.919  0.00  0.00    +0.000 C 
ATOM     29  C   UNL     1      -7.433  13.056  22.331  0.00  0.00    +0.000 C 
ATOM     30  C   UNL     1      -5.931  13.168  22.633  0.00  0.00    +0.000 C 
BRANCH  26  31
ATOM     31  C   UNL     1      -4.562  11.491  18.037  0.00  0.00    +0.000 C 
ATOM     32  N   UNL     1      -4.906  12.391  17.067  0.00  0.00    +0.000 N 
ATOM     33  O   UNL     1      -4.315  10.328  17.738  0.00  0.00    +0.000 OA
ATOM     34  H   UNL     1      -4.705  13.371  17.216  0.00  0.00    +0.000 HD
ATOM     35  H   UNL     1      -4.726  12.040  16.132  0.00  0.00    +0.000 HD
ENDBRANCH  26  31
ENDBRANCH  20  22
ENDBRANCH   5  18
BRANCH  10  36
ATOM     36  N   UNL     1       4.405  13.471  17.820  0.00  0.00    +0.000 N 
ATOM     37  H   UNL     1       4.463  13.227  16.827  0.00  0.00    +0.000 HD
ATOM     38  H   UNL     1       4.927  12.844  18.429  0.00  0.00    +0.000 HD
ENDBRANCH  10  36
BRANCH   1  40
ATOM     39  N   UNL     1       3.914  17.410  18.026  0.00  0.00    +0.000 NA
ATOM     40  C   UNL     1       3.305  16.319  18.198  0.00  0.00    +0.000 C 
ENDBRANCH   1  40
TORSDOF 6
ENDMDL
MODEL 3
REMARK VINA RESULT:      -6.9      2.583      7.761
REMARK  Name = 
REMARK  6 active torsions:
REMARK  status: ('A' for Active; 'I' for Inactive)
REMARK    1  A    between atoms: C_2  and  C_3
REMARK    2  A    between atoms: C_7  and  C_8
REMARK    3  A    between atoms: N_10  and  C_11
REMARK    4  A    between atoms: C_15  and  C_16
REMARK    5  A    between atoms: N_24  and  C_25
REMARK    6  A    between atoms: C_33  and  N_34
REMARK                            x       y       z     vdW  Elec       q    Type
REMARK                         _______ _______ _______ _____ _____    ______ ____
ROOT
ATOM      1  C   UNL     1       2.325  14.273  18.496  0.00  0.00    +0.000 A 
ATOM      2  N   UNL     1       2.698  12.974  18.172  0.00  0.00    +0.000 NA
ATOM      3  N   UNL     1       2.116  11.967  18.643  0.00  0.00    +0.000 NA
ATOM      4  C   UNL     1       1.075  12.132  19.499  0.00  0.00    +0.000 A 
ATOM      5  C   UNL     1       0.280  11.241  20.190  0.00  0.00    +0.000 A 
ATOM      6  C   UNL     1      -0.637  12.069  20.911  0.00  0.00    +0.000 A 
ATOM      7  N   UNL     1      -1.627  11.560  21.694  0.00  0.00    +0.000 N 
ATOM      8  N   UNL     1      -0.420  13.363  20.658  0.00  0.00    +0.000 NA
ATOM      9  N   UNL     1       0.654  13.404  19.844  0.00  0.00    +0.000 N 
ATOM     10  C   UNL     1       1.305  14.554  19.328  0.00  0.00    +0.000 A 
ATOM     11  H   UNL     1      -1.624  10.551  21.854  0.00  0.00    +0.000 HD
ENDROOT
BRANCH   7  12
ATOM     12  C   UNL     1      -2.750  12.194  22.283  0.00  0.00    +0.000 A 
ATOM     13  C   UNL     1      -3.777  12.791  21.539  0.00  0.00    +0.000 A 
ATOM     14  C   UNL     1      -4.943  13.265  22.148  0.00  0.00    +0.000 A 
ATOM     15  C   UNL     1      -5.104  13.161  23.524  0.00  0.00    +0.000 A 
ATOM     16  C   UNL     1      -4.080  12.614  24.292  0.00  0.00    +0.000 A 
ATOM     17  C   UNL     1      -2.914  12.139  23.677  0.00  0.00    +0.000 A 
ENDBRANCH   7  12
BRANCH   5  18
ATOM     18  C   UNL     1       0.379   9.789  20.175  0.00  0.00    +0.000 C 
ATOM     19  O   UNL     1      -0.615   9.111  19.921  0.00  0.00    +0.000 OA
ATOM     20  N   UNL     1       1.669   9.262  20.379  0.00  0.00    +0.000 N 
ATOM     21  H   UNL     1       2.391   9.877  20.020  0.00  0.00    +0.000 HD
BRANCH  20  22
ATOM     22  C   UNL     1       1.839   7.910  20.103  0.00  0.00    +0.000 A 
ATOM     23  S   UNL     1       1.378   6.799  21.315  0.00  0.00    +0.000 S 
ATOM     24  C   UNL     1       1.540   5.482  20.239  0.00  0.00    +0.000 A 
ATOM     25  C   UNL     1       1.950   5.897  18.995  0.00  0.00    +0.000 A 
ATOM     26  C   UNL     1       2.329   7.290  18.971  0.00  0.00    +0.000 A 
ATOM     27  C   UNL     1       1.919   5.015  17.799  0.00  0.00    +0.000 C 
ATOM     28  C   UNL     1       1.726   3.531  18.078  0.00  0.00    +0.000 C 
ATOM     29  C   UNL     1       1.323   3.070  19.484  0.00  0.00    +0.000 C 
ATOM     30  C   UNL     1       1.165   4.092  20.620  0.00  0.00    +0.000 C 
BRANCH  26  31
ATOM     31  C   UNL     1       2.914   7.951  17.816  0.00  0.00    +0.000 C 
ATOM     32  N   UNL     1       4.064   7.392  17.333  0.00  0.00    +0.000 N 
ATOM     33  O   UNL     1       2.380   8.877  17.216  0.00  0.00    +0.000 OA
ATOM     34  H   UNL     1       4.268   6.426  17.551  0.00  0.00    +0.000 HD
ATOM     35  H   UNL     1       4.266   7.682  16.382  0.00  0.00    +0.000 HD
ENDBRANCH  26  31
ENDBRANCH  20  22
ENDBRANCH   5  18
BRANCH  10  36
ATOM     36  N   UNL     1       0.837  15.805  19.719  0.00  0.00    +0.000 N 
ATOM     37  H   UNL     1       1.031  16.531  19.023  0.00  0.00    +0.000 HD
ATOM     38  H   UNL     1       1.041  16.087  20.676  0.00  0.00    +0.000 HD
ENDBRANCH  10  36
BRANCH   1  40
ATOM     39  N   UNL     1       3.931  16.170  17.249  0.00  0.00    +0.000 NA
ATOM     40  C   UNL     1       3.203  15.310  17.815  0.00  0.00    +0.000 C 
ENDBRANCH   1  40
TORSDOF 6
ENDMDL
MODEL 4
REMARK VINA RESULT:      -6.8      1.245      1.506
REMARK  Name = 
REMARK  6 active torsions:
REMARK  status: ('A' for Active; 'I' for Inactive)
REMARK    1  A    between atoms: C_2  and  C_3
REMARK    2  A    between atoms: C_7  and  C_8
REMARK    3  A    between atoms: N_10  and  C_11
REMARK    4  A    between atoms: C_15  and  C_16
REMARK    5  A    between atoms: N_24  and  C_25
REMARK    6  A    between atoms: C_33  and  N_34
REMARK                            x       y       z     vdW  Elec       q    Type
REMARK                         _______ _______ _______ _____ _____    ______ ____
ROOT
ATOM      1  C   UNL     1       2.430  15.030  18.369  0.00  0.00    +0.000 A 
ATOM      2  N   UNL     1       1.106  15.207  18.748  0.00  0.00    +0.000 NA
ATOM      3  N   UNL     1       0.327  14.244  18.954  0.00  0.00    +0.000 NA
ATOM      4  C   UNL     1       0.781  12.972  18.814  0.00  0.00    +0.000 A 
ATOM      5  C   UNL     1       0.170  11.741  18.935  0.00  0.00    +0.000 A 
ATOM      6  C   UNL     1       1.212  10.800  18.664  0.00  0.00    +0.000 A 
ATOM      7  N   UNL     1       1.021   9.454  18.724  0.00  0.00    +0.000 N 
ATOM      8  N   UNL     1       2.370  11.420  18.416  0.00  0.00    +0.000 NA
ATOM      9  N   UNL     1       2.096  12.739  18.452  0.00  0.00    +0.000 N 
ATOM     10  C   UNL     1       2.988  13.815  18.207  0.00  0.00    +0.000 A 
ATOM     11  H   UNL     1       0.062   9.124  18.851  0.00  0.00    +0.000 HD
ENDROOT
BRANCH   7  12
ATOM     12  C   UNL     1       1.959   8.391  18.722  0.00  0.00    +0.000 A 
ATOM     13  C   UNL     1       2.050   7.441  19.748  0.00  0.00    +0.000 A 
ATOM     14  C   UNL     1       2.878   6.319  19.637  0.00  0.00    +0.000 A 
ATOM     15  C   UNL     1       3.644   6.127  18.493  0.00  0.00    +0.000 A 
ATOM     16  C   UNL     1       3.606   7.079  17.479  0.00  0.00    +0.000 A 
ATOM     17  C   UNL     1       2.775   8.201  17.595  0.00  0.00    +0.000 A 
ENDBRANCH   7  12
BRANCH   5  18
ATOM     18  C   UNL     1      -1.226  11.487  19.260  0.00  0.00    +0.000 C 
ATOM     19  O   UNL     1      -1.511  10.671  20.135  0.00  0.00    +0.000 OA
ATOM     20  N   UNL     1      -2.166  12.284  18.579  0.00  0.00    +0.000 N 
ATOM     21  H   UNL     1      -1.799  13.205  18.364  0.00  0.00    +0.000 HD
BRANCH  20  22
ATOM     22  C   UNL     1      -3.471  12.254  19.059  0.00  0.00    +0.000 A 
ATOM     23  S   UNL     1      -4.587  11.258  18.237  0.00  0.00    +0.000 S 
ATOM     24  C   UNL     1      -5.749  11.454  19.473  0.00  0.00    +0.000 A 
ATOM     25  C   UNL     1      -5.286  12.273  20.474  0.00  0.00    +0.000 A 
ATOM     26  C   UNL     1      -4.036  12.911  20.134  0.00  0.00    +0.000 A 
ATOM     27  C   UNL     1      -5.967  12.407  21.788  0.00  0.00    +0.000 C 
ATOM     28  C   UNL     1      -7.383  11.854  21.856  0.00  0.00    +0.000 C 
ATOM     29  C   UNL     1      -7.914  10.986  20.708  0.00  0.00    +0.000 C 
ATOM     30  C   UNL     1      -7.045  10.719  19.471  0.00  0.00    +0.000 C 
BRANCH  26  31
ATOM     31  C   UNL     1      -3.390  13.918  20.960  0.00  0.00    +0.000 C 
ATOM     32  N   UNL     1      -2.609  14.820  20.293  0.00  0.00    +0.000 N 
ATOM     33  O   UNL     1      -3.597  14.053  22.161  0.00  0.00    +0.000 OA
ATOM     34  H   UNL     1      -2.766  14.965  19.304  0.00  0.00    +0.000 HD
ATOM     35  H   UNL     1      -2.430  15.656  20.840  0.00  0.00    +0.000 HD
ENDBRANCH  26  31
ENDBRANCH  20  22
ENDBRANCH   5  18
BRANCH  10  36
ATOM     36  N   UNL     1       4.296  13.514  17.841  0.00  0.00    +0.000 N 
ATOM     37  H   UNL     1       4.948  13.579  18.628  0.00  0.00    +0.000 HD
ATOM     38  H   UNL     1       4.639  13.946  16.985  0.00  0.00    +0.000 HD
ENDBRANCH  10  36
BRANCH   1  40
ATOM     39  N   UNL     1       3.747  17.449  17.982  0.00  0.00    +0.000 NA
ATOM     40  C   UNL     1       3.150  16.352  18.158  0.00  0.00    +0.000 C 
ENDBRANCH   1  40
TORSDOF 6
ENDMDL
MODEL 5
REMARK VINA RESULT:      -6.8      0.607      1.022
REMARK  Name = 
REMARK  6 active torsions:
REMARK  status: ('A' for Active; 'I' for Inactive)
REMARK    1  A    between atoms: C_2  and  C_3
REMARK    2  A    between atoms: C_7  and  C_8
REMARK    3  A    between atoms: N_10  and  C_11
REMARK    4  A    between atoms: C_15  and  C_16
REMARK    5  A    between atoms: N_24  and  C_25
REMARK    6  A    between atoms: C_33  and  N_34
REMARK                            x       y       z     vdW  Elec       q    Type
REMARK                         _______ _______ _______ _____ _____    ______ ____
ROOT
ATOM      1  C   UNL     1       2.728  15.267  19.032  0.00  0.00    +0.000 A 
ATOM      2  N   UNL     1       1.529  15.563  19.669  0.00  0.00    +0.000 NA
ATOM      3  N   UNL     1       0.677  14.684  19.946  0.00  0.00    +0.000 NA
ATOM      4  C   UNL     1       0.921  13.387  19.625  0.00  0.00    +0.000 A 
ATOM      5  C   UNL     1       0.180  12.232  19.767  0.00  0.00    +0.000 A 
ATOM      6  C   UNL     1       1.018  11.205  19.230  0.00  0.00    +0.000 A 
ATOM      7  N   UNL     1       0.660   9.892  19.223  0.00  0.00    +0.000 N 
ATOM      8  N   UNL     1       2.186  11.705  18.813  0.00  0.00    +0.000 NA
ATOM      9  N   UNL     1       2.105  13.036  19.002  0.00  0.00    +0.000 N 
ATOM     10  C   UNL     1       3.076  14.017  18.674  0.00  0.00    +0.000 A 
ATOM     11  H   UNL     1      -0.296   9.668  19.506  0.00  0.00    +0.000 HD
ENDROOT
BRANCH   7  12
ATOM     12  C   UNL     1       1.429   8.731  18.960  0.00  0.00    +0.000 A 
ATOM     13  C   UNL     1       2.107   8.512  17.754  0.00  0.00    +0.000 A 
ATOM     14  C   UNL     1       2.982   7.433  17.589  0.00  0.00    +0.000 A 
ATOM     15  C   UNL     1       3.191   6.539  18.633  0.00  0.00    +0.000 A 
ATOM     16  C   UNL     1       2.495   6.707  19.826  0.00  0.00    +0.000 A 
ATOM     17  C   UNL     1       1.620   7.790  19.986  0.00  0.00    +0.000 A 
ENDBRANCH   7  12
BRANCH   5  18
ATOM     18  C   UNL     1      -1.156  12.115  20.332  0.00  0.00    +0.000 C 
ATOM     19  O   UNL     1      -1.396  11.235  21.157  0.00  0.00    +0.000 OA
ATOM     20  N   UNL     1      -2.076  13.104  19.936  0.00  0.00    +0.000 N 
ATOM     21  H   UNL     1      -1.622  13.992  19.748  0.00  0.00    +0.000 HD
BRANCH  20  22
ATOM     22  C   UNL     1      -3.262  13.176  20.658  0.00  0.00    +0.000 A 
ATOM     23  S   UNL     1      -4.676  12.584  19.906  0.00  0.00    +0.000 S 
ATOM     24  C   UNL     1      -5.554  12.680  21.368  0.00  0.00    +0.000 A 
ATOM     25  C   UNL     1      -4.776  13.166  22.391  0.00  0.00    +0.000 A 
ATOM     26  C   UNL     1      -3.498  13.655  21.932  0.00  0.00    +0.000 A 
ATOM     27  C   UNL     1      -5.189  13.107  23.817  0.00  0.00    +0.000 C 
ATOM     28  C   UNL     1      -6.656  12.787  24.066  0.00  0.00    +0.000 C 
ATOM     29  C   UNL     1      -7.534  12.298  22.907  0.00  0.00    +0.000 C 
ATOM     30  C   UNL     1      -6.952  12.182  21.490  0.00  0.00    +0.000 C 
BRANCH  26  31
ATOM     31  C   UNL     1      -2.535  14.332  22.785  0.00  0.00    +0.000 C 
ATOM     32  N   UNL     1      -1.633  13.523  23.418  0.00  0.00    +0.000 N 
ATOM     33  O   UNL     1      -2.433  15.550  22.868  0.00  0.00    +0.000 OA
ATOM     34  H   UNL     1      -1.452  12.602  23.040  0.00  0.00    +0.000 HD
ATOM     35  H   UNL     1      -0.819  14.033  23.746  0.00  0.00    +0.000 HD
ENDBRANCH  26  31
ENDBRANCH  20  22
ENDBRANCH   5  18
BRANCH  10  36
ATOM     36  N   UNL     1       4.244  13.601  18.042  0.00  0.00    +0.000 N 
ATOM     37  H   UNL     1       4.245  13.814  17.041  0.00  0.00    +0.000 HD
ATOM     38  H   UNL     1       4.570  12.662  18.264  0.00  0.00    +0.000 HD
ENDBRANCH  10  36
BRANCH   1  40
ATOM     39  N   UNL     1       4.269  17.539  18.586  0.00  0.00    +0.000 NA
ATOM     40  C   UNL     1       3.570  16.509  18.788  0.00  0.00    +0.000 C 
ENDBRANCH   1  40
TORSDOF 6
ENDMDL
MODEL 6
REMARK VINA RESULT:      -6.7      2.849      7.682
REMARK  Name = 
REMARK  6 active torsions:
REMARK  status: ('A' for Active; 'I' for Inactive)
REMARK    1  A    between atoms: C_2  and  C_3
REMARK    2  A    between atoms: C_7  and  C_8
REMARK    3  A    between atoms: N_10  and  C_11
REMARK    4  A    between atoms: C_15  and  C_16
REMARK    5  A    between atoms: N_24  and  C_25
REMARK    6  A    between atoms: C_33  and  N_34
REMARK                            x       y       z     vdW  Elec       q    Type
REMARK                         _______ _______ _______ _____ _____    ______ ____
ROOT
ATOM      1  C   UNL     1       2.084  14.767  18.914  0.00  0.00    +0.000 A 
ATOM      2  N   UNL     1       2.724  13.538  19.009  0.00  0.00    +0.000 NA
ATOM      3  N   UNL     1       2.096  12.455  19.102  0.00  0.00    +0.000 NA
ATOM      4  C   UNL     1       0.738  12.464  19.103  0.00  0.00    +0.000 A 
ATOM      5  C   UNL     1      -0.205  11.464  19.223  0.00  0.00    +0.000 A 
ATOM      6  C   UNL     1      -1.458  12.147  19.139  0.00  0.00    +0.000 A 
ATOM      7  N   UNL     1      -2.654  11.497  19.175  0.00  0.00    +0.000 N 
ATOM      8  N   UNL     1      -1.281  13.460  18.963  0.00  0.00    +0.000 NA
ATOM      9  N   UNL     1       0.051  13.660  18.996  0.00  0.00    +0.000 N 
ATOM     10  C   UNL     1       0.744  14.895  18.899  0.00  0.00    +0.000 A 
ATOM     11  H   UNL     1      -2.636  10.499  19.390  0.00  0.00    +0.000 HD
ENDROOT
BRANCH   7  12
ATOM     12  C   UNL     1      -3.960  11.959  18.876  0.00  0.00    +0.000 A 
ATOM     13  C   UNL     1      -4.737  12.708  19.770  0.00  0.00    +0.000 A 
ATOM     14  C   UNL     1      -5.954  13.279  19.385  0.00  0.00    +0.000 A 
ATOM     15  C   UNL     1      -6.427  13.105  18.090  0.00  0.00    +0.000 A 
ATOM     16  C   UNL     1      -5.698  12.327  17.195  0.00  0.00    +0.000 A 
ATOM     17  C   UNL     1      -4.479  11.757  17.586  0.00  0.00    +0.000 A 
ENDBRANCH   7  12
BRANCH   5  18
ATOM     18  C   UNL     1       0.048  10.042  19.402  0.00  0.00    +0.000 C 
ATOM     19  O   UNL     1      -0.764   9.219  18.983  0.00  0.00    +0.000 OA
ATOM     20  N   UNL     1       1.285   9.710  19.987  0.00  0.00    +0.000 N 
ATOM     21  H   UNL     1       2.008  10.383  19.756  0.00  0.00    +0.000 HD
BRANCH  20  22
ATOM     22  C   UNL     1       1.665   8.374  19.922  0.00  0.00    +0.000 A 
ATOM     23  S   UNL     1       1.279   7.384  21.258  0.00  0.00    +0.000 S 
ATOM     24  C   UNL     1       1.705   5.971  20.397  0.00  0.00    +0.000 A 
ATOM     25  C   UNL     1       2.141   6.267  19.128  0.00  0.00    +0.000 A 
ATOM     26  C   UNL     1       2.319   7.685  18.920  0.00  0.00    +0.000 A 
ATOM     27  C   UNL     1       2.321   5.235  18.075  0.00  0.00    +0.000 C 
ATOM     28  C   UNL     1       2.321   3.792  18.559  0.00  0.00    +0.000 C 
ATOM     29  C   UNL     1       1.887   3.473  19.995  0.00  0.00    +0.000 C 
ATOM     30  C   UNL     1       1.504   4.606  20.959  0.00  0.00    +0.000 C 
BRANCH  26  31
ATOM     31  C   UNL     1       2.885   8.261  17.712  0.00  0.00    +0.000 C 
ATOM     32  N   UNL     1       4.005   7.643  17.230  0.00  0.00    +0.000 N 
ATOM     33  O   UNL     1       2.359   9.166  17.074  0.00  0.00    +0.000 OA
ATOM     34  H   UNL     1       4.189   6.685  17.498  0.00  0.00    +0.000 HD
ATOM     35  H   UNL     1       4.186   7.871  16.257  0.00  0.00    +0.000 HD
ENDBRANCH  26  31
ENDBRANCH  20  22
ENDBRANCH   5  18
BRANCH  10  36
ATOM     36  N   UNL     1      -0.006  16.062  18.801  0.00  0.00    +0.000 N 
ATOM     37  H   UNL     1       0.218  16.602  17.959  0.00  0.00    +0.000 HD
ATOM     38  H   UNL     1      -0.080  16.627  19.644  0.00  0.00    +0.000 HD
ENDBRANCH  10  36
BRANCH   1  40
ATOM     39  N   UNL     1       3.884  16.882  18.778  0.00  0.00    +0.000 NA
ATOM     40  C   UNL     1       3.068  15.923  18.840  0.00  0.00    +0.000 C 
ENDBRANCH   1  40
TORSDOF 6
ENDMDL
MODEL 7
REMARK VINA RESULT:      -6.6      3.201      8.091
REMARK  Name = 
REMARK  6 active torsions:
REMARK  status: ('A' for Active; 'I' for Inactive)
REMARK    1  A    between atoms: C_2  and  C_3
REMARK    2  A    between atoms: C_7  and  C_8
REMARK    3  A    between atoms: N_10  and  C_11
REMARK    4  A    between atoms: C_15  and  C_16
REMARK    5  A    between atoms: N_24  and  C_25
REMARK    6  A    between atoms: C_33  and  N_34
REMARK                            x       y       z     vdW  Elec       q    Type
REMARK                         _______ _______ _______ _____ _____    ______ ____
ROOT
ATOM      1  C   UNL     1       2.388  14.804  18.750  0.00  0.00    +0.000 A 
ATOM      2  N   UNL     1       3.109  13.639  18.519  0.00  0.00    +0.000 NA
ATOM      3  N   UNL     1       2.561  12.514  18.421  0.00  0.00    +0.000 NA
ATOM      4  C   UNL     1       1.212  12.412  18.532  0.00  0.00    +0.000 A 
ATOM      5  C   UNL     1       0.349  11.336  18.504  0.00  0.00    +0.000 A 
ATOM      6  C   UNL     1      -0.947  11.917  18.673  0.00  0.00    +0.000 A 
ATOM      7  N   UNL     1      -2.091  11.179  18.660  0.00  0.00    +0.000 N 
ATOM      8  N   UNL     1      -0.869  13.247  18.778  0.00  0.00    +0.000 NA
ATOM      9  N   UNL     1       0.445  13.543  18.748  0.00  0.00    +0.000 N 
ATOM     10  C   UNL     1       1.047  14.822  18.871  0.00  0.00    +0.000 A 
ATOM     11  H   UNL     1      -1.990  10.163  18.648  0.00  0.00    +0.000 HD
ENDROOT
BRANCH   7  12
ATOM     12  C   UNL     1      -3.446  11.586  18.577  0.00  0.00    +0.000 A 
ATOM     13  C   UNL     1      -4.111  12.269  19.604  0.00  0.00    +0.000 A 
ATOM     14  C   UNL     1      -5.396  12.793  19.425  0.00  0.00    +0.000 A 
ATOM     15  C   UNL     1      -6.050  12.635  18.210  0.00  0.00    +0.000 A 
ATOM     16  C   UNL     1      -5.431  11.921  17.188  0.00  0.00    +0.000 A 
ATOM     17  C   UNL     1      -4.144  11.399  17.372  0.00  0.00    +0.000 A 
ENDBRANCH   7  12
BRANCH   5  18
ATOM     18  C   UNL     1       0.705   9.934  18.343  0.00  0.00    +0.000 C 
ATOM     19  O   UNL     1       0.069   9.227  17.563  0.00  0.00    +0.000 OA
ATOM     20  N   UNL     1       1.841   9.507  19.057  0.00  0.00    +0.000 N 
ATOM     21  H   UNL     1       2.523  10.249  19.166  0.00  0.00    +0.000 HD
BRANCH  20  22
ATOM     22  C   UNL     1       2.358   8.262  18.716  0.00  0.00    +0.000 A 
ATOM     23  S   UNL     1       3.221   8.146  17.247  0.00  0.00    +0.000 S 
ATOM     24  C   UNL     1       3.777   6.580  17.639  0.00  0.00    +0.000 A 
ATOM     25  C   UNL     1       3.296   6.165  18.857  0.00  0.00    +0.000 A 
ATOM     26  C   UNL     1       2.297   7.060  19.393  0.00  0.00    +0.000 A 
ATOM     27  C   UNL     1       3.821   4.971  19.569  0.00  0.00    +0.000 C 
ATOM     28  C   UNL     1       4.684   4.034  18.736  0.00  0.00    +0.000 C 
ATOM     29  C   UNL     1       5.172   4.480  17.352  0.00  0.00    +0.000 C 
ATOM     30  C   UNL     1       4.749   5.843  16.783  0.00  0.00    +0.000 C 
BRANCH  26  31
ATOM     31  C   UNL     1       1.540   6.796  20.605  0.00  0.00    +0.000 C 
ATOM     32  N   UNL     1       1.275   5.480  20.863  0.00  0.00    +0.000 N 
ATOM     33  O   UNL     1       1.241   7.656  21.425  0.00  0.00    +0.000 OA
ATOM     34  H   UNL     1       1.855   4.770  20.434  0.00  0.00    +0.000 HD
ATOM     35  H   UNL     1       1.023   5.318  21.833  0.00  0.00    +0.000 HD
ENDBRANCH  26  31
ENDBRANCH  20  22
ENDBRANCH   5  18
BRANCH  10  36
ATOM     36  N   UNL     1       0.221  15.918  19.093  0.00  0.00    +0.000 N 
ATOM     37  H   UNL     1       0.216  16.213  20.074  0.00  0.00    +0.000 HD
ATOM     38  H   UNL     1      -0.703  15.884  18.668  0.00  0.00    +0.000 HD
ENDBRANCH  10  36
BRANCH   1  40
ATOM     39  N   UNL     1       4.032  17.038  18.941  0.00  0.00    +0.000 NA
ATOM     40  C   UNL     1       3.287  16.025  18.854  0.00  0.00    +0.000 C 
ENDBRANCH   1  40
TORSDOF 6
ENDMDL
MODEL 8
REMARK VINA RESULT:      -6.5      2.129      5.562
REMARK  Name = 
REMARK  6 active torsions:
REMARK  status: ('A' for Active; 'I' for Inactive)
REMARK    1  A    between atoms: C_2  and  C_3
REMARK    2  A    between atoms: C_7  and  C_8
REMARK    3  A    between atoms: N_10  and  C_11
REMARK    4  A    between atoms: C_15  and  C_16
REMARK    5  A    between atoms: N_24  and  C_25
REMARK    6  A    between atoms: C_33  and  N_34
REMARK                            x       y       z     vdW  Elec       q    Type
REMARK                         _______ _______ _______ _____ _____    ______ ____
ROOT
ATOM      1  C   UNL     1       1.398  10.001  18.485  0.00  0.00    +0.000 A 
ATOM      2  N   UNL     1       0.268   9.668  19.221  0.00  0.00    +0.000 NA
ATOM      3  N   UNL     1      -0.531  10.532  19.660  0.00  0.00    +0.000 NA
ATOM      4  C   UNL     1      -0.303  11.846  19.409  0.00  0.00    +0.000 A 
ATOM      5  C   UNL     1      -0.966  12.999  19.778  0.00  0.00    +0.000 A 
ATOM      6  C   UNL     1      -0.207  14.052  19.178  0.00  0.00    +0.000 A 
ATOM      7  N   UNL     1      -0.564  15.362  19.274  0.00  0.00    +0.000 N 
ATOM      8  N   UNL     1       0.826  13.566  18.483  0.00  0.00    +0.000 NA
ATOM      9  N   UNL     1       0.800  12.232  18.669  0.00  0.00    +0.000 N 
ATOM     10  C   UNL     1       1.719  11.271  18.172  0.00  0.00    +0.000 A 
ATOM     11  H   UNL     1      -1.336  15.590  19.902  0.00  0.00    +0.000 HD
ENDROOT
BRANCH   7  12
ATOM     12  C   UNL     1      -0.088  16.498  18.572  0.00  0.00    +0.000 A 
ATOM     13  C   UNL     1       1.269  16.735  18.318  0.00  0.00    +0.000 A 
ATOM     14  C   UNL     1       1.688  17.780  17.488  0.00  0.00    +0.000 A 
ATOM     15  C   UNL     1       0.752  18.620  16.898  0.00  0.00    +0.000 A 
ATOM     16  C   UNL     1      -0.600  18.435  17.170  0.00  0.00    +0.000 A 
ATOM     17  C   UNL     1      -1.015  17.387  18.002  0.00  0.00    +0.000 A 
ENDBRANCH   7  12
BRANCH   5  18
ATOM     18  C   UNL     1      -2.163  13.093  20.601  0.00  0.00    +0.000 C 
ATOM     19  O   UNL     1      -2.081  12.948  21.819  0.00  0.00    +0.000 OA
ATOM     20  N   UNL     1      -3.347  13.435  19.920  0.00  0.00    +0.000 N 
ATOM     21  H   UNL     1      -3.166  14.035  19.122  0.00  0.00    +0.000 HD
BRANCH  20  22
ATOM     22  C   UNL     1      -4.436  13.794  20.707  0.00  0.00    +0.000 A 
ATOM     23  S   UNL     1      -5.512  12.552  21.169  0.00  0.00    +0.000 S 
ATOM     24  C   UNL     1      -6.305  13.583  22.276  0.00  0.00    +0.000 A 
ATOM     25  C   UNL     1      -5.758  14.843  22.271  0.00  0.00    +0.000 A 
ATOM     26  C   UNL     1      -4.803  15.029  21.204  0.00  0.00    +0.000 A 
ATOM     27  C   UNL     1      -6.064  15.861  23.310  0.00  0.00    +0.000 C 
ATOM     28  C   UNL     1      -7.266  15.560  24.193  0.00  0.00    +0.000 C 
ATOM     29  C   UNL     1      -7.908  14.167  24.153  0.00  0.00    +0.000 C 
ATOM     30  C   UNL     1      -7.377  13.096  23.189  0.00  0.00    +0.000 C 
BRANCH  26  31
ATOM     31  C   UNL     1      -4.170  16.300  20.896  0.00  0.00    +0.000 C 
ATOM     32  N   UNL     1      -5.018  17.324  20.580  0.00  0.00    +0.000 N 
ATOM     33  O   UNL     1      -2.968  16.511  21.015  0.00  0.00    +0.000 OA
ATOM     34  H   UNL     1      -5.983  17.270  20.880  0.00  0.00    +0.000 HD
ATOM     35  H   UNL     1      -4.578  18.234  20.669  0.00  0.00    +0.000 HD
ENDBRANCH  26  31
ENDBRANCH  20  22
ENDBRANCH   5  18
BRANCH  10  36
ATOM     36  N   UNL     1       2.811  11.723  17.440  0.00  0.00    +0.000 N 
ATOM     37  H   UNL     1       2.640  11.710  16.431  0.00  0.00    +0.000 HD
ATOM     38  H   UNL     1       3.722  11.355  17.708  0.00  0.00    +0.000 HD
ENDBRANCH  10  36
BRANCH   1  40
ATOM     39  N   UNL     1       2.886   7.763  17.773  0.00  0.00    +0.000 NA
ATOM     40  C   UNL     1       2.211   8.778  18.096  0.00  0.00    +0.000 C 
ENDBRANCH   1  40
TORSDOF 6
ENDMDL
MODEL 9
REMARK VINA RESULT:      -6.4      2.219      7.571
REMARK  Name = 
REMARK  6 active torsions:
REMARK  status: ('A' for Active; 'I' for Inactive)
REMARK    1  A    between atoms: C_2  and  C_3
REMARK    2  A    between atoms: C_7  and  C_8
REMARK    3  A    between atoms: N_10  and  C_11
REMARK    4  A    between atoms: C_15  and  C_16
REMARK    5  A    between atoms: N_24  and  C_25
REMARK    6  A    between atoms: C_33  and  N_34
REMARK                            x       y       z     vdW  Elec       q    Type
REMARK                         _______ _______ _______ _____ _____    ______ ____
ROOT
ATOM      1  C   UNL     1       0.359  16.330  18.734  0.00  0.00    +0.000 A 
ATOM      2  N   UNL     1       1.039  15.177  18.363  0.00  0.00    +0.000 NA
ATOM      3  N   UNL     1       0.667  14.031  18.715  0.00  0.00    +0.000 NA
ATOM      4  C   UNL     1      -0.445  13.892  19.482  0.00  0.00    +0.000 A 
ATOM      5  C   UNL     1      -1.066  12.794  20.041  0.00  0.00    +0.000 A 
ATOM      6  C   UNL     1      -2.196  13.337  20.728  0.00  0.00    +0.000 A 
ATOM      7  N   UNL     1      -3.101  12.561  21.384  0.00  0.00    +0.000 N 
ATOM      8  N   UNL     1      -2.260  14.664  20.577  0.00  0.00    +0.000 NA
ATOM      9  N   UNL     1      -1.167  15.007  19.868  0.00  0.00    +0.000 N 
ATOM     10  C   UNL     1      -0.757  16.311  19.487  0.00  0.00    +0.000 A 
ATOM     11  H   UNL     1      -2.881  11.568  21.480  0.00  0.00    +0.000 HD
ENDROOT
BRANCH   7  12
ATOM     12  C   UNL     1      -4.378  12.881  21.909  0.00  0.00    +0.000 A 
ATOM     13  C   UNL     1      -5.534  12.973  21.122  0.00  0.00    +0.000 A 
ATOM     14  C   UNL     1      -6.800  13.135  21.693  0.00  0.00    +0.000 A 
ATOM     15  C   UNL     1      -6.937  13.217  23.074  0.00  0.00    +0.000 A 
ATOM     16  C   UNL     1      -5.801  13.175  23.876  0.00  0.00    +0.000 A 
ATOM     17  C   UNL     1      -4.535  13.012  23.298  0.00  0.00    +0.000 A 
ENDBRANCH   7  12
BRANCH   5  18
ATOM     18  C   UNL     1      -0.640  11.406  19.943  0.00  0.00    +0.000 C 
ATOM     19  O   UNL     1      -1.481  10.512  19.861  0.00  0.00    +0.000 OA
ATOM     20  N   UNL     1       0.751  11.197  19.864  0.00  0.00    +0.000 N 
ATOM     21  H   UNL     1       1.224  11.963  19.397  0.00  0.00    +0.000 HD
BRANCH  20  22
ATOM     22  C   UNL     1       1.169   9.922  19.501  0.00  0.00    +0.000 A 
ATOM     23  S   UNL     1       1.754   9.711  17.911  0.00  0.00    +0.000 S 
ATOM     24  C   UNL     1       2.334   8.147  18.279  0.00  0.00    +0.000 A 
ATOM     25  C   UNL     1       2.067   7.805  19.582  0.00  0.00    +0.000 A 
ATOM     26  C   UNL     1       1.200   8.755  20.239  0.00  0.00    +0.000 A 
ATOM     27  C   UNL     1       2.680   6.628  20.250  0.00  0.00    +0.000 C 
ATOM     28  C   UNL     1       3.360   5.626  19.327  0.00  0.00    +0.000 C 
ATOM     29  C   UNL     1       3.605   5.993  17.858  0.00  0.00    +0.000 C 
ATOM     30  C   UNL     1       3.121   7.341  17.304  0.00  0.00    +0.000 C 
BRANCH  26  31
ATOM     31  C   UNL     1       0.664   8.572  21.577  0.00  0.00    +0.000 C 
ATOM     32  N   UNL     1      -0.598   8.050  21.643  0.00  0.00    +0.000 N 
ATOM     33  O   UNL     1       1.310   8.751  22.603  0.00  0.00    +0.000 OA
ATOM     34  H   UNL     1      -0.954   7.529  20.852  0.00  0.00    +0.000 HD
ATOM     35  H   UNL     1      -0.811   7.664  22.558  0.00  0.00    +0.000 HD
ENDBRANCH  26  31
ENDBRANCH  20  22
ENDBRANCH   5  18
BRANCH  10  36
ATOM     36  N   UNL     1      -1.523  17.391  19.912  0.00  0.00    +0.000 N 
ATOM     37  H   UNL     1      -2.209  17.129  20.626  0.00  0.00    +0.000 HD
ATOM     38  H   UNL     1      -1.897  17.998  19.185  0.00  0.00    +0.000 HD
ENDBRANCH  10  36
BRANCH   1  40
ATOM     39  N   UNL     1       1.581  18.631  17.760  0.00  0.00    +0.000 NA
ATOM     40  C   UNL     1       1.027  17.588  18.202  0.00  0.00    +0.000 C 
ENDBRANCH   1  40
TORSDOF 6
ENDMDL
