MODEL 1
REMARK VINA RESULT:      -8.8      0.000      0.000
REMARK  Name = 
REMARK  5 active torsions:
REMARK  status: ('A' for Active; 'I' for Inactive)
REMARK    1  A    between atoms: C_1  and  N_2
REMARK    2  A    between atoms: N_2  and  C_3
REMARK    3  A    between atoms: C_3  and  C_4
REMARK    4  A    between atoms: C_10  and  S_11
REMARK    5  A    between atoms: S_11  and  C_14
REMARK                            x       y       z     vdW  Elec       q    Type
REMARK                         _______ _______ _______ _____ _____    ______ ____
ROOT
ATOM      1  C   UNL     1       1.697   4.753  19.112  0.00  0.00    +0.000 C 
ATOM      2  C   UNL     1       1.144   3.314  19.203  0.00  0.00    +0.000 C 
ATOM      3  C   UNL     1       2.207   2.285  19.574  0.00  0.00    +0.000 C 
ATOM      4  C   UNL     1       3.372   2.293  18.590  0.00  0.00    +0.000 C 
ATOM      5  C   UNL     1       3.814   3.667  18.158  0.00  0.00    +0.000 A 
ATOM      6  C   UNL     1       5.053   3.797  17.509  0.00  0.00    +0.000 A 
ATOM      7  C   UNL     1       5.465   5.038  17.010  0.00  0.00    +0.000 A 
ATOM      8  C   UNL     1       4.641   6.154  17.120  0.00  0.00    +0.000 A 
ATOM      9  C   UNL     1       3.402   6.021  17.742  0.00  0.00    +0.000 A 
ATOM     10  C   UNL     1       2.992   4.798  18.309  0.00  0.00    +0.000 A 
ENDROOT
BRANCH   7  11
ATOM     11  S   UNL     1       7.092   5.206  16.312  0.00  0.00    +0.000 S 
ATOM     12  O   UNL     1       7.453   6.613  16.410  0.00  0.00    +0.000 OA
ATOM     13  O   UNL     1       7.934   4.198  16.924  0.00  0.00    +0.000 OA
BRANCH  11  14
ATOM     14  C   UNL     1       6.958   4.810  14.586  0.00  0.00    +0.000 A 
ATOM     15  C   UNL     1       7.842   5.391  13.673  0.00  0.00    +0.000 A 
ATOM     16  C   UNL     1       7.770   5.035  12.326  0.00  0.00    +0.000 A 
ATOM     17  C   UNL     1       6.829   4.095  11.901  0.00  0.00    +0.000 A 
ATOM     18  C   UNL     1       5.957   3.506  12.819  0.00  0.00    +0.000 A 
ATOM     19  C   UNL     1       6.021   3.859  14.168  0.00  0.00    +0.000 A 
ENDBRANCH  11  14
ENDBRANCH   7  11
BRANCH   1  20
ATOM     20  C   UNL     1       1.831   5.403  20.530  0.00  0.00    +0.000 C 
BRANCH  20  22
ATOM     21  C   UNL     1       1.299   7.729  21.064  0.00  0.00    +0.000 C 
ATOM     22  N   UNL     1       2.256   6.811  20.468  0.00  0.00    +0.000 NA
ATOM     23  H   UNL     1       3.126   6.900  20.996  0.00  0.00    +0.000 HD
ENDBRANCH  20  22
ENDBRANCH   1  20
TORSDOF 4
ENDMDL
MODEL 2
REMARK VINA RESULT:      -8.7      1.197      1.454
REMARK  Name = 
REMARK  5 active torsions:
REMARK  status: ('A' for Active; 'I' for Inactive)
REMARK    1  A    between atoms: C_1  and  N_2
REMARK    2  A    between atoms: N_2  and  C_3
REMARK    3  A    between atoms: C_3  and  C_4
REMARK    4  A    between atoms: C_10  and  S_11
REMARK    5  A    between atoms: S_11  and  C_14
REMARK                            x       y       z     vdW  Elec       q    Type
REMARK                         _______ _______ _______ _____ _____    ______ ____
ROOT
ATOM      1  C   UNL     1       1.467   4.128  18.773  0.00  0.00    +0.000 C 
ATOM      2  C   UNL     1       0.934   2.699  18.530  0.00  0.00    +0.000 C 
ATOM      3  C   UNL     1       2.007   1.625  18.681  0.00  0.00    +0.000 C 
ATOM      4  C   UNL     1       3.186   1.866  17.744  0.00  0.00    +0.000 C 
ATOM      5  C   UNL     1       3.614   3.307  17.638  0.00  0.00    +0.000 A 
ATOM      6  C   UNL     1       4.860   3.592  17.056  0.00  0.00    +0.000 A 
ATOM      7  C   UNL     1       5.261   4.918  16.854  0.00  0.00    +0.000 A 
ATOM      8  C   UNL     1       4.420   5.972  17.196  0.00  0.00    +0.000 A 
ATOM      9  C   UNL     1       3.174   5.690  17.751  0.00  0.00    +0.000 A 
ATOM     10  C   UNL     1       2.774   4.366  18.023  0.00  0.00    +0.000 A 
ENDROOT
BRANCH   7  11
ATOM     11  S   UNL     1       6.896   5.256  16.240  0.00  0.00    +0.000 S 
ATOM     12  O   UNL     1       7.101   6.693  16.348  0.00  0.00    +0.000 OA
ATOM     13  O   UNL     1       7.806   4.343  16.900  0.00  0.00    +0.000 OA
BRANCH  11  14
ATOM     14  C   UNL     1       6.894   4.847  14.511  0.00  0.00    +0.000 A 
ATOM     15  C   UNL     1       7.795   5.480  13.651  0.00  0.00    +0.000 A 
ATOM     16  C   UNL     1       7.829   5.116  12.305  0.00  0.00    +0.000 A 
ATOM     17  C   UNL     1       6.976   4.118  11.829  0.00  0.00    +0.000 A 
ATOM     18  C   UNL     1       6.088   3.478  12.695  0.00  0.00    +0.000 A 
ATOM     19  C   UNL     1       6.046   3.838  14.043  0.00  0.00    +0.000 A 
ENDBRANCH  11  14
ENDBRANCH   7  11
BRANCH   1  20
ATOM     20  C   UNL     1       1.571   4.446  20.303  0.00  0.00    +0.000 C 
BRANCH  20  22
ATOM     21  C   UNL     1       1.821   2.698  21.995  0.00  0.00    +0.000 C 
ATOM     22  N   UNL     1       0.905   3.431  21.136  0.00  0.00    +0.000 NA
ATOM     23  H   UNL     1       0.242   3.912  21.747  0.00  0.00    +0.000 HD
ENDBRANCH  20  22
ENDBRANCH   1  20
TORSDOF 4
ENDMDL
MODEL 3
REMARK VINA RESULT:      -8.7      1.016      1.648
REMARK  Name = 
REMARK  5 active torsions:
REMARK  status: ('A' for Active; 'I' for Inactive)
REMARK    1  A    between atoms: C_1  and  N_2
REMARK    2  A    between atoms: N_2  and  C_3
REMARK    3  A    between atoms: C_3  and  C_4
REMARK    4  A    between atoms: C_10  and  S_11
REMARK    5  A    between atoms: S_11  and  C_14
REMARK                            x       y       z     vdW  Elec       q    Type
REMARK                         _______ _______ _______ _____ _____    ______ ____
ROOT
ATOM      1  C   UNL     1       1.428   4.286  18.784  0.00  0.00    +0.000 C 
ATOM      2  C   UNL     1       0.894   2.850  18.594  0.00  0.00    +0.000 C 
ATOM      3  C   UNL     1       1.959   1.780  18.813  0.00  0.00    +0.000 C 
ATOM      4  C   UNL     1       3.159   1.976  17.892  0.00  0.00    +0.000 C 
ATOM      5  C   UNL     1       3.594   3.409  17.731  0.00  0.00    +0.000 A 
ATOM      6  C   UNL     1       4.853   3.665  17.163  0.00  0.00    +0.000 A 
ATOM      7  C   UNL     1       5.263   4.979  16.911  0.00  0.00    +0.000 A 
ATOM      8  C   UNL     1       4.419   6.050  17.189  0.00  0.00    +0.000 A 
ATOM      9  C   UNL     1       3.161   5.796  17.730  0.00  0.00    +0.000 A 
ATOM     10  C   UNL     1       2.750   4.487  18.052  0.00  0.00    +0.000 A 
ENDROOT
BRANCH   7  11
ATOM     11  S   UNL     1       6.912   5.285  16.317  0.00  0.00    +0.000 S 
ATOM     12  O   UNL     1       7.121   6.725  16.366  0.00  0.00    +0.000 OA
ATOM     13  O   UNL     1       7.804   4.398  17.035  0.00  0.00    +0.000 OA
BRANCH  11  14
ATOM     14  C   UNL     1       6.943   4.801  14.608  0.00  0.00    +0.000 A 
ATOM     15  C   UNL     1       6.039   3.841  14.145  0.00  0.00    +0.000 A 
ATOM     16  C   UNL     1       6.028   3.505  12.792  0.00  0.00    +0.000 A 
ATOM     17  C   UNL     1       6.907   4.135  11.908  0.00  0.00    +0.000 A 
ATOM     18  C   UNL     1       7.798   5.104  12.372  0.00  0.00    +0.000 A 
ATOM     19  C   UNL     1       7.817   5.444  13.725  0.00  0.00    +0.000 A 
ENDBRANCH  11  14
ENDBRANCH   7  11
BRANCH   1  20
ATOM     20  C   UNL     1       1.502   4.671  20.300  0.00  0.00    +0.000 C 
BRANCH  20  22
ATOM     21  C   UNL     1       2.183   3.053  22.003  0.00  0.00    +0.000 C 
ATOM     22  N   UNL     1       2.617   4.009  20.997  0.00  0.00    +0.000 NA
ATOM     23  H   UNL     1       3.156   3.488  20.303  0.00  0.00    +0.000 HD
ENDBRANCH  20  22
ENDBRANCH   1  20
TORSDOF 4
ENDMDL
MODEL 4
REMARK VINA RESULT:      -8.5      0.514      1.155
REMARK  Name = 
REMARK  5 active torsions:
REMARK  status: ('A' for Active; 'I' for Inactive)
REMARK    1  A    between atoms: C_1  and  N_2
REMARK    2  A    between atoms: N_2  and  C_3
REMARK    3  A    between atoms: C_3  and  C_4
REMARK    4  A    between atoms: C_10  and  S_11
REMARK    5  A    between atoms: S_11  and  C_14
REMARK                            x       y       z     vdW  Elec       q    Type
REMARK                         _______ _______ _______ _____ _____    ______ ____
ROOT
ATOM      1  C   UNL     1       1.584   4.309  18.969  0.00  0.00    +0.000 C 
ATOM      2  C   UNL     1       1.041   2.870  18.837  0.00  0.00    +0.000 C 
ATOM      3  C   UNL     1       2.113   1.804  19.041  0.00  0.00    +0.000 C 
ATOM      4  C   UNL     1       3.275   1.974  18.067  0.00  0.00    +0.000 C 
ATOM      5  C   UNL     1       3.705   3.401  17.852  0.00  0.00    +0.000 A 
ATOM      6  C   UNL     1       4.941   3.640  17.228  0.00  0.00    +0.000 A 
ATOM      7  C   UNL     1       5.342   4.946  16.927  0.00  0.00    +0.000 A 
ATOM      8  C   UNL     1       4.511   6.025  17.211  0.00  0.00    +0.000 A 
ATOM      9  C   UNL     1       3.275   5.788  17.808  0.00  0.00    +0.000 A 
ATOM     10  C   UNL     1       2.876   4.488  18.179  0.00  0.00    +0.000 A 
ENDROOT
BRANCH   7  11
ATOM     11  S   UNL     1       6.965   5.233  16.259  0.00  0.00    +0.000 S 
ATOM     12  O   UNL     1       7.191   6.671  16.294  0.00  0.00    +0.000 OA
ATOM     13  O   UNL     1       7.880   4.339  16.940  0.00  0.00    +0.000 OA
BRANCH  11  14
ATOM     14  C   UNL     1       6.916   4.743  14.552  0.00  0.00    +0.000 A 
ATOM     15  C   UNL     1       5.979   3.796  14.132  0.00  0.00    +0.000 A 
ATOM     16  C   UNL     1       5.905   3.455  12.782  0.00  0.00    +0.000 A 
ATOM     17  C   UNL     1       6.755   4.068  11.858  0.00  0.00    +0.000 A 
ATOM     18  C   UNL     1       7.680   5.025  12.280  0.00  0.00    +0.000 A 
ATOM     19  C   UNL     1       7.762   5.370  13.630  0.00  0.00    +0.000 A 
ENDBRANCH  11  14
ENDBRANCH   7  11
BRANCH   1  20
ATOM     20  C   UNL     1       1.719   4.732  20.471  0.00  0.00    +0.000 C 
BRANCH  20  22
ATOM     21  C   UNL     1       1.837   7.170  20.624  0.00  0.00    +0.000 C 
ATOM     22  N   UNL     1       1.007   5.986  20.770  0.00  0.00    +0.000 NA
ATOM     23  H   UNL     1       0.236   6.076  20.105  0.00  0.00    +0.000 HD
ENDBRANCH  20  22
ENDBRANCH   1  20
TORSDOF 4
ENDMDL
MODEL 5
REMARK VINA RESULT:      -8.2      0.841      1.359
REMARK  Name = 
REMARK  5 active torsions:
REMARK  status: ('A' for Active; 'I' for Inactive)
REMARK    1  A    between atoms: C_1  and  N_2
REMARK    2  A    between atoms: N_2  and  C_3
REMARK    3  A    between atoms: C_3  and  C_4
REMARK    4  A    between atoms: C_10  and  S_11
REMARK    5  A    between atoms: S_11  and  C_14
REMARK                            x       y       z     vdW  Elec       q    Type
REMARK                         _______ _______ _______ _____ _____    ______ ____
ROOT
ATOM      1  C   UNL     1       1.680   4.007  19.527  0.00  0.00    +0.000 C 
ATOM      2  C   UNL     1       1.685   2.680  20.315  0.00  0.00    +0.000 C 
ATOM      3  C   UNL     1       2.978   2.448  21.090  0.00  0.00    +0.000 C 
ATOM      4  C   UNL     1       4.200   2.474  20.177  0.00  0.00    +0.000 C 
ATOM      5  C   UNL     1       4.170   3.551  19.125  0.00  0.00    +0.000 A 
ATOM      6  C   UNL     1       5.361   3.854  18.445  0.00  0.00    +0.000 A 
ATOM      7  C   UNL     1       5.363   4.783  17.399  0.00  0.00    +0.000 A 
ATOM      8  C   UNL     1       4.181   5.397  16.995  0.00  0.00    +0.000 A 
ATOM      9  C   UNL     1       2.996   5.079  17.652  0.00  0.00    +0.000 A 
ATOM     10  C   UNL     1       2.978   4.195  18.750  0.00  0.00    +0.000 A 
ENDROOT
BRANCH   7  11
ATOM     11  S   UNL     1       6.904   5.250  16.642  0.00  0.00    +0.000 S 
ATOM     12  O   UNL     1       6.963   6.704  16.661  0.00  0.00    +0.000 OA
ATOM     13  O   UNL     1       7.951   4.473  17.275  0.00  0.00    +0.000 OA
BRANCH  11  14
ATOM     14  C   UNL     1       6.819   4.742  14.942  0.00  0.00    +0.000 A 
ATOM     15  C   UNL     1       5.847   3.821  14.544  0.00  0.00    +0.000 A 
ATOM     16  C   UNL     1       5.747   3.467  13.199  0.00  0.00    +0.000 A 
ATOM     17  C   UNL     1       6.605   4.042  12.259  0.00  0.00    +0.000 A 
ATOM     18  C   UNL     1       7.565   4.973  12.659  0.00  0.00    +0.000 A 
ATOM     19  C   UNL     1       7.673   5.331  14.004  0.00  0.00    +0.000 A 
ENDBRANCH  11  14
ENDBRANCH   7  11
BRANCH   1  20
ATOM     20  C   UNL     1       1.339   5.221  20.457  0.00  0.00    +0.000 C 
BRANCH  20  22
ATOM     21  C   UNL     1       1.965   7.568  20.174  0.00  0.00    +0.000 C 
ATOM     22  N   UNL     1       2.417   6.223  20.493  0.00  0.00    +0.000 NA
ATOM     23  H   UNL     1       2.788   6.250  21.445  0.00  0.00    +0.000 HD
ENDBRANCH  20  22
ENDBRANCH   1  20
TORSDOF 4
ENDMDL
MODEL 6
REMARK VINA RESULT:      -7.7      3.944      6.011
REMARK  Name = 
REMARK  5 active torsions:
REMARK  status: ('A' for Active; 'I' for Inactive)
REMARK    1  A    between atoms: C_1  and  N_2
REMARK    2  A    between atoms: N_2  and  C_3
REMARK    3  A    between atoms: C_3  and  C_4
REMARK    4  A    between atoms: C_10  and  S_11
REMARK    5  A    between atoms: S_11  and  C_14
REMARK                            x       y       z     vdW  Elec       q    Type
REMARK                         _______ _______ _______ _____ _____    ______ ____
ROOT
ATOM      1  C   UNL     1       0.357  10.522  19.540  0.00  0.00    +0.000 C 
ATOM      2  C   UNL     1      -0.481  10.350  20.825  0.00  0.00    +0.000 C 
ATOM      3  C   UNL     1       0.310   9.746  21.981  0.00  0.00    +0.000 C 
ATOM      4  C   UNL     1       0.912   8.394  21.612  0.00  0.00    +0.000 C 
ATOM      5  C   UNL     1       1.493   8.329  20.224  0.00  0.00    +0.000 A 
ATOM      6  C   UNL     1       2.332   7.248  19.901  0.00  0.00    +0.000 A 
ATOM      7  C   UNL     1       2.823   7.097  18.600  0.00  0.00    +0.000 A 
ATOM      8  C   UNL     1       2.464   7.993  17.598  0.00  0.00    +0.000 A 
ATOM      9  C   UNL     1       1.613   9.051  17.911  0.00  0.00    +0.000 A 
ATOM     10  C   UNL     1       1.157   9.261  19.228  0.00  0.00    +0.000 A 
ENDROOT
BRANCH   7  11
ATOM     11  S   UNL     1       3.989   5.800  18.248  0.00  0.00    +0.000 S 
ATOM     12  O   UNL     1       4.429   5.986  16.873  0.00  0.00    +0.000 OA
ATOM     13  O   UNL     1       4.959   5.784  19.323  0.00  0.00    +0.000 OA
BRANCH  11  14
ATOM     14  C   UNL     1       3.093   4.268  18.317  0.00  0.00    +0.000 A 
ATOM     15  C   UNL     1       3.794   3.059  18.356  0.00  0.00    +0.000 A 
ATOM     16  C   UNL     1       3.090   1.861  18.467  0.00  0.00    +0.000 A 
ATOM     17  C   UNL     1       1.696   1.874  18.552  0.00  0.00    +0.000 A 
ATOM     18  C   UNL     1       1.001   3.085  18.529  0.00  0.00    +0.000 A 
ATOM     19  C   UNL     1       1.698   4.288  18.414  0.00  0.00    +0.000 A 
ENDBRANCH  11  14
ENDBRANCH   7  11
BRANCH   1  20
ATOM     20  C   UNL     1       1.243  11.811  19.605  0.00  0.00    +0.000 C 
BRANCH  20  22
ATOM     21  C   UNL     1       2.678  13.097  18.100  0.00  0.00    +0.000 C 
ATOM     22  N   UNL     1       1.382  12.468  18.295  0.00  0.00    +0.000 NA
ATOM     23  H   UNL     1       1.285  11.751  17.573  0.00  0.00    +0.000 HD
ENDBRANCH  20  22
ENDBRANCH   1  20
TORSDOF 4
ENDMDL
MODEL 7
REMARK VINA RESULT:      -7.7      4.540      6.675
REMARK  Name = 
REMARK  5 active torsions:
REMARK  status: ('A' for Active; 'I' for Inactive)
REMARK    1  A    between atoms: C_1  and  N_2
REMARK    2  A    between atoms: N_2  and  C_3
REMARK    3  A    between atoms: C_3  and  C_4
REMARK    4  A    between atoms: C_10  and  S_11
REMARK    5  A    between atoms: S_11  and  C_14
REMARK                            x       y       z     vdW  Elec       q    Type
REMARK                         _______ _______ _______ _____ _____    ______ ____
ROOT
ATOM      1  C   UNL     1       0.366  10.843  19.451  0.00  0.00    +0.000 C 
ATOM      2  C   UNL     1      -0.515  10.854  20.719  0.00  0.00    +0.000 C 
ATOM      3  C   UNL     1       0.185  10.271  21.942  0.00  0.00    +0.000 C 
ATOM      4  C   UNL     1       0.661   8.843  21.696  0.00  0.00    +0.000 C 
ATOM      5  C   UNL     1       1.267   8.612  20.336  0.00  0.00    +0.000 A 
ATOM      6  C   UNL     1       2.003   7.435  20.124  0.00  0.00    +0.000 A 
ATOM      7  C   UNL     1       2.508   7.135  18.854  0.00  0.00    +0.000 A 
ATOM      8  C   UNL     1       2.263   7.980  17.776  0.00  0.00    +0.000 A 
ATOM      9  C   UNL     1       1.512   9.135  17.980  0.00  0.00    +0.000 A 
ATOM     10  C   UNL     1       1.047   9.491  19.262  0.00  0.00    +0.000 A 
ENDROOT
BRANCH   7  11
ATOM     11  S   UNL     1       3.550   5.709  18.639  0.00  0.00    +0.000 S 
ATOM     12  O   UNL     1       3.797   5.575  17.210  0.00  0.00    +0.000 OA
ATOM     13  O   UNL     1       4.662   5.840  19.557  0.00  0.00    +0.000 OA
BRANCH  11  14
ATOM     14  C   UNL     1       2.603   4.295  19.150  0.00  0.00    +0.000 A 
ATOM     15  C   UNL     1       2.549   3.952  20.503  0.00  0.00    +0.000 A 
ATOM     16  C   UNL     1       1.760   2.876  20.908  0.00  0.00    +0.000 A 
ATOM     17  C   UNL     1       1.020   2.158  19.965  0.00  0.00    +0.000 A 
ATOM     18  C   UNL     1       1.065   2.514  18.616  0.00  0.00    +0.000 A 
ATOM     19  C   UNL     1       1.855   3.588  18.202  0.00  0.00    +0.000 A 
ENDBRANCH  11  14
ENDBRANCH   7  11
BRANCH   1  20
ATOM     20  C   UNL     1       1.373  12.043  19.447  0.00  0.00    +0.000 C 
BRANCH  20  22
ATOM     21  C   UNL     1       0.076  13.929  18.584  0.00  0.00    +0.000 C 
ATOM     22  N   UNL     1       1.139  12.971  18.327  0.00  0.00    +0.000 NA
ATOM     23  H   UNL     1       1.996  13.507  18.180  0.00  0.00    +0.000 HD
ENDBRANCH  20  22
ENDBRANCH   1  20
TORSDOF 4
ENDMDL
MODEL 8
REMARK VINA RESULT:      -7.7      2.897      4.835
REMARK  Name = 
REMARK  5 active torsions:
REMARK  status: ('A' for Active; 'I' for Inactive)
REMARK    1  A    between atoms: C_1  and  N_2
REMARK    2  A    between atoms: N_2  and  C_3
REMARK    3  A    between atoms: C_3  and  C_4
REMARK    4  A    between atoms: C_10  and  S_11
REMARK    5  A    between atoms: S_11  and  C_14
REMARK                            x       y       z     vdW  Elec       q    Type
REMARK                         _______ _______ _______ _____ _____    ______ ____
ROOT
ATOM      1  C   UNL     1       1.130   8.987  20.785  0.00  0.00    +0.000 C 
ATOM      2  C   UNL     1       1.341  10.264  19.943  0.00  0.00    +0.000 C 
ATOM      3  C   UNL     1       1.008  10.072  18.468  0.00  0.00    +0.000 C 
ATOM      4  C   UNL     1       1.822   8.943  17.845  0.00  0.00    +0.000 C 
ATOM      5  C   UNL     1       1.970   7.725  18.719  0.00  0.00    +0.000 A 
ATOM      6  C   UNL     1       2.428   6.533  18.132  0.00  0.00    +0.000 A 
ATOM      7  C   UNL     1       2.666   5.402  18.919  0.00  0.00    +0.000 A 
ATOM      8  C   UNL     1       2.485   5.447  20.298  0.00  0.00    +0.000 A 
ATOM      9  C   UNL     1       2.054   6.635  20.884  0.00  0.00    +0.000 A 
ATOM     10  C   UNL     1       1.746   7.769  20.105  0.00  0.00    +0.000 A 
ENDROOT
BRANCH   7  11
ATOM     11  S   UNL     1       3.117   3.868  18.138  0.00  0.00    +0.000 S 
ATOM     12  O   UNL     1       3.274   2.882  19.198  0.00  0.00    +0.000 OA
ATOM     13  O   UNL     1       2.174   3.634  17.064  0.00  0.00    +0.000 OA
BRANCH  11  14
ATOM     14  C   UNL     1       4.714   4.114  17.400  0.00  0.00    +0.000 A 
ATOM     15  C   UNL     1       4.856   4.015  16.013  0.00  0.00    +0.000 A 
ATOM     16  C   UNL     1       6.099   4.264  15.432  0.00  0.00    +0.000 A 
ATOM     17  C   UNL     1       7.187   4.622  16.232  0.00  0.00    +0.000 A 
ATOM     18  C   UNL     1       7.036   4.734  17.615  0.00  0.00    +0.000 A 
ATOM     19  C   UNL     1       5.796   4.484  18.205  0.00  0.00    +0.000 A 
ENDBRANCH  11  14
ENDBRANCH   7  11
BRANCH   1  20
ATOM     20  C   UNL     1      -0.379   8.788  21.152  0.00  0.00    +0.000 C 
BRANCH  20  22
ATOM     21  C   UNL     1      -0.783  10.239  23.079  0.00  0.00    +0.000 C 
ATOM     22  N   UNL     1      -0.624   8.875  22.601  0.00  0.00    +0.000 NA
ATOM     23  H   UNL     1      -1.496   8.383  22.802  0.00  0.00    +0.000 HD
ENDBRANCH  20  22
ENDBRANCH   1  20
TORSDOF 4
ENDMDL
MODEL 9
REMARK VINA RESULT:      -7.7      4.593      6.802
REMARK  Name = 
REMARK  5 active torsions:
REMARK  status: ('A' for Active; 'I' for Inactive)
REMARK    1  A    between atoms: C_1  and  N_2
REMARK    2  A    between atoms: N_2  and  C_3
REMARK    3  A    between atoms: C_3  and  C_4
REMARK    4  A    between atoms: C_10  and  S_11
REMARK    5  A    between atoms: S_11  and  C_14
REMARK                            x       y       z     vdW  Elec       q    Type
REMARK                         _______ _______ _______ _____ _____    ______ ____
ROOT
ATOM      1  C   UNL     1       0.508  11.059  19.284  0.00  0.00    +0.000 C 
ATOM      2  C   UNL     1      -0.465  11.111  20.482  0.00  0.00    +0.000 C 
ATOM      3  C   UNL     1       0.112  10.488  21.750  0.00  0.00    +0.000 C 
ATOM      4  C   UNL     1       0.531   9.038  21.530  0.00  0.00    +0.000 C 
ATOM      5  C   UNL     1       1.224   8.782  20.217  0.00  0.00    +0.000 A 
ATOM      6  C   UNL     1       1.914   7.568  20.052  0.00  0.00    +0.000 A 
ATOM      7  C   UNL     1       2.496   7.248  18.821  0.00  0.00    +0.000 A 
ATOM      8  C   UNL     1       2.375   8.108  17.734  0.00  0.00    +0.000 A 
ATOM      9  C   UNL     1       1.672   9.299  17.890  0.00  0.00    +0.000 A 
ATOM     10  C   UNL     1       1.130   9.675  19.136  0.00  0.00    +0.000 A 
ENDROOT
BRANCH   7  11
ATOM     11  S   UNL     1       3.477   5.770  18.673  0.00  0.00    +0.000 S 
ATOM     12  O   UNL     1       3.755   5.585  17.257  0.00  0.00    +0.000 OA
ATOM     13  O   UNL     1       4.570   5.878  19.618  0.00  0.00    +0.000 OA
BRANCH  11  14
ATOM     14  C   UNL     1       2.453   4.416  19.197  0.00  0.00    +0.000 A 
ATOM     15  C   UNL     1       1.719   3.699  18.249  0.00  0.00    +0.000 A 
ATOM     16  C   UNL     1       0.960   2.602  18.656  0.00  0.00    +0.000 A 
ATOM     17  C   UNL     1       0.948   2.219  19.999  0.00  0.00    +0.000 A 
ATOM     18  C   UNL     1       1.696   2.929  20.940  0.00  0.00    +0.000 A 
ATOM     19  C   UNL     1       2.455   4.030  20.541  0.00  0.00    +0.000 A 
ENDBRANCH  11  14
ENDBRANCH   7  11
BRANCH   1  20
ATOM     20  C   UNL     1       1.572  12.206  19.363  0.00  0.00    +0.000 C 
BRANCH  20  22
ATOM     21  C   UNL     1       1.951  14.437  18.436  0.00  0.00    +0.000 C 
ATOM     22  N   UNL     1       1.570  13.060  18.164  0.00  0.00    +0.000 NA
ATOM     23  H   UNL     1       2.258  12.683  17.509  0.00  0.00    +0.000 HD
ENDBRANCH  20  22
ENDBRANCH   1  20
TORSDOF 4
ENDMDL
