MODEL 1
REMARK VINA RESULT:      -6.3      0.000      0.000
REMARK  Name = 
REMARK  6 active torsions:
REMARK  status: ('A' for Active; 'I' for Inactive)
REMARK    1  A    between atoms: C_1  and  C_2
REMARK    2  A    between atoms: C_2  and  O_3
REMARK    3  A    between atoms: O_3  and  C_4
REMARK    4  A    between atoms: N_6  and  C_7
REMARK    5  A    between atoms: C_7  and  C_8
REMARK    6  A    between atoms: C_8  and  C_9
REMARK                            x       y       z     vdW  Elec       q    Type
REMARK                         _______ _______ _______ _____ _____    ______ ____
ROOT
ATOM      1  C   UNL     1       5.869   4.891  18.872  0.00  0.00    +0.000 C 
ENDROOT
BRANCH   1   4
ATOM      2  C   UNL     1       7.256   4.832  16.845  0.00  0.00    +0.000 C 
ATOM      3  O   UNL     1       8.171   4.199  17.348  0.00  0.00    +0.000 OA
ATOM      4  N   UNL     1       6.100   5.173  17.475  0.00  0.00    +0.000 N 
ATOM      5  H   UNL     1       5.457   5.747  16.947  0.00  0.00    +0.000 HD
BRANCH   2   6
ATOM      6  O   UNL     1       7.250   5.371  15.603  0.00  0.00    +0.000 OA
BRANCH   6   8
ATOM      7  C   UNL     1       6.216   3.974  13.964  0.00  0.00    +0.000 C 
ATOM      8  C   UNL     1       6.033   5.179  14.870  0.00  0.00    +0.000 C 
ENDBRANCH   6   8
ENDBRANCH   2   6
ENDBRANCH   1   4
BRANCH   1   9
ATOM      9  C   UNL     1       4.563   5.513  19.358  0.00  0.00    +0.000 C 
BRANCH   9  10
ATOM     10  C   UNL     1       3.393   4.588  19.146  0.00  0.00    +0.000 A 
ATOM     11  C   UNL     1       3.221   3.460  19.961  0.00  0.00    +0.000 A 
ATOM     12  C   UNL     1       2.138   2.602  19.752  0.00  0.00    +0.000 A 
ATOM     13  C   UNL     1       1.235   2.872  18.731  0.00  0.00    +0.000 A 
ATOM     14  F   UNL     1       0.196   2.050  18.539  0.00  0.00    +0.000 F 
ATOM     15  C   UNL     1       1.396   3.978  17.908  0.00  0.00    +0.000 A 
ATOM     16  C   UNL     1       2.477   4.835  18.111  0.00  0.00    +0.000 A 
ENDBRANCH   9  10
ENDBRANCH   1   9
TORSDOF 5
ENDMDL
MODEL 2
REMARK VINA RESULT:      -6.2      1.852      2.770
REMARK  Name = 
REMARK  6 active torsions:
REMARK  status: ('A' for Active; 'I' for Inactive)
REMARK    1  A    between atoms: C_1  and  C_2
REMARK    2  A    between atoms: C_2  and  O_3
REMARK    3  A    between atoms: O_3  and  C_4
REMARK    4  A    between atoms: N_6  and  C_7
REMARK    5  A    between atoms: C_7  and  C_8
REMARK    6  A    between atoms: C_8  and  C_9
REMARK                            x       y       z     vdW  Elec       q    Type
REMARK                         _______ _______ _______ _____ _____    ______ ____
ROOT
ATOM      1  C   UNL     1       4.669   4.229  17.152  0.00  0.00    +0.000 C 
ENDROOT
BRANCH   1   4
ATOM      2  C   UNL     1       6.303   5.755  16.133  0.00  0.00    +0.000 C 
ATOM      3  O   UNL     1       5.777   5.771  15.031  0.00  0.00    +0.000 OA
ATOM      4  N   UNL     1       5.829   5.086  17.218  0.00  0.00    +0.000 N 
ATOM      5  H   UNL     1       6.403   5.122  18.050  0.00  0.00    +0.000 HD
BRANCH   2   6
ATOM      6  O   UNL     1       7.482   6.333  16.460  0.00  0.00    +0.000 OA
BRANCH   6   8
ATOM      7  C   UNL     1       7.975   8.259  17.784  0.00  0.00    +0.000 C 
ATOM      8  C   UNL     1       7.572   6.796  17.813  0.00  0.00    +0.000 C 
ENDBRANCH   6   8
ENDBRANCH   2   6
ENDBRANCH   1   4
BRANCH   1   9
ATOM      9  C   UNL     1       3.399   4.979  17.541  0.00  0.00    +0.000 C 
BRANCH   9  10
ATOM     10  C   UNL     1       2.719   4.345  18.727  0.00  0.00    +0.000 A 
ATOM     11  C   UNL     1       1.864   3.247  18.554  0.00  0.00    +0.000 A 
ATOM     12  C   UNL     1       1.230   2.671  19.658  0.00  0.00    +0.000 A 
ATOM     13  C   UNL     1       1.449   3.194  20.926  0.00  0.00    +0.000 A 
ATOM     14  F   UNL     1       0.845   2.634  21.981  0.00  0.00    +0.000 F 
ATOM     15  C   UNL     1       2.284   4.288  21.114  0.00  0.00    +0.000 A 
ATOM     16  C   UNL     1       2.917   4.867  20.015  0.00  0.00    +0.000 A 
ENDBRANCH   9  10
ENDBRANCH   1   9
TORSDOF 5
ENDMDL
MODEL 3
REMARK VINA RESULT:      -6.1      1.807      2.112
REMARK  Name = 
REMARK  6 active torsions:
REMARK  status: ('A' for Active; 'I' for Inactive)
REMARK    1  A    between atoms: C_1  and  C_2
REMARK    2  A    between atoms: C_2  and  O_3
REMARK    3  A    between atoms: O_3  and  C_4
REMARK    4  A    between atoms: N_6  and  C_7
REMARK    5  A    between atoms: C_7  and  C_8
REMARK    6  A    between atoms: C_8  and  C_9
REMARK                            x       y       z     vdW  Elec       q    Type
REMARK                         _______ _______ _______ _____ _____    ______ ____
ROOT
ATOM      1  C   UNL     1       4.895   4.296  17.302  0.00  0.00    +0.000 C 
ENDROOT
BRANCH   1   4
ATOM      2  C   UNL     1       6.239   5.373  15.549  0.00  0.00    +0.000 C 
ATOM      3  O   UNL     1       6.334   6.449  16.119  0.00  0.00    +0.000 OA
ATOM      4  N   UNL     1       5.612   4.274  16.048  0.00  0.00    +0.000 N 
ATOM      5  H   UNL     1       5.567   3.470  15.437  0.00  0.00    +0.000 HD
BRANCH   2   6
ATOM      6  O   UNL     1       6.672   5.095  14.297  0.00  0.00    +0.000 OA
BRANCH   6   8
ATOM      7  C   UNL     1       6.650   3.778  12.304  0.00  0.00    +0.000 C 
ATOM      8  C   UNL     1       6.139   3.892  13.729  0.00  0.00    +0.000 C 
ENDBRANCH   6   8
ENDBRANCH   2   6
ENDBRANCH   1   4
BRANCH   1   9
ATOM      9  C   UNL     1       3.453   3.829  17.128  0.00  0.00    +0.000 C 
BRANCH   9  10
ATOM     10  C   UNL     1       2.814   3.491  18.450  0.00  0.00    +0.000 A 
ATOM     11  C   UNL     1       3.603   3.102  19.542  0.00  0.00    +0.000 A 
ATOM     12  C   UNL     1       3.002   2.781  20.763  0.00  0.00    +0.000 A 
ATOM     13  C   UNL     1       1.620   2.847  20.885  0.00  0.00    +0.000 A 
ATOM     14  F   UNL     1       1.050   2.545  22.058  0.00  0.00    +0.000 F 
ATOM     15  C   UNL     1       0.823   3.219  19.812  0.00  0.00    +0.000 A 
ATOM     16  C   UNL     1       1.419   3.538  18.591  0.00  0.00    +0.000 A 
ENDBRANCH   9  10
ENDBRANCH   1   9
TORSDOF 5
ENDMDL
MODEL 4
REMARK VINA RESULT:      -6.0      1.752      2.234
REMARK  Name = 
REMARK  6 active torsions:
REMARK  status: ('A' for Active; 'I' for Inactive)
REMARK    1  A    between atoms: C_1  and  C_2
REMARK    2  A    between atoms: C_2  and  O_3
REMARK    3  A    between atoms: O_3  and  C_4
REMARK    4  A    between atoms: N_6  and  C_7
REMARK    5  A    between atoms: C_7  and  C_8
REMARK    6  A    between atoms: C_8  and  C_9
REMARK                            x       y       z     vdW  Elec       q    Type
REMARK                         _______ _______ _______ _____ _____    ______ ____
ROOT
ATOM      1  C   UNL     1       4.028   6.264  17.830  0.00  0.00    +0.000 C 
ENDROOT
BRANCH   1   4
ATOM      2  C   UNL     1       5.478   4.343  17.338  0.00  0.00    +0.000 C 
ATOM      3  O   UNL     1       5.915   4.232  18.473  0.00  0.00    +0.000 OA
ATOM      4  N   UNL     1       4.546   5.250  16.942  0.00  0.00    +0.000 N 
ATOM      5  H   UNL     1       4.322   5.259  15.956  0.00  0.00    +0.000 HD
BRANCH   2   6
ATOM      6  O   UNL     1       5.889   3.641  16.256  0.00  0.00    +0.000 OA
BRANCH   6   8
ATOM      7  C   UNL     1       6.249   3.984  13.919  0.00  0.00    +0.000 C 
ATOM      8  C   UNL     1       6.678   4.385  15.319  0.00  0.00    +0.000 C 
ENDBRANCH   6   8
ENDBRANCH   2   6
ENDBRANCH   1   4
BRANCH   1   9
ATOM      9  C   UNL     1       2.517   6.138  17.998  0.00  0.00    +0.000 C 
BRANCH   9  10
ATOM     10  C   UNL     1       2.156   5.095  19.024  0.00  0.00    +0.000 A 
ATOM     11  C   UNL     1       1.417   3.962  18.656  0.00  0.00    +0.000 A 
ATOM     12  C   UNL     1       1.077   3.004  19.615  0.00  0.00    +0.000 A 
ATOM     13  C   UNL     1       1.474   3.183  20.935  0.00  0.00    +0.000 A 
ATOM     14  F   UNL     1       1.153   2.258  21.848  0.00  0.00    +0.000 F 
ATOM     15  C   UNL     1       2.197   4.304  21.318  0.00  0.00    +0.000 A 
ATOM     16  C   UNL     1       2.535   5.264  20.365  0.00  0.00    +0.000 A 
ENDBRANCH   9  10
ENDBRANCH   1   9
TORSDOF 5
ENDMDL
MODEL 5
REMARK VINA RESULT:      -6.0      1.905      2.569
REMARK  Name = 
REMARK  6 active torsions:
REMARK  status: ('A' for Active; 'I' for Inactive)
REMARK    1  A    between atoms: C_1  and  C_2
REMARK    2  A    between atoms: C_2  and  O_3
REMARK    3  A    between atoms: O_3  and  C_4
REMARK    4  A    between atoms: N_6  and  C_7
REMARK    5  A    between atoms: C_7  and  C_8
REMARK    6  A    between atoms: C_8  and  C_9
REMARK                            x       y       z     vdW  Elec       q    Type
REMARK                         _______ _______ _______ _____ _____    ______ ____
ROOT
ATOM      1  C   UNL     1       5.310   3.918  16.842  0.00  0.00    +0.000 C 
ENDROOT
BRANCH   1   4
ATOM      2  C   UNL     1       7.341   5.122  17.521  0.00  0.00    +0.000 C 
ATOM      3  O   UNL     1       8.116   4.234  17.204  0.00  0.00    +0.000 OA
ATOM      4  N   UNL     1       5.992   5.085  17.351  0.00  0.00    +0.000 N 
ATOM      5  H   UNL     1       5.474   5.873  17.713  0.00  0.00    +0.000 HD
BRANCH   2   6
ATOM      6  O   UNL     1       7.665   6.269  18.164  0.00  0.00    +0.000 OA
BRANCH   6   8
ATOM      7  C   UNL     1       8.181   8.586  17.895  0.00  0.00    +0.000 C 
ATOM      8  C   UNL     1       7.227   7.468  17.513  0.00  0.00    +0.000 C 
ENDBRANCH   6   8
ENDBRANCH   2   6
ENDBRANCH   1   4
BRANCH   1   9
ATOM      9  C   UNL     1       3.831   4.199  16.598  0.00  0.00    +0.000 C 
BRANCH   9  10
ATOM     10  C   UNL     1       2.988   3.819  17.788  0.00  0.00    +0.000 A 
ATOM     11  C   UNL     1       2.616   2.483  17.998  0.00  0.00    +0.000 A 
ATOM     12  C   UNL     1       1.826   2.140  19.098  0.00  0.00    +0.000 A 
ATOM     13  C   UNL     1       1.410   3.130  19.981  0.00  0.00    +0.000 A 
ATOM     14  F   UNL     1       0.659   2.794  21.037  0.00  0.00    +0.000 F 
ATOM     15  C   UNL     1       1.760   4.458  19.781  0.00  0.00    +0.000 A 
ATOM     16  C   UNL     1       2.546   4.805  18.683  0.00  0.00    +0.000 A 
ENDBRANCH   9  10
ENDBRANCH   1   9
TORSDOF 5
ENDMDL
MODEL 6
REMARK VINA RESULT:      -6.0      1.597      1.962
REMARK  Name = 
REMARK  6 active torsions:
REMARK  status: ('A' for Active; 'I' for Inactive)
REMARK    1  A    between atoms: C_1  and  C_2
REMARK    2  A    between atoms: C_2  and  O_3
REMARK    3  A    between atoms: O_3  and  C_4
REMARK    4  A    between atoms: N_6  and  C_7
REMARK    5  A    between atoms: C_7  and  C_8
REMARK    6  A    between atoms: C_8  and  C_9
REMARK                            x       y       z     vdW  Elec       q    Type
REMARK                         _______ _______ _______ _____ _____    ______ ____
ROOT
ATOM      1  C   UNL     1       5.783   5.362  18.651  0.00  0.00    +0.000 C 
ENDROOT
BRANCH   1   4
ATOM      2  C   UNL     1       7.009   5.933  16.600  0.00  0.00    +0.000 C 
ATOM      3  O   UNL     1       7.264   7.080  16.931  0.00  0.00    +0.000 OA
ATOM      4  N   UNL     1       6.347   5.024  17.365  0.00  0.00    +0.000 N 
ATOM      5  H   UNL     1       6.161   4.129  16.935  0.00  0.00    +0.000 HD
BRANCH   2   6
ATOM      6  O   UNL     1       7.269   5.376  15.394  0.00  0.00    +0.000 OA
BRANCH   6   8
ATOM      7  C   UNL     1       6.316   4.019  13.675  0.00  0.00    +0.000 C 
ATOM      8  C   UNL     1       6.623   4.119  15.158  0.00  0.00    +0.000 C 
ENDBRANCH   6   8
ENDBRANCH   2   6
ENDBRANCH   1   4
BRANCH   1   9
ATOM      9  C   UNL     1       4.326   5.796  18.524  0.00  0.00    +0.000 C 
BRANCH   9  10
ATOM     10  C   UNL     1       3.417   4.954  19.381  0.00  0.00    +0.000 A 
ATOM     11  C   UNL     1       2.206   5.474  19.859  0.00  0.00    +0.000 A 
ATOM     12  C   UNL     1       1.373   4.691  20.662  0.00  0.00    +0.000 A 
ATOM     13  C   UNL     1       1.753   3.394  20.985  0.00  0.00    +0.000 A 
ATOM     14  F   UNL     1       0.948   2.645  21.748  0.00  0.00    +0.000 F 
ATOM     15  C   UNL     1       2.953   2.866  20.530  0.00  0.00    +0.000 A 
ATOM     16  C   UNL     1       3.789   3.646  19.730  0.00  0.00    +0.000 A 
ENDBRANCH   9  10
ENDBRANCH   1   9
TORSDOF 5
ENDMDL
MODEL 7
REMARK VINA RESULT:      -6.0      1.632      2.130
REMARK  Name = 
REMARK  6 active torsions:
REMARK  status: ('A' for Active; 'I' for Inactive)
REMARK    1  A    between atoms: C_1  and  C_2
REMARK    2  A    between atoms: C_2  and  O_3
REMARK    3  A    between atoms: O_3  and  C_4
REMARK    4  A    between atoms: N_6  and  C_7
REMARK    5  A    between atoms: C_7  and  C_8
REMARK    6  A    between atoms: C_8  and  C_9
REMARK                            x       y       z     vdW  Elec       q    Type
REMARK                         _______ _______ _______ _____ _____    ______ ____
ROOT
ATOM      1  C   UNL     1       5.548   4.869  17.025  0.00  0.00    +0.000 C 
ENDROOT
BRANCH   1   4
ATOM      2  C   UNL     1       6.846   4.903  14.939  0.00  0.00    +0.000 C 
ATOM      3  O   UNL     1       7.617   5.781  15.295  0.00  0.00    +0.000 OA
ATOM      4  N   UNL     1       5.856   4.371  15.704  0.00  0.00    +0.000 N 
ATOM      5  H   UNL     1       5.261   3.689  15.254  0.00  0.00    +0.000 HD
BRANCH   2   6
ATOM      6  O   UNL     1       6.785   4.350  13.705  0.00  0.00    +0.000 OA
BRANCH   6   8
ATOM      7  C   UNL     1       5.615   3.205  11.966  0.00  0.00    +0.000 C 
ATOM      8  C   UNL     1       5.560   3.668  13.410  0.00  0.00    +0.000 C 
ENDBRANCH   6   8
ENDBRANCH   2   6
ENDBRANCH   1   4
BRANCH   1   9
ATOM      9  C   UNL     1       4.257   5.682  17.028  0.00  0.00    +0.000 C 
BRANCH   9  10
ATOM     10  C   UNL     1       3.251   5.125  18.002  0.00  0.00    +0.000 A 
ATOM     11  C   UNL     1       2.464   4.017  17.656  0.00  0.00    +0.000 A 
ATOM     12  C   UNL     1       1.526   3.513  18.561  0.00  0.00    +0.000 A 
ATOM     13  C   UNL     1       1.377   4.118  19.803  0.00  0.00    +0.000 A 
ATOM     14  F   UNL     1       0.482   3.626  20.668  0.00  0.00    +0.000 F 
ATOM     15  C   UNL     1       2.139   5.222  20.157  0.00  0.00    +0.000 A 
ATOM     16  C   UNL     1       3.075   5.729  19.256  0.00  0.00    +0.000 A 
ENDBRANCH   9  10
ENDBRANCH   1   9
TORSDOF 5
ENDMDL
MODEL 8
REMARK VINA RESULT:      -6.0      1.637      2.230
REMARK  Name = 
REMARK  6 active torsions:
REMARK  status: ('A' for Active; 'I' for Inactive)
REMARK    1  A    between atoms: C_1  and  C_2
REMARK    2  A    between atoms: C_2  and  O_3
REMARK    3  A    between atoms: O_3  and  C_4
REMARK    4  A    between atoms: N_6  and  C_7
REMARK    5  A    between atoms: C_7  and  C_8
REMARK    6  A    between atoms: C_8  and  C_9
REMARK                            x       y       z     vdW  Elec       q    Type
REMARK                         _______ _______ _______ _____ _____    ______ ____
ROOT
ATOM      1  C   UNL     1       4.013   6.421  17.880  0.00  0.00    +0.000 C 
ENDROOT
BRANCH   1   4
ATOM      2  C   UNL     1       6.076   5.772  16.714  0.00  0.00    +0.000 C 
ATOM      3  O   UNL     1       6.397   6.908  16.403  0.00  0.00    +0.000 OA
ATOM      4  N   UNL     1       4.983   5.440  17.452  0.00  0.00    +0.000 N 
ATOM      5  H   UNL     1       4.816   4.452  17.584  0.00  0.00    +0.000 HD
BRANCH   2   6
ATOM      6  O   UNL     1       6.699   4.634  16.326  0.00  0.00    +0.000 OA
BRANCH   6   8
ATOM      7  C   UNL     1       6.096   4.105  14.076  0.00  0.00    +0.000 C 
ATOM      8  C   UNL     1       5.896   3.747  15.537  0.00  0.00    +0.000 C 
ENDBRANCH   6   8
ENDBRANCH   2   6
ENDBRANCH   1   4
BRANCH   1   9
ATOM      9  C   UNL     1       2.587   5.908  17.706  0.00  0.00    +0.000 C 
BRANCH   9  10
ATOM     10  C   UNL     1       2.182   4.993  18.833  0.00  0.00    +0.000 A 
ATOM     11  C   UNL     1       1.402   3.856  18.581  0.00  0.00    +0.000 A 
ATOM     12  C   UNL     1       1.023   3.018  19.632  0.00  0.00    +0.000 A 
ATOM     13  C   UNL     1       1.421   3.320  20.929  0.00  0.00    +0.000 A 
ATOM     14  F   UNL     1       1.060   2.510  21.932  0.00  0.00    +0.000 F 
ATOM     15  C   UNL     1       2.184   4.448  21.198  0.00  0.00    +0.000 A 
ATOM     16  C   UNL     1       2.562   5.288  20.151  0.00  0.00    +0.000 A 
ENDBRANCH   9  10
ENDBRANCH   1   9
TORSDOF 5
ENDMDL
MODEL 9
REMARK VINA RESULT:      -5.9      1.103      1.182
REMARK  Name = 
REMARK  6 active torsions:
REMARK  status: ('A' for Active; 'I' for Inactive)
REMARK    1  A    between atoms: C_1  and  C_2
REMARK    2  A    between atoms: C_2  and  O_3
REMARK    3  A    between atoms: O_3  and  C_4
REMARK    4  A    between atoms: N_6  and  C_7
REMARK    5  A    between atoms: C_7  and  C_8
REMARK    6  A    between atoms: C_8  and  C_9
REMARK                            x       y       z     vdW  Elec       q    Type
REMARK                         _______ _______ _______ _____ _____    ______ ____
ROOT
ATOM      1  C   UNL     1       5.504   5.673  18.042  0.00  0.00    +0.000 C 
ENDROOT
BRANCH   1   4
ATOM      2  C   UNL     1       7.083   5.215  16.216  0.00  0.00    +0.000 C 
ATOM      3  O   UNL     1       7.794   4.462  16.863  0.00  0.00    +0.000 OA
ATOM      4  N   UNL     1       5.948   5.807  16.674  0.00  0.00    +0.000 N 
ATOM      5  H   UNL     1       5.493   6.450  16.041  0.00  0.00    +0.000 HD
BRANCH   2   6
ATOM      6  O   UNL     1       7.326   5.655  14.960  0.00  0.00    +0.000 OA
BRANCH   6   8
ATOM      7  C   UNL     1       5.820   4.090  13.967  0.00  0.00    +0.000 C 
ATOM      8  C   UNL     1       7.229   4.653  13.940  0.00  0.00    +0.000 C 
ENDBRANCH   6   8
ENDBRANCH   2   6
ENDBRANCH   1   4
BRANCH   1   9
ATOM      9  C   UNL     1       4.156   6.354  18.260  0.00  0.00    +0.000 C 
BRANCH   9  10
ATOM     10  C   UNL     1       3.084   5.362  18.629  0.00  0.00    +0.000 A 
ATOM     11  C   UNL     1       2.518   5.371  19.912  0.00  0.00    +0.000 A 
ATOM     12  C   UNL     1       1.531   4.441  20.250  0.00  0.00    +0.000 A 
ATOM     13  C   UNL     1       1.116   3.508  19.309  0.00  0.00    +0.000 A 
ATOM     14  F   UNL     1       0.165   2.624  19.635  0.00  0.00    +0.000 F 
ATOM     15  C   UNL     1       1.673   3.478  18.038  0.00  0.00    +0.000 A 
ATOM     16  C   UNL     1       2.660   4.402  17.697  0.00  0.00    +0.000 A 
ENDBRANCH   9  10
ENDBRANCH   1   9
TORSDOF 5
ENDMDL
