MODEL 1
REMARK VINA RESULT:      -8.6      0.000      0.000
REMARK  Name = 
REMARK  9 active torsions:
REMARK  status: ('A' for Active; 'I' for Inactive)
REMARK    1  A    between atoms: C_1  and  C_2
REMARK    2  A    between atoms: C_2  and  O_3
REMARK    3  A    between atoms: O_3  and  C_4
REMARK    4  A    between atoms: C_7  and  C_8
REMARK    5  A    between atoms: C_8  and  N_9
REMARK    6  A    between atoms: C_8  and  C_16
REMARK    7  A    between atoms: C_22  and  C_23
REMARK    8  A    between atoms: C_26  and  O_27
REMARK    9  A    between atoms: C_29  and  C_30
REMARK                            x       y       z     vdW  Elec       q    Type
REMARK                         _______ _______ _______ _____ _____    ______ ____
ROOT
ATOM      1  C   UNL     1       0.817  10.798  18.936  0.00  0.00    +0.000 C 
ENDROOT
BRANCH   1   2
ATOM      2  C   UNL     1       1.496   9.420  19.110  0.00  0.00    +0.000 A 
ATOM      3  C   UNL     1       1.983   8.902  17.908  0.00  0.00    +0.000 A 
ATOM      4  C   UNL     1       2.817   7.827  17.947  0.00  0.00    +0.000 A 
ATOM      5  C   UNL     1       2.275   6.803  18.690  0.00  0.00    +0.000 A 
ATOM      6  C   UNL     1       2.235   5.579  18.069  0.00  0.00    +0.000 A 
ATOM      7  C   UNL     1       1.859   4.482  18.796  0.00  0.00    +0.000 A 
ATOM      8  C   UNL     1       1.650   4.652  20.156  0.00  0.00    +0.000 A 
ATOM      9  C   UNL     1       1.610   3.362  20.952  0.00  0.00    +0.000 C 
ATOM     10  N   UNL     1       1.593   5.897  20.756  0.00  0.00    +0.000 NA
ATOM     11  C   UNL     1       1.789   7.051  19.980  0.00  0.00    +0.000 A 
ATOM     12  C   UNL     1       1.550   8.490  20.198  0.00  0.00    +0.000 A 
BRANCH  12  13
ATOM     13  O   UNL     1       1.330   8.909  21.483  0.00  0.00    +0.000 OA
ATOM     14  H   UNL     1       0.453   9.308  21.517  0.00  0.00    +0.000 HD
ENDBRANCH  12  13
ENDBRANCH   1   2
BRANCH   1  15
ATOM     15  N   UNL     1       1.132  11.743  20.001  0.00  0.00    +0.000 N 
ATOM     16  C   UNL     1       2.010  12.809  19.823  0.00  0.00    +0.000 A 
ATOM     17  C   UNL     1       2.264  13.456  18.613  0.00  0.00    +0.000 A 
ATOM     18  C   UNL     1       3.141  14.546  18.558  0.00  0.00    +0.000 A 
ATOM     19  C   UNL     1       3.726  15.005  19.727  0.00  0.00    +0.000 A 
ATOM     20  C   UNL     1       3.417  14.331  20.895  0.00  0.00    +0.000 A 
ATOM     21  N   UNL     1       2.598  13.248  20.957  0.00  0.00    +0.000 NA
ATOM     22  H   UNL     1       1.378  11.342  20.900  0.00  0.00    +0.000 HD
ENDBRANCH   1  15
BRANCH   1  26
ATOM     23  C   UNL     1      -3.379  10.903  17.762  0.00  0.00    +0.000 A 
ATOM     24  C   UNL     1      -2.953  11.565  18.912  0.00  0.00    +0.000 A 
ATOM     25  C   UNL     1      -1.601  11.534  19.281  0.00  0.00    +0.000 A 
ATOM     26  C   UNL     1      -0.655  10.786  18.552  0.00  0.00    +0.000 A 
ATOM     27  C   UNL     1      -1.114  10.064  17.453  0.00  0.00    +0.000 A 
ATOM     28  C   UNL     1      -2.443  10.172  17.013  0.00  0.00    +0.000 A 
ATOM     29  C   UNL     1      -2.816   9.560  15.692  0.00  0.00    +0.000 C 
BRANCH  23  30
ATOM     30  O   UNL     1      -4.657  10.903  17.271  0.00  0.00    +0.000 OA
BRANCH  30  32
ATOM     31  C   UNL     1      -6.564  10.592  18.660  0.00  0.00    +0.000 C 
ATOM     32  C   UNL     1      -5.656  11.615  17.996  0.00  0.00    +0.000 C 
ENDBRANCH  30  32
ENDBRANCH  23  30
ENDBRANCH   1  26
TORSDOF 6
ENDMDL
MODEL 2
REMARK VINA RESULT:      -8.4      2.053      5.407
REMARK  Name = 
REMARK  9 active torsions:
REMARK  status: ('A' for Active; 'I' for Inactive)
REMARK    1  A    between atoms: C_1  and  C_2
REMARK    2  A    between atoms: C_2  and  O_3
REMARK    3  A    between atoms: O_3  and  C_4
REMARK    4  A    between atoms: C_7  and  C_8
REMARK    5  A    between atoms: C_8  and  N_9
REMARK    6  A    between atoms: C_8  and  C_16
REMARK    7  A    between atoms: C_22  and  C_23
REMARK    8  A    between atoms: C_26  and  O_27
REMARK    9  A    between atoms: C_29  and  C_30
REMARK                            x       y       z     vdW  Elec       q    Type
REMARK                         _______ _______ _______ _____ _____    ______ ____
ROOT
ATOM      1  C   UNL     1       0.697  10.245  18.894  0.00  0.00    +0.000 C 
ENDROOT
BRANCH   1   2
ATOM      2  C   UNL     1       1.529   8.954  19.075  0.00  0.00    +0.000 A 
ATOM      3  C   UNL     1       2.016   8.452  17.866  0.00  0.00    +0.000 A 
ATOM      4  C   UNL     1       2.964   7.474  17.897  0.00  0.00    +0.000 A 
ATOM      5  C   UNL     1       2.569   6.423  18.692  0.00  0.00    +0.000 A 
ATOM      6  C   UNL     1       2.636   5.182  18.109  0.00  0.00    +0.000 A 
ATOM      7  C   UNL     1       2.413   4.076  18.884  0.00  0.00    +0.000 A 
ATOM      8  C   UNL     1       2.247   4.268  20.248  0.00  0.00    +0.000 A 
ATOM      9  C   UNL     1       2.383   3.008  21.081  0.00  0.00    +0.000 C 
ATOM     10  N   UNL     1       2.082   5.518  20.814  0.00  0.00    +0.000 NA
ATOM     11  C   UNL     1       2.116   6.661  19.997  0.00  0.00    +0.000 A 
ATOM     12  C   UNL     1       1.732   8.072  20.185  0.00  0.00    +0.000 A 
BRANCH  12  13
ATOM     13  O   UNL     1       1.524   8.507  21.466  0.00  0.00    +0.000 OA
ATOM     14  H   UNL     1       0.856   7.938  21.867  0.00  0.00    +0.000 HD
ENDBRANCH  12  13
ENDBRANCH   1   2
BRANCH   1  15
ATOM     15  N   UNL     1      -0.128  10.244  17.692  0.00  0.00    +0.000 N 
ATOM     16  C   UNL     1      -1.487  10.549  17.714  0.00  0.00    +0.000 A 
ATOM     17  C   UNL     1      -2.116  11.380  18.642  0.00  0.00    +0.000 A 
ATOM     18  C   UNL     1      -3.487  11.647  18.544  0.00  0.00    +0.000 A 
ATOM     19  C   UNL     1      -4.209  11.111  17.491  0.00  0.00    +0.000 A 
ATOM     20  C   UNL     1      -3.520  10.312  16.595  0.00  0.00    +0.000 A 
ATOM     21  N   UNL     1      -2.199  10.012  16.699  0.00  0.00    +0.000 NA
ATOM     22  H   UNL     1      -0.047   9.431  17.091  0.00  0.00    +0.000 HD
ENDBRANCH   1  15
BRANCH   1  26
ATOM     23  C   UNL     1       2.673  14.085  19.479  0.00  0.00    +0.000 A 
ATOM     24  C   UNL     1       2.942  13.320  18.345  0.00  0.00    +0.000 A 
ATOM     25  C   UNL     1       2.298  12.089  18.159  0.00  0.00    +0.000 A 
ATOM     26  C   UNL     1       1.425  11.559  19.130  0.00  0.00    +0.000 A 
ATOM     27  C   UNL     1       1.232  12.300  20.294  0.00  0.00    +0.000 A 
ATOM     28  C   UNL     1       1.787  13.580  20.444  0.00  0.00    +0.000 A 
ATOM     29  C   UNL     1       1.353  14.421  21.612  0.00  0.00    +0.000 C 
BRANCH  23  30
ATOM     30  O   UNL     1       3.196  15.321  19.747  0.00  0.00    +0.000 OA
BRANCH  30  32
ATOM     31  C   UNL     1       1.974  16.931  18.489  0.00  0.00    +0.000 C 
ATOM     32  C   UNL     1       3.320  16.248  18.671  0.00  0.00    +0.000 C 
ENDBRANCH  30  32
ENDBRANCH  23  30
ENDBRANCH   1  26
TORSDOF 6
ENDMDL
MODEL 3
REMARK VINA RESULT:      -8.2      0.667      1.419
REMARK  Name = 
REMARK  9 active torsions:
REMARK  status: ('A' for Active; 'I' for Inactive)
REMARK    1  A    between atoms: C_1  and  C_2
REMARK    2  A    between atoms: C_2  and  O_3
REMARK    3  A    between atoms: O_3  and  C_4
REMARK    4  A    between atoms: C_7  and  C_8
REMARK    5  A    between atoms: C_8  and  N_9
REMARK    6  A    between atoms: C_8  and  C_16
REMARK    7  A    between atoms: C_22  and  C_23
REMARK    8  A    between atoms: C_26  and  O_27
REMARK    9  A    between atoms: C_29  and  C_30
REMARK                            x       y       z     vdW  Elec       q    Type
REMARK                         _______ _______ _______ _____ _____    ______ ____
ROOT
ATOM      1  C   UNL     1       0.978  10.866  18.827  0.00  0.00    +0.000 C 
ENDROOT
BRANCH   1   2
ATOM      2  C   UNL     1       1.613   9.472  19.044  0.00  0.00    +0.000 A 
ATOM      3  C   UNL     1       2.129   8.925  17.866  0.00  0.00    +0.000 A 
ATOM      4  C   UNL     1       2.931   7.829  17.950  0.00  0.00    +0.000 A 
ATOM      5  C   UNL     1       2.335   6.830  18.684  0.00  0.00    +0.000 A 
ATOM      6  C   UNL     1       2.284   5.599  18.078  0.00  0.00    +0.000 A 
ATOM      7  C   UNL     1       1.852   4.523  18.805  0.00  0.00    +0.000 A 
ATOM      8  C   UNL     1       1.599   4.717  20.155  0.00  0.00    +0.000 A 
ATOM      9  C   UNL     1       1.496   3.439  20.965  0.00  0.00    +0.000 C 
ATOM     10  N   UNL     1       1.555   5.970  20.736  0.00  0.00    +0.000 NA
ATOM     11  C   UNL     1       1.810   7.109  19.953  0.00  0.00    +0.000 A 
ATOM     12  C   UNL     1       1.603   8.556  20.145  0.00  0.00    +0.000 A 
BRANCH  12  13
ATOM     13  O   UNL     1       1.347   8.998  21.415  0.00  0.00    +0.000 OA
ATOM     14  H   UNL     1       1.383   9.961  21.405  0.00  0.00    +0.000 HD
ENDBRANCH  12  13
ENDBRANCH   1   2
BRANCH   1  15
ATOM     15  N   UNL     1       1.401  11.858  19.808  0.00  0.00    +0.000 N 
ATOM     16  C   UNL     1       2.173  12.967  19.469  0.00  0.00    +0.000 A 
ATOM     17  C   UNL     1       2.190  13.591  18.221  0.00  0.00    +0.000 A 
ATOM     18  C   UNL     1       2.980  14.727  18.004  0.00  0.00    +0.000 A 
ATOM     19  C   UNL     1       3.715  15.253  19.053  0.00  0.00    +0.000 A 
ATOM     20  C   UNL     1       3.637  14.597  20.270  0.00  0.00    +0.000 A 
ATOM     21  N   UNL     1       2.907  13.472  20.485  0.00  0.00    +0.000 NA
ATOM     22  H   UNL     1       1.812  11.499  20.664  0.00  0.00    +0.000 HD
ENDBRANCH   1  15
BRANCH   1  26
ATOM     23  C   UNL     1      -3.320  10.825  18.107  0.00  0.00    +0.000 A 
ATOM     24  C   UNL     1      -2.479   9.974  17.393  0.00  0.00    +0.000 A 
ATOM     25  C   UNL     1      -1.098   9.987  17.633  0.00  0.00    +0.000 A 
ATOM     26  C   UNL     1      -0.515  10.894  18.541  0.00  0.00    +0.000 A 
ATOM     27  C   UNL     1      -1.363  11.793  19.185  0.00  0.00    +0.000 A 
ATOM     28  C   UNL     1      -2.756  11.719  19.031  0.00  0.00    +0.000 A 
ATOM     29  C   UNL     1      -3.625  12.555  19.928  0.00  0.00    +0.000 C 
BRANCH  23  30
ATOM     30  O   UNL     1      -4.684  10.868  17.999  0.00  0.00    +0.000 OA
BRANCH  30  32
ATOM     31  C   UNL     1      -6.321  12.484  17.386  0.00  0.00    +0.000 C 
ATOM     32  C   UNL     1      -5.250  11.534  16.874  0.00  0.00    +0.000 C 
ENDBRANCH  30  32
ENDBRANCH  23  30
ENDBRANCH   1  26
TORSDOF 6
ENDMDL
MODEL 4
REMARK VINA RESULT:      -8.1      2.119      5.261
REMARK  Name = 
REMARK  9 active torsions:
REMARK  status: ('A' for Active; 'I' for Inactive)
REMARK    1  A    between atoms: C_1  and  C_2
REMARK    2  A    between atoms: C_2  and  O_3
REMARK    3  A    between atoms: O_3  and  C_4
REMARK    4  A    between atoms: C_7  and  C_8
REMARK    5  A    between atoms: C_8  and  N_9
REMARK    6  A    between atoms: C_8  and  C_16
REMARK    7  A    between atoms: C_22  and  C_23
REMARK    8  A    between atoms: C_26  and  O_27
REMARK    9  A    between atoms: C_29  and  C_30
REMARK                            x       y       z     vdW  Elec       q    Type
REMARK                         _______ _______ _______ _____ _____    ______ ____
ROOT
ATOM      1  C   UNL     1       0.561  10.093  18.954  0.00  0.00    +0.000 C 
ENDROOT
BRANCH   1   2
ATOM      2  C   UNL     1       1.520   8.883  19.048  0.00  0.00    +0.000 A 
ATOM      3  C   UNL     1       2.071   8.534  17.813  0.00  0.00    +0.000 A 
ATOM      4  C   UNL     1       3.114   7.659  17.785  0.00  0.00    +0.000 A 
ATOM      5  C   UNL     1       2.821   6.512  18.486  0.00  0.00    +0.000 A 
ATOM      6  C   UNL     1       3.022   5.335  17.807  0.00  0.00    +0.000 A 
ATOM      7  C   UNL     1       2.905   4.153  18.486  0.00  0.00    +0.000 A 
ATOM      8  C   UNL     1       2.704   4.215  19.857  0.00  0.00    +0.000 A 
ATOM      9  C   UNL     1       2.959   2.912  20.589  0.00  0.00    +0.000 C 
ATOM     10  N   UNL     1       2.403   5.392  20.518  0.00  0.00    +0.000 NA
ATOM     11  C   UNL     1       2.329   6.594  19.795  0.00  0.00    +0.000 A 
ATOM     12  C   UNL     1       1.800   7.939  20.088  0.00  0.00    +0.000 A 
BRANCH  12  13
ATOM     13  O   UNL     1       1.532   8.244  21.395  0.00  0.00    +0.000 OA
ATOM     14  H   UNL     1       1.543   7.423  21.899  0.00  0.00    +0.000 HD
ENDBRANCH  12  13
ENDBRANCH   1   2
BRANCH   1  15
ATOM     15  N   UNL     1      -0.176  10.157  17.698  0.00  0.00    +0.000 N 
ATOM     16  C   UNL     1      -1.531  10.474  17.638  0.00  0.00    +0.000 A 
ATOM     17  C   UNL     1      -2.219  11.267  18.558  0.00  0.00    +0.000 A 
ATOM     18  C   UNL     1      -3.578  11.551  18.377  0.00  0.00    +0.000 A 
ATOM     19  C   UNL     1      -4.227  11.073  17.251  0.00  0.00    +0.000 A 
ATOM     20  C   UNL     1      -3.481  10.311  16.369  0.00  0.00    +0.000 A 
ATOM     21  N   UNL     1      -2.173   9.993  16.551  0.00  0.00    +0.000 NA
ATOM     22  H   UNL     1      -0.058   9.372  17.066  0.00  0.00    +0.000 HD
ENDBRANCH   1  15
BRANCH   1  26
ATOM     23  C   UNL     1       2.273  13.864  20.310  0.00  0.00    +0.000 A 
ATOM     24  C   UNL     1       1.389  13.160  21.125  0.00  0.00    +0.000 A 
ATOM     25  C   UNL     1       0.847  11.944  20.686  0.00  0.00    +0.000 A 
ATOM     26  C   UNL     1       1.118  11.436  19.400  0.00  0.00    +0.000 A 
ATOM     27  C   UNL     1       1.938  12.196  18.569  0.00  0.00    +0.000 A 
ATOM     28  C   UNL     1       2.570  13.360  19.034  0.00  0.00    +0.000 A 
ATOM     29  C   UNL     1       3.622  14.002  18.174  0.00  0.00    +0.000 C 
BRANCH  23  30
ATOM     30  O   UNL     1       2.905  15.031  20.646  0.00  0.00    +0.000 OA
BRANCH  30  32
ATOM     31  C   UNL     1       1.466  16.760  19.869  0.00  0.00    +0.000 C 
ATOM     32  C   UNL     1       2.109  16.125  21.092  0.00  0.00    +0.000 C 
ENDBRANCH  30  32
ENDBRANCH  23  30
ENDBRANCH   1  26
TORSDOF 6
ENDMDL
MODEL 5
REMARK VINA RESULT:      -8.1      2.140      7.283
REMARK  Name = 
REMARK  9 active torsions:
REMARK  status: ('A' for Active; 'I' for Inactive)
REMARK    1  A    between atoms: C_1  and  C_2
REMARK    2  A    between atoms: C_2  and  O_3
REMARK    3  A    between atoms: O_3  and  C_4
REMARK    4  A    between atoms: C_7  and  C_8
REMARK    5  A    between atoms: C_8  and  N_9
REMARK    6  A    between atoms: C_8  and  C_16
REMARK    7  A    between atoms: C_22  and  C_23
REMARK    8  A    between atoms: C_26  and  O_27
REMARK    9  A    between atoms: C_29  and  C_30
REMARK                            x       y       z     vdW  Elec       q    Type
REMARK                         _______ _______ _______ _____ _____    ______ ____
ROOT
ATOM      1  C   UNL     1       0.406  10.947  18.911  0.00  0.00    +0.000 C 
ENDROOT
BRANCH   1   2
ATOM      2  C   UNL     1       1.141  12.232  19.359  0.00  0.00    +0.000 A 
ATOM      3  C   UNL     1       1.922  12.790  18.344  0.00  0.00    +0.000 A 
ATOM      4  C   UNL     1       2.419  14.046  18.515  0.00  0.00    +0.000 A 
ATOM      5  C   UNL     1       3.091  14.157  19.711  0.00  0.00    +0.000 A 
ATOM      6  C   UNL     1       4.364  14.666  19.630  0.00  0.00    +0.000 A 
ATOM      7  C   UNL     1       5.034  14.954  20.787  0.00  0.00    +0.000 A 
ATOM      8  C   UNL     1       4.341  14.825  21.982  0.00  0.00    +0.000 A 
ATOM      9  C   UNL     1       4.999  15.507  23.166  0.00  0.00    +0.000 C 
ATOM     10  N   UNL     1       3.101  14.220  22.067  0.00  0.00    +0.000 NA
ATOM     11  C   UNL     1       2.480  13.742  20.901  0.00  0.00    +0.000 A 
ATOM     12  C   UNL     1       1.338  12.847  20.638  0.00  0.00    +0.000 A 
BRANCH  12  13
ATOM     13  O   UNL     1       0.491  12.576  21.678  0.00  0.00    +0.000 OA
ATOM     14  H   UNL     1       0.402  11.619  21.745  0.00  0.00    +0.000 HD
ENDBRANCH  12  13
ENDBRANCH   1   2
BRANCH   1  15
ATOM     15  N   UNL     1      -1.027  10.971  19.179  0.00  0.00    +0.000 N 
ATOM     16  C   UNL     1      -1.981  10.901  18.167  0.00  0.00    +0.000 A 
ATOM     17  C   UNL     1      -1.806  10.280  16.929  0.00  0.00    +0.000 A 
ATOM     18  C   UNL     1      -2.852  10.239  15.999  0.00  0.00    +0.000 A 
ATOM     19  C   UNL     1      -4.080  10.784  16.334  0.00  0.00    +0.000 A 
ATOM     20  C   UNL     1      -4.192  11.366  17.585  0.00  0.00    +0.000 A 
ATOM     21  N   UNL     1      -3.175  11.449  18.482  0.00  0.00    +0.000 NA
ATOM     22  H   UNL     1      -1.356  11.697  19.806  0.00  0.00    +0.000 HD
ENDBRANCH   1  15
BRANCH   1  26
ATOM     23  C   UNL     1       2.171   7.087  19.899  0.00  0.00    +0.000 A 
ATOM     24  C   UNL     1       1.397   7.768  20.836  0.00  0.00    +0.000 A 
ATOM     25  C   UNL     1       0.826   9.006  20.511  0.00  0.00    +0.000 A 
ATOM     26  C   UNL     1       1.069   9.627  19.269  0.00  0.00    +0.000 A 
ATOM     27  C   UNL     1       1.913   8.970  18.376  0.00  0.00    +0.000 A 
ATOM     28  C   UNL     1       2.404   7.683  18.649  0.00  0.00    +0.000 A 
ATOM     29  C   UNL     1       3.110   6.935  17.554  0.00  0.00    +0.000 C 
BRANCH  23  30
ATOM     30  O   UNL     1       2.736   5.854  20.079  0.00  0.00    +0.000 OA
BRANCH  30  32
ATOM     31  C   UNL     1       1.134   4.093  20.099  0.00  0.00    +0.000 C 
ATOM     32  C   UNL     1       2.079   4.932  20.945  0.00  0.00    +0.000 C 
ENDBRANCH  30  32
ENDBRANCH  23  30
ENDBRANCH   1  26
TORSDOF 6
ENDMDL
MODEL 6
REMARK VINA RESULT:      -7.9      2.297      5.168
REMARK  Name = 
REMARK  9 active torsions:
REMARK  status: ('A' for Active; 'I' for Inactive)
REMARK    1  A    between atoms: C_1  and  C_2
REMARK    2  A    between atoms: C_2  and  O_3
REMARK    3  A    between atoms: O_3  and  C_4
REMARK    4  A    between atoms: C_7  and  C_8
REMARK    5  A    between atoms: C_8  and  N_9
REMARK    6  A    between atoms: C_8  and  C_16
REMARK    7  A    between atoms: C_22  and  C_23
REMARK    8  A    between atoms: C_26  and  O_27
REMARK    9  A    between atoms: C_29  and  C_30
REMARK                            x       y       z     vdW  Elec       q    Type
REMARK                         _______ _______ _______ _____ _____    ______ ____
ROOT
ATOM      1  C   UNL     1       0.158   9.966  19.146  0.00  0.00    +0.000 C 
ENDROOT
BRANCH   1   2
ATOM      2  C   UNL     1       1.276   8.897  19.134  0.00  0.00    +0.000 A 
ATOM      3  C   UNL     1       1.847   8.728  17.870  0.00  0.00    +0.000 A 
ATOM      4  C   UNL     1       3.000   8.011  17.763  0.00  0.00    +0.000 A 
ATOM      5  C   UNL     1       2.879   6.782  18.369  0.00  0.00    +0.000 A 
ATOM      6  C   UNL     1       3.228   5.703  17.594  0.00  0.00    +0.000 A 
ATOM      7  C   UNL     1       3.287   4.466  18.175  0.00  0.00    +0.000 A 
ATOM      8  C   UNL     1       3.105   4.388  19.547  0.00  0.00    +0.000 A 
ATOM      9  C   UNL     1       3.550   3.078  20.168  0.00  0.00    +0.000 C 
ATOM     10  N   UNL     1       2.657   5.455  20.305  0.00  0.00    +0.000 NA
ATOM     11  C   UNL     1       2.405   6.690  19.684  0.00  0.00    +0.000 A 
ATOM     12  C   UNL     1       1.701   7.920  20.091  0.00  0.00    +0.000 A 
BRANCH  12  13
ATOM     13  O   UNL     1       1.418   8.079  21.420  0.00  0.00    +0.000 OA
ATOM     14  H   UNL     1       0.848   8.852  21.511  0.00  0.00    +0.000 HD
ENDBRANCH  12  13
ENDBRANCH   1   2
BRANCH   1  15
ATOM     15  N   UNL     1      -0.358  10.286  17.821  0.00  0.00    +0.000 N 
ATOM     16  C   UNL     1      -1.695  10.604  17.592  0.00  0.00    +0.000 A 
ATOM     17  C   UNL     1      -2.559  11.186  18.520  0.00  0.00    +0.000 A 
ATOM     18  C   UNL     1      -3.879  11.497  18.167  0.00  0.00    +0.000 A 
ATOM     19  C   UNL     1      -4.308  11.260  16.872  0.00  0.00    +0.000 A 
ATOM     20  C   UNL     1      -3.394  10.700  15.996  0.00  0.00    +0.000 A 
ATOM     21  N   UNL     1      -2.124  10.356  16.335  0.00  0.00    +0.000 NA
ATOM     22  H   UNL     1      -0.103   9.651  17.072  0.00  0.00    +0.000 HD
ENDBRANCH   1  15
BRANCH   1  26
ATOM     23  C   UNL     1       0.760  13.559  21.537  0.00  0.00    +0.000 A 
ATOM     24  C   UNL     1       1.556  13.316  20.420  0.00  0.00    +0.000 A 
ATOM     25  C   UNL     1       1.353  12.162  19.651  0.00  0.00    +0.000 A 
ATOM     26  C   UNL     1       0.400  11.190  20.015  0.00  0.00    +0.000 A 
ATOM     27  C   UNL     1      -0.329  11.411  21.181  0.00  0.00    +0.000 A 
ATOM     28  C   UNL     1      -0.209  12.611  21.901  0.00  0.00    +0.000 A 
ATOM     29  C   UNL     1      -1.187  12.887  23.008  0.00  0.00    +0.000 C 
BRANCH  23  30
ATOM     30  O   UNL     1       0.826  14.670  22.334  0.00  0.00    +0.000 OA
BRANCH  30  32
ATOM     31  C   UNL     1       0.357  16.847  21.493  0.00  0.00    +0.000 C 
ATOM     32  C   UNL     1       1.451  15.839  21.810  0.00  0.00    +0.000 C 
ENDBRANCH  30  32
ENDBRANCH  23  30
ENDBRANCH   1  26
TORSDOF 6
ENDMDL
MODEL 7
REMARK VINA RESULT:      -7.7      2.321      7.720
REMARK  Name = 
REMARK  9 active torsions:
REMARK  status: ('A' for Active; 'I' for Inactive)
REMARK    1  A    between atoms: C_1  and  C_2
REMARK    2  A    between atoms: C_2  and  O_3
REMARK    3  A    between atoms: O_3  and  C_4
REMARK    4  A    between atoms: C_7  and  C_8
REMARK    5  A    between atoms: C_8  and  N_9
REMARK    6  A    between atoms: C_8  and  C_16
REMARK    7  A    between atoms: C_22  and  C_23
REMARK    8  A    between atoms: C_26  and  O_27
REMARK    9  A    between atoms: C_29  and  C_30
REMARK                            x       y       z     vdW  Elec       q    Type
REMARK                         _______ _______ _______ _____ _____    ______ ____
ROOT
ATOM      1  C   UNL     1       0.555  10.185  18.768  0.00  0.00    +0.000 C 
ENDROOT
BRANCH   1   2
ATOM      2  C   UNL     1       1.340  11.492  19.025  0.00  0.00    +0.000 A 
ATOM      3  C   UNL     1       1.015  12.086  20.247  0.00  0.00    +0.000 A 
ATOM      4  C   UNL     1       1.801  13.094  20.715  0.00  0.00    +0.000 A 
ATOM      5  C   UNL     1       1.967  14.078  19.767  0.00  0.00    +0.000 A 
ATOM      6  C   UNL     1       1.682  15.355  20.184  0.00  0.00    +0.000 A 
ATOM      7  C   UNL     1       1.973  16.401  19.351  0.00  0.00    +0.000 A 
ATOM      8  C   UNL     1       2.651  16.118  18.175  0.00  0.00    +0.000 A 
ATOM      9  C   UNL     1       3.266  17.328  17.498  0.00  0.00    +0.000 C 
ATOM     10  N   UNL     1       2.847  14.830  17.713  0.00  0.00    +0.000 NA
ATOM     11  C   UNL     1       2.378  13.743  18.471  0.00  0.00    +0.000 A 
ATOM     12  C   UNL     1       2.172  12.309  18.194  0.00  0.00    +0.000 A 
BRANCH  12  13
ATOM     13  O   UNL     1       2.765  11.787  17.076  0.00  0.00    +0.000 OA
ATOM     14  H   UNL     1       2.094  11.298  16.586  0.00  0.00    +0.000 HD
ENDBRANCH  12  13
ENDBRANCH   1   2
BRANCH   1  15
ATOM     15  N   UNL     1      -0.857  10.273  19.123  0.00  0.00    +0.000 N 
ATOM     16  C   UNL     1      -1.860  10.450  18.172  0.00  0.00    +0.000 A 
ATOM     17  C   UNL     1      -1.796  10.038  16.841  0.00  0.00    +0.000 A 
ATOM     18  C   UNL     1      -2.884  10.236  15.981  0.00  0.00    +0.000 A 
ATOM     19  C   UNL     1      -4.043  10.810  16.476  0.00  0.00    +0.000 A 
ATOM     20  C   UNL     1      -4.046  11.178  17.810  0.00  0.00    +0.000 A 
ATOM     21  N   UNL     1      -2.985  11.028  18.645  0.00  0.00    +0.000 NA
ATOM     22  H   UNL     1      -1.092  10.905  19.880  0.00  0.00    +0.000 HD
ENDBRANCH   1  15
BRANCH   1  26
ATOM     23  C   UNL     1       2.316   6.409  20.047  0.00  0.00    +0.000 A 
ATOM     24  C   UNL     1       1.513   7.141  20.918  0.00  0.00    +0.000 A 
ATOM     25  C   UNL     1       0.944   8.352  20.499  0.00  0.00    +0.000 A 
ATOM     26  C   UNL     1       1.216   8.894  19.227  0.00  0.00    +0.000 A 
ATOM     27  C   UNL     1       2.087   8.188  18.401  0.00  0.00    +0.000 A 
ATOM     28  C   UNL     1       2.578   6.926  18.767  0.00  0.00    +0.000 A 
ATOM     29  C   UNL     1       3.317   6.114  17.741  0.00  0.00    +0.000 C 
BRANCH  23  30
ATOM     30  O   UNL     1       2.884   5.193  20.320  0.00  0.00    +0.000 OA
BRANCH  30  32
ATOM     31  C   UNL     1       1.211   3.503  20.418  0.00  0.00    +0.000 C 
ATOM     32  C   UNL     1       2.208   4.322  21.222  0.00  0.00    +0.000 C 
ENDBRANCH  30  32
ENDBRANCH  23  30
ENDBRANCH   1  26
TORSDOF 6
ENDMDL
MODEL 8
REMARK VINA RESULT:      -7.7      2.038      5.561
REMARK  Name = 
REMARK  9 active torsions:
REMARK  status: ('A' for Active; 'I' for Inactive)
REMARK    1  A    between atoms: C_1  and  C_2
REMARK    2  A    between atoms: C_2  and  O_3
REMARK    3  A    between atoms: O_3  and  C_4
REMARK    4  A    between atoms: C_7  and  C_8
REMARK    5  A    between atoms: C_8  and  N_9
REMARK    6  A    between atoms: C_8  and  C_16
REMARK    7  A    between atoms: C_22  and  C_23
REMARK    8  A    between atoms: C_26  and  O_27
REMARK    9  A    between atoms: C_29  and  C_30
REMARK                            x       y       z     vdW  Elec       q    Type
REMARK                         _______ _______ _______ _____ _____    ______ ____
ROOT
ATOM      1  C   UNL     1       0.298  10.558  19.074  0.00  0.00    +0.000 C 
ENDROOT
BRANCH   1   2
ATOM      2  C   UNL     1       1.204   9.309  19.179  0.00  0.00    +0.000 A 
ATOM      3  C   UNL     1       1.685   8.884  17.938  0.00  0.00    +0.000 A 
ATOM      4  C   UNL     1       2.684   7.960  17.904  0.00  0.00    +0.000 A 
ATOM      5  C   UNL     1       2.370   6.858  18.665  0.00  0.00    +0.000 A 
ATOM      6  C   UNL     1       2.488   5.646  18.029  0.00  0.00    +0.000 A 
ATOM      7  C   UNL     1       2.347   4.500  18.763  0.00  0.00    +0.000 A 
ATOM      8  C   UNL     1       2.209   4.627  20.137  0.00  0.00    +0.000 A 
ATOM      9  C   UNL     1       2.436   3.344  20.913  0.00  0.00    +0.000 C 
ATOM     10  N   UNL     1       1.991   5.843  20.759  0.00  0.00    +0.000 NA
ATOM     11  C   UNL     1       1.941   7.017  19.990  0.00  0.00    +0.000 A 
ATOM     12  C   UNL     1       1.486   8.396  20.246  0.00  0.00    +0.000 A 
BRANCH  12  13
ATOM     13  O   UNL     1       1.289   8.767  21.549  0.00  0.00    +0.000 OA
ATOM     14  H   UNL     1       0.339   8.774  21.714  0.00  0.00    +0.000 HD
ENDBRANCH  12  13
ENDBRANCH   1   2
BRANCH   1  15
ATOM     15  N   UNL     1      -0.349  10.701  17.775  0.00  0.00    +0.000 N 
ATOM     16  C   UNL     1      -1.725  10.864  17.635  0.00  0.00    +0.000 A 
ATOM     17  C   UNL     1      -2.572  11.442  18.581  0.00  0.00    +0.000 A 
ATOM     18  C   UNL     1      -3.940  11.588  18.317  0.00  0.00    +0.000 A 
ATOM     19  C   UNL     1      -4.440  11.191  17.089  0.00  0.00    +0.000 A 
ATOM     20  C   UNL     1      -3.542  10.644  16.189  0.00  0.00    +0.000 A 
ATOM     21  N   UNL     1      -2.221  10.459  16.446  0.00  0.00    +0.000 NA
ATOM     22  H   UNL     1      -0.087  10.027  17.064  0.00  0.00    +0.000 HD
ENDBRANCH   1  15
BRANCH   1  26
ATOM     23  C   UNL     1       1.852  14.366  20.513  0.00  0.00    +0.000 A 
ATOM     24  C   UNL     1       2.431  13.742  19.411  0.00  0.00    +0.000 A 
ATOM     25  C   UNL     1       1.923  12.520  18.948  0.00  0.00    +0.000 A 
ATOM     26  C   UNL     1       0.871  11.859  19.613  0.00  0.00    +0.000 A 
ATOM     27  C   UNL     1       0.359  12.459  20.761  0.00  0.00    +0.000 A 
ATOM     28  C   UNL     1       0.788  13.731  21.173  0.00  0.00    +0.000 A 
ATOM     29  C   UNL     1       0.036  14.423  22.275  0.00  0.00    +0.000 C 
BRANCH  23  30
ATOM     30  O   UNL     1       2.224  15.580  21.025  0.00  0.00    +0.000 OA
BRANCH  30  32
ATOM     31  C   UNL     1       3.486  16.581  22.778  0.00  0.00    +0.000 C 
ATOM     32  C   UNL     1       3.551  15.723  21.524  0.00  0.00    +0.000 C 
ENDBRANCH  30  32
ENDBRANCH  23  30
ENDBRANCH   1  26
TORSDOF 6
ENDMDL
MODEL 9
REMARK VINA RESULT:      -7.6      2.293      7.347
REMARK  Name = 
REMARK  9 active torsions:
REMARK  status: ('A' for Active; 'I' for Inactive)
REMARK    1  A    between atoms: C_1  and  C_2
REMARK    2  A    between atoms: C_2  and  O_3
REMARK    3  A    between atoms: O_3  and  C_4
REMARK    4  A    between atoms: C_7  and  C_8
REMARK    5  A    between atoms: C_8  and  N_9
REMARK    6  A    between atoms: C_8  and  C_16
REMARK    7  A    between atoms: C_22  and  C_23
REMARK    8  A    between atoms: C_26  and  O_27
REMARK    9  A    between atoms: C_29  and  C_30
REMARK                            x       y       z     vdW  Elec       q    Type
REMARK                         _______ _______ _______ _____ _____    ______ ____
ROOT
ATOM      1  C   UNL     1       0.495  11.495  18.670  0.00  0.00    +0.000 C 
ENDROOT
BRANCH   1   2
ATOM      2  C   UNL     1       1.344  12.659  19.231  0.00  0.00    +0.000 A 
ATOM      3  C   UNL     1       2.049  13.341  18.236  0.00  0.00    +0.000 A 
ATOM      4  C   UNL     1       2.633  14.531  18.546  0.00  0.00    +0.000 A 
ATOM      5  C   UNL     1       3.428  14.420  19.664  0.00  0.00    +0.000 A 
ATOM      6  C   UNL     1       4.714  14.883  19.524  0.00  0.00    +0.000 A 
ATOM      7  C   UNL     1       5.513  14.953  20.632  0.00  0.00    +0.000 A 
ATOM      8  C   UNL     1       4.939  14.661  21.861  0.00  0.00    +0.000 A 
ATOM      9  C   UNL     1       5.752  15.115  23.058  0.00  0.00    +0.000 C 
ATOM     10  N   UNL     1       3.681  14.101  21.986  0.00  0.00    +0.000 NA
ATOM     11  C   UNL     1       2.918  13.844  20.835  0.00  0.00    +0.000 A 
ATOM     12  C   UNL     1       1.706  13.050  20.561  0.00  0.00    +0.000 A 
BRANCH  12  13
ATOM     13  O   UNL     1       0.954  12.650  21.632  0.00  0.00    +0.000 OA
ATOM     14  H   UNL     1       0.396  13.391  21.895  0.00  0.00    +0.000 HD
ENDBRANCH  12  13
ENDBRANCH   1   2
BRANCH   1  15
ATOM     15  N   UNL     1      -0.899  11.531  19.096  0.00  0.00    +0.000 N 
ATOM     16  C   UNL     1      -1.955  11.243  18.235  0.00  0.00    +0.000 A 
ATOM     17  C   UNL     1      -1.887  10.400  17.124  0.00  0.00    +0.000 A 
ATOM     18  C   UNL     1      -3.027  10.153  16.348  0.00  0.00    +0.000 A 
ATOM     19  C   UNL     1      -4.235  10.720  16.717  0.00  0.00    +0.000 A 
ATOM     20  C   UNL     1      -4.236  11.529  17.840  0.00  0.00    +0.000 A 
ATOM     21  N   UNL     1      -3.132  11.810  18.579  0.00  0.00    +0.000 NA
ATOM     22  H   UNL     1      -1.192  12.356  19.610  0.00  0.00    +0.000 HD
ENDBRANCH   1  15
BRANCH   1  26
ATOM     23  C   UNL     1       2.407   7.587  18.922  0.00  0.00    +0.000 A 
ATOM     24  C   UNL     1       2.571   8.378  17.788  0.00  0.00    +0.000 A 
ATOM     25  C   UNL     1       1.960   9.638  17.715  0.00  0.00    +0.000 A 
ATOM     26  C   UNL     1       1.115  10.108  18.740  0.00  0.00    +0.000 A 
ATOM     27  C   UNL     1       0.896   9.267  19.829  0.00  0.00    +0.000 A 
ATOM     28  C   UNL     1       1.585   8.052  19.962  0.00  0.00    +0.000 A 
ATOM     29  C   UNL     1       1.487   7.306  21.264  0.00  0.00    +0.000 C 
BRANCH  23  30
ATOM     30  O   UNL     1       2.992   6.367  19.133  0.00  0.00    +0.000 OA
BRANCH  30  32
ATOM     31  C   UNL     1       1.831   4.704  17.889  0.00  0.00    +0.000 C 
ATOM     32  C   UNL     1       3.129   5.485  18.023  0.00  0.00    +0.000 C 
ENDBRANCH  30  32
ENDBRANCH  23  30
ENDBRANCH   1  26
TORSDOF 6
ENDMDL
