MODEL 1
REMARK VINA RESULT:      -8.4      0.000      0.000
REMARK  Name = 
REMARK  5 active torsions:
REMARK  status: ('A' for Active; 'I' for Inactive)
REMARK    1  A    between atoms: C_1  and  C_2
REMARK    2  A    between atoms: C_2  and  C_3
REMARK    3  A    between atoms: C_2  and  C_4
REMARK    4  A    between atoms: C_2  and  N_5
REMARK    5  A    between atoms: C_6  and  C_8
REMARK                            x       y       z     vdW  Elec       q    Type
REMARK                         _______ _______ _______ _____ _____    ______ ____
ROOT
ATOM      1  C   UNL     1       7.970   8.104  18.195  0.00  0.00    +0.000 A 
ATOM      2  C   UNL     1       8.444   7.181  19.128  0.00  0.00    +0.000 A 
ATOM      3  C   UNL     1       7.974   5.876  19.093  0.00  0.00    +0.000 A 
ATOM      4  C   UNL     1       7.017   5.459  18.146  0.00  0.00    +0.000 A 
ATOM      5  C   UNL     1       6.540   6.385  17.197  0.00  0.00    +0.000 A 
ATOM      6  C   UNL     1       7.016   7.708  17.252  0.00  0.00    +0.000 A 
ATOM      7  C   UNL     1       5.519   6.089  16.112  0.00  0.00    +0.000 C 
ATOM      8  C   UNL     1       5.106   4.636  15.867  0.00  0.00    +0.000 C 
ATOM      9  C   UNL     1       4.409   4.065  17.070  0.00  0.00    +0.000 A 
ATOM     10  C   UNL     1       3.028   3.822  17.073  0.00  0.00    +0.000 A 
ATOM     11  C   UNL     1       2.401   3.358  18.230  0.00  0.00    +0.000 A 
ATOM     12  C   UNL     1       3.144   3.131  19.385  0.00  0.00    +0.000 A 
ATOM     13  C   UNL     1       4.523   3.350  19.379  0.00  0.00    +0.000 A 
ATOM     14  C   UNL     1       5.164   3.804  18.220  0.00  0.00    +0.000 A 
ATOM     15  N   UNL     1       6.538   4.130  18.261  0.00  0.00    +0.000 N 
ATOM     16  H   UNL     1       7.025   3.601  18.976  0.00  0.00    +0.000 HD
ENDROOT
BRANCH   1  18
ATOM     17  N   UNL     1       9.286   9.853  19.241  0.00  0.00    +0.000 N 
ATOM     18  C   UNL     1       8.439   9.505  18.198  0.00  0.00    +0.000 C 
ATOM     19  O   UNL     1       8.085  10.254  17.290  0.00  0.00    +0.000 OA
ATOM     20  H   UNL     1       9.623   9.122  19.838  0.00  0.00    +0.000 HD
BRANCH  17  22
ATOM     21  C   UNL     1      10.006  11.534  20.881  0.00  0.00    +0.000 C 
ATOM     22  C   UNL     1       9.877  11.193  19.390  0.00  0.00    +0.000 C 
ATOM     23  C   UNL     1       8.994  12.248  18.708  0.00  0.00    +0.000 C 
ATOM     24  C   UNL     1      11.288  11.213  18.773  0.00  0.00    +0.000 C 
ENDBRANCH  17  22
ENDBRANCH   1  18
TORSDOF 2
ENDMDL
MODEL 2
REMARK VINA RESULT:      -8.3      6.580      7.218
REMARK  Name = 
REMARK  5 active torsions:
REMARK  status: ('A' for Active; 'I' for Inactive)
REMARK    1  A    between atoms: C_1  and  C_2
REMARK    2  A    between atoms: C_2  and  C_3
REMARK    3  A    between atoms: C_2  and  C_4
REMARK    4  A    between atoms: C_2  and  N_5
REMARK    5  A    between atoms: C_6  and  C_8
REMARK                            x       y       z     vdW  Elec       q    Type
REMARK                         _______ _______ _______ _____ _____    ______ ____
ROOT
ATOM      1  C   UNL     1       0.481  10.301  19.934  0.00  0.00    +0.000 A 
ATOM      2  C   UNL     1       0.469   9.753  21.218  0.00  0.00    +0.000 A 
ATOM      3  C   UNL     1       1.091   8.533  21.443  0.00  0.00    +0.000 A 
ATOM      4  C   UNL     1       1.722   7.821  20.404  0.00  0.00    +0.000 A 
ATOM      5  C   UNL     1       1.743   8.372  19.106  0.00  0.00    +0.000 A 
ATOM      6  C   UNL     1       1.099   9.605  18.890  0.00  0.00    +0.000 A 
ATOM      7  C   UNL     1       2.388   7.734  17.888  0.00  0.00    +0.000 C 
ATOM      8  C   UNL     1       3.270   6.499  18.083  0.00  0.00    +0.000 C 
ATOM      9  C   UNL     1       2.467   5.343  18.612  0.00  0.00    +0.000 A 
ATOM     10  C   UNL     1       2.148   4.242  17.807  0.00  0.00    +0.000 A 
ATOM     11  C   UNL     1       1.342   3.218  18.307  0.00  0.00    +0.000 A 
ATOM     12  C   UNL     1       0.853   3.287  19.609  0.00  0.00    +0.000 A 
ATOM     13  C   UNL     1       1.187   4.372  20.420  0.00  0.00    +0.000 A 
ATOM     14  C   UNL     1       2.006   5.398  19.933  0.00  0.00    +0.000 A 
ATOM     15  N   UNL     1       2.242   6.543  20.726  0.00  0.00    +0.000 N 
ATOM     16  H   UNL     1       2.172   6.331  21.715  0.00  0.00    +0.000 HD
ENDROOT
BRANCH   1  18
ATOM     17  N   UNL     1       0.242  12.663  20.431  0.00  0.00    +0.000 N 
ATOM     18  C   UNL     1      -0.172  11.595  19.648  0.00  0.00    +0.000 C 
ATOM     19  O   UNL     1      -1.000  11.656  18.742  0.00  0.00    +0.000 OA
ATOM     20  H   UNL     1       1.029  12.526  21.037  0.00  0.00    +0.000 HD
BRANCH  17  22
ATOM     21  C   UNL     1       0.463  14.975  21.229  0.00  0.00    +0.000 C 
ATOM     22  C   UNL     1      -0.273  14.032  20.268  0.00  0.00    +0.000 C 
ATOM     23  C   UNL     1      -1.778  14.079  20.573  0.00  0.00    +0.000 C 
ATOM     24  C   UNL     1      -0.015  14.520  18.830  0.00  0.00    +0.000 C 
ENDBRANCH  17  22
ENDBRANCH   1  18
TORSDOF 2
ENDMDL
MODEL 3
REMARK VINA RESULT:      -8.2      6.036      7.192
REMARK  Name = 
REMARK  5 active torsions:
REMARK  status: ('A' for Active; 'I' for Inactive)
REMARK    1  A    between atoms: C_1  and  C_2
REMARK    2  A    between atoms: C_2  and  C_3
REMARK    3  A    between atoms: C_2  and  C_4
REMARK    4  A    between atoms: C_2  and  N_5
REMARK    5  A    between atoms: C_6  and  C_8
REMARK                            x       y       z     vdW  Elec       q    Type
REMARK                         _______ _______ _______ _____ _____    ______ ____
ROOT
ATOM      1  C   UNL     1       0.982   9.379  19.729  0.00  0.00    +0.000 A 
ATOM      2  C   UNL     1       0.789   8.698  20.933  0.00  0.00    +0.000 A 
ATOM      3  C   UNL     1       1.408   7.471  21.127  0.00  0.00    +0.000 A 
ATOM      4  C   UNL     1       2.216   6.885  20.133  0.00  0.00    +0.000 A 
ATOM      5  C   UNL     1       2.420   7.570  18.918  0.00  0.00    +0.000 A 
ATOM      6  C   UNL     1       1.777   8.808  18.730  0.00  0.00    +0.000 A 
ATOM      7  C   UNL     1       3.267   7.076  17.758  0.00  0.00    +0.000 C 
ATOM      8  C   UNL     1       4.148   5.842  17.963  0.00  0.00    +0.000 C 
ATOM      9  C   UNL     1       3.311   4.623  18.238  0.00  0.00    +0.000 A 
ATOM     10  C   UNL     1       3.157   3.608  17.284  0.00  0.00    +0.000 A 
ATOM     11  C   UNL     1       2.317   2.524  17.543  0.00  0.00    +0.000 A 
ATOM     12  C   UNL     1       1.631   2.446  18.752  0.00  0.00    +0.000 A 
ATOM     13  C   UNL     1       1.799   3.444  19.713  0.00  0.00    +0.000 A 
ATOM     14  C   UNL     1       2.649   4.529  19.468  0.00  0.00    +0.000 A 
ATOM     15  N   UNL     1       2.722   5.588  20.401  0.00  0.00    +0.000 N 
ATOM     16  H   UNL     1       2.506   5.271  21.340  0.00  0.00    +0.000 HD
ENDROOT
BRANCH   1  18
ATOM     17  N   UNL     1      -0.895  10.635  18.844  0.00  0.00    +0.000 N 
ATOM     18  C   UNL     1       0.339  10.685  19.478  0.00  0.00    +0.000 C 
ATOM     19  O   UNL     1       0.903  11.709  19.856  0.00  0.00    +0.000 OA
ATOM     20  H   UNL     1      -1.323   9.738  18.716  0.00  0.00    +0.000 HD
BRANCH  17  22
ATOM     21  C   UNL     1      -2.758  11.485  17.488  0.00  0.00    +0.000 C 
ATOM     22  C   UNL     1      -1.696  11.832  18.540  0.00  0.00    +0.000 C 
ATOM     23  C   UNL     1      -0.800  12.955  17.998  0.00  0.00    +0.000 C 
ATOM     24  C   UNL     1      -2.423  12.310  19.812  0.00  0.00    +0.000 C 
ENDBRANCH  17  22
ENDBRANCH   1  18
TORSDOF 2
ENDMDL
MODEL 4
REMARK VINA RESULT:      -8.1      7.243      8.047
REMARK  Name = 
REMARK  5 active torsions:
REMARK  status: ('A' for Active; 'I' for Inactive)
REMARK    1  A    between atoms: C_1  and  C_2
REMARK    2  A    between atoms: C_2  and  C_3
REMARK    3  A    between atoms: C_2  and  C_4
REMARK    4  A    between atoms: C_2  and  N_5
REMARK    5  A    between atoms: C_6  and  C_8
REMARK                            x       y       z     vdW  Elec       q    Type
REMARK                         _______ _______ _______ _____ _____    ______ ____
ROOT
ATOM      1  C   UNL     1       0.007  10.297  20.211  0.00  0.00    +0.000 A 
ATOM      2  C   UNL     1       0.125   9.687  21.461  0.00  0.00    +0.000 A 
ATOM      3  C   UNL     1       0.895   8.540  21.589  0.00  0.00    +0.000 A 
ATOM      4  C   UNL     1       1.551   7.962  20.484  0.00  0.00    +0.000 A 
ATOM      5  C   UNL     1       1.441   8.576  19.220  0.00  0.00    +0.000 A 
ATOM      6  C   UNL     1       0.648   9.733  19.103  0.00  0.00    +0.000 A 
ATOM      7  C   UNL     1       2.093   8.083  17.940  0.00  0.00    +0.000 C 
ATOM      8  C   UNL     1       3.121   6.953  18.026  0.00  0.00    +0.000 C 
ATOM      9  C   UNL     1       2.486   5.684  18.524  0.00  0.00    +0.000 A 
ATOM     10  C   UNL     1       2.256   4.595  17.673  0.00  0.00    +0.000 A 
ATOM     11  C   UNL     1       1.601   3.459  18.149  0.00  0.00    +0.000 A 
ATOM     12  C   UNL     1       1.175   3.403  19.474  0.00  0.00    +0.000 A 
ATOM     13  C   UNL     1       1.421   4.477  20.330  0.00  0.00    +0.000 A 
ATOM     14  C   UNL     1       2.090   5.616  19.865  0.00  0.00    +0.000 A 
ATOM     15  N   UNL     1       2.231   6.739  20.710  0.00  0.00    +0.000 N 
ATOM     16  H   UNL     1       2.237   6.471  21.688  0.00  0.00    +0.000 HD
ENDROOT
BRANCH   1  18
ATOM     17  N   UNL     1      -1.463  11.976  21.160  0.00  0.00    +0.000 N 
ATOM     18  C   UNL     1      -0.805  11.517  20.028  0.00  0.00    +0.000 C 
ATOM     19  O   UNL     1      -0.831  12.055  18.923  0.00  0.00    +0.000 OA
ATOM     20  H   UNL     1      -1.250  11.542  22.038  0.00  0.00    +0.000 HD
BRANCH  17  22
ATOM     21  C   UNL     1      -1.505  14.357  20.557  0.00  0.00    +0.000 C 
ATOM     22  C   UNL     1      -2.291  13.194  21.176  0.00  0.00    +0.000 C 
ATOM     23  C   UNL     1      -2.681  13.560  22.615  0.00  0.00    +0.000 C 
ATOM     24  C   UNL     1      -3.560  12.973  20.330  0.00  0.00    +0.000 C 
ENDBRANCH  17  22
ENDBRANCH   1  18
TORSDOF 2
ENDMDL
MODEL 5
REMARK VINA RESULT:      -8.1      6.243      6.957
REMARK  Name = 
REMARK  5 active torsions:
REMARK  status: ('A' for Active; 'I' for Inactive)
REMARK    1  A    between atoms: C_1  and  C_2
REMARK    2  A    between atoms: C_2  and  C_3
REMARK    3  A    between atoms: C_2  and  C_4
REMARK    4  A    between atoms: C_2  and  N_5
REMARK    5  A    between atoms: C_6  and  C_8
REMARK                            x       y       z     vdW  Elec       q    Type
REMARK                         _______ _______ _______ _____ _____    ______ ____
ROOT
ATOM      1  C   UNL     1       0.665  10.115  20.133  0.00  0.00    +0.000 A 
ATOM      2  C   UNL     1       0.615   9.512  21.390  0.00  0.00    +0.000 A 
ATOM      3  C   UNL     1       1.192   8.262  21.568  0.00  0.00    +0.000 A 
ATOM      4  C   UNL     1       1.814   7.576  20.506  0.00  0.00    +0.000 A 
ATOM      5  C   UNL     1       1.874   8.183  19.236  0.00  0.00    +0.000 A 
ATOM      6  C   UNL     1       1.275   9.446  19.067  0.00  0.00    +0.000 A 
ATOM      7  C   UNL     1       2.515   7.579  17.999  0.00  0.00    +0.000 C 
ATOM      8  C   UNL     1       3.352   6.307  18.150  0.00  0.00    +0.000 C 
ATOM      9  C   UNL     1       2.502   5.156  18.614  0.00  0.00    +0.000 A 
ATOM     10  C   UNL     1       2.158   4.104  17.756  0.00  0.00    +0.000 A 
ATOM     11  C   UNL     1       1.310   3.087  18.197  0.00  0.00    +0.000 A 
ATOM     12  C   UNL     1       0.804   3.115  19.494  0.00  0.00    +0.000 A 
ATOM     13  C   UNL     1       1.162   4.150  20.359  0.00  0.00    +0.000 A 
ATOM     14  C   UNL     1       2.023   5.168  19.930  0.00  0.00    +0.000 A 
ATOM     15  N   UNL     1       2.286   6.267  20.777  0.00  0.00    +0.000 N 
ATOM     16  H   UNL     1       2.193   6.014  21.755  0.00  0.00    +0.000 HD
ENDROOT
BRANCH   1  18
ATOM     17  N   UNL     1       0.932  12.521  19.970  0.00  0.00    +0.000 N 
ATOM     18  C   UNL     1       0.061  11.443  19.897  0.00  0.00    +0.000 C 
ATOM     19  O   UNL     1      -1.137  11.513  19.630  0.00  0.00    +0.000 OA
ATOM     20  H   UNL     1       1.913  12.330  20.047  0.00  0.00    +0.000 HD
BRANCH  17  22
ATOM     21  C   UNL     1      -0.230  14.004  18.395  0.00  0.00    +0.000 C 
ATOM     22  C   UNL     1       0.516  13.913  19.733  0.00  0.00    +0.000 C 
ATOM     23  C   UNL     1       1.740  14.839  19.689  0.00  0.00    +0.000 C 
ATOM     24  C   UNL     1      -0.445  14.368  20.847  0.00  0.00    +0.000 C 
ENDBRANCH  17  22
ENDBRANCH   1  18
TORSDOF 2
ENDMDL
MODEL 6
REMARK VINA RESULT:      -8.0      5.926      6.604
REMARK  Name = 
REMARK  5 active torsions:
REMARK  status: ('A' for Active; 'I' for Inactive)
REMARK    1  A    between atoms: C_1  and  C_2
REMARK    2  A    between atoms: C_2  and  C_3
REMARK    3  A    between atoms: C_2  and  C_4
REMARK    4  A    between atoms: C_2  and  N_5
REMARK    5  A    between atoms: C_6  and  C_8
REMARK                            x       y       z     vdW  Elec       q    Type
REMARK                         _______ _______ _______ _____ _____    ______ ____
ROOT
ATOM      1  C   UNL     1       0.972   9.544  19.508  0.00  0.00    +0.000 A 
ATOM      2  C   UNL     1       0.794   8.901  20.734  0.00  0.00    +0.000 A 
ATOM      3  C   UNL     1       1.425   7.687  20.963  0.00  0.00    +0.000 A 
ATOM      4  C   UNL     1       2.231   7.075  19.982  0.00  0.00    +0.000 A 
ATOM      5  C   UNL     1       2.419   7.722  18.744  0.00  0.00    +0.000 A 
ATOM      6  C   UNL     1       1.764   8.948  18.521  0.00  0.00    +0.000 A 
ATOM      7  C   UNL     1       3.261   7.198  17.594  0.00  0.00    +0.000 C 
ATOM      8  C   UNL     1       4.154   5.979  17.831  0.00  0.00    +0.000 C 
ATOM      9  C   UNL     1       3.331   4.762  18.151  0.00  0.00    +0.000 A 
ATOM     10  C   UNL     1       3.178   3.716  17.232  0.00  0.00    +0.000 A 
ATOM     11  C   UNL     1       2.350   2.634  17.533  0.00  0.00    +0.000 A 
ATOM     12  C   UNL     1       1.673   2.589  18.749  0.00  0.00    +0.000 A 
ATOM     13  C   UNL     1       1.840   3.619  19.676  0.00  0.00    +0.000 A 
ATOM     14  C   UNL     1       2.679   4.703  19.389  0.00  0.00    +0.000 A 
ATOM     15  N   UNL     1       2.749   5.791  20.287  0.00  0.00    +0.000 N 
ATOM     16  H   UNL     1       2.543   5.503  21.237  0.00  0.00    +0.000 HD
ENDROOT
BRANCH   1  18
ATOM     17  N   UNL     1       0.596  11.864  20.108  0.00  0.00    +0.000 N 
ATOM     18  C   UNL     1       0.316  10.836  19.219  0.00  0.00    +0.000 C 
ATOM     19  O   UNL     1      -0.399  10.932  18.224  0.00  0.00    +0.000 OA
ATOM     20  H   UNL     1       1.308  11.711  20.797  0.00  0.00    +0.000 HD
BRANCH  17  22
ATOM     21  C   UNL     1       0.557  14.101  21.121  0.00  0.00    +0.000 C 
ATOM     22  C   UNL     1       0.059  13.227  19.963  0.00  0.00    +0.000 C 
ATOM     23  C   UNL     1      -1.477  13.203  19.977  0.00  0.00    +0.000 C 
ATOM     24  C   UNL     1       0.561  13.849  18.646  0.00  0.00    +0.000 C 
ENDBRANCH  17  22
ENDBRANCH   1  18
TORSDOF 2
ENDMDL
MODEL 7
REMARK VINA RESULT:      -7.9      6.655      9.146
REMARK  Name = 
REMARK  5 active torsions:
REMARK  status: ('A' for Active; 'I' for Inactive)
REMARK    1  A    between atoms: C_1  and  C_2
REMARK    2  A    between atoms: C_2  and  C_3
REMARK    3  A    between atoms: C_2  and  C_4
REMARK    4  A    between atoms: C_2  and  N_5
REMARK    5  A    between atoms: C_6  and  C_8
REMARK                            x       y       z     vdW  Elec       q    Type
REMARK                         _______ _______ _______ _____ _____    ______ ____
ROOT
ATOM      1  C   UNL     1       2.278   7.029  19.269  0.00  0.00    +0.000 A 
ATOM      2  C   UNL     1       2.337   7.528  17.966  0.00  0.00    +0.000 A 
ATOM      3  C   UNL     1       1.893   8.818  17.711  0.00  0.00    +0.000 A 
ATOM      4  C   UNL     1       1.368   9.635  18.731  0.00  0.00    +0.000 A 
ATOM      5  C   UNL     1       1.311   9.140  20.050  0.00  0.00    +0.000 A 
ATOM      6  C   UNL     1       1.755   7.826  20.292  0.00  0.00    +0.000 A 
ATOM      7  C   UNL     1       0.783   9.898  21.255  0.00  0.00    +0.000 C 
ATOM      8  C   UNL     1       0.470  11.388  21.108  0.00  0.00    +0.000 C 
ATOM      9  C   UNL     1      -0.649  11.608  20.127  0.00  0.00    +0.000 A 
ATOM     10  C   UNL     1      -1.927  11.999  20.547  0.00  0.00    +0.000 A 
ATOM     11  C   UNL     1      -2.962  12.126  19.618  0.00  0.00    +0.000 A 
ATOM     12  C   UNL     1      -2.726  11.867  18.270  0.00  0.00    +0.000 A 
ATOM     13  C   UNL     1      -1.448  11.499  17.846  0.00  0.00    +0.000 A 
ATOM     14  C   UNL     1      -0.400  11.381  18.768  0.00  0.00    +0.000 A 
ATOM     15  N   UNL     1       0.857  10.899  18.342  0.00  0.00    +0.000 N 
ATOM     16  H   UNL     1       1.020  11.100  17.361  0.00  0.00    +0.000 HD
ENDROOT
BRANCH   1  18
ATOM     17  N   UNL     1       1.775   4.665  19.473  0.00  0.00    +0.000 N 
ATOM     18  C   UNL     1       2.736   5.661  19.585  0.00  0.00    +0.000 C 
ATOM     19  O   UNL     1       3.912   5.483  19.895  0.00  0.00    +0.000 OA
ATOM     20  H   UNL     1       0.890   4.907  19.070  0.00  0.00    +0.000 HD
BRANCH  17  22
ATOM     21  C   UNL     1       0.916   2.388  19.144  0.00  0.00    +0.000 C 
ATOM     22  C   UNL     1       2.056   3.241  19.718  0.00  0.00    +0.000 C 
ATOM     23  C   UNL     1       2.177   2.968  21.224  0.00  0.00    +0.000 C 
ATOM     24  C   UNL     1       3.360   2.836  19.005  0.00  0.00    +0.000 C 
ENDBRANCH  17  22
ENDBRANCH   1  18
TORSDOF 2
ENDMDL
MODEL 8
REMARK VINA RESULT:      -7.8      5.966      7.263
REMARK  Name = 
REMARK  5 active torsions:
REMARK  status: ('A' for Active; 'I' for Inactive)
REMARK    1  A    between atoms: C_1  and  C_2
REMARK    2  A    between atoms: C_2  and  C_3
REMARK    3  A    between atoms: C_2  and  C_4
REMARK    4  A    between atoms: C_2  and  N_5
REMARK    5  A    between atoms: C_6  and  C_8
REMARK                            x       y       z     vdW  Elec       q    Type
REMARK                         _______ _______ _______ _____ _____    ______ ____
ROOT
ATOM      1  C   UNL     1       1.122   8.923  19.825  0.00  0.00    +0.000 A 
ATOM      2  C   UNL     1       1.412   9.438  18.561  0.00  0.00    +0.000 A 
ATOM      3  C   UNL     1       2.274   8.743  17.724  0.00  0.00    +0.000 A 
ATOM      4  C   UNL     1       2.879   7.535  18.123  0.00  0.00    +0.000 A 
ATOM      5  C   UNL     1       2.585   7.006  19.397  0.00  0.00    +0.000 A 
ATOM      6  C   UNL     1       1.719   7.727  20.239  0.00  0.00    +0.000 A 
ATOM      7  C   UNL     1       3.148   5.716  19.967  0.00  0.00    +0.000 C 
ATOM      8  C   UNL     1       3.936   4.785  19.043  0.00  0.00    +0.000 C 
ATOM      9  C   UNL     1       5.195   5.448  18.557  0.00  0.00    +0.000 A 
ATOM     10  C   UNL     1       6.457   5.061  19.027  0.00  0.00    +0.000 A 
ATOM     11  C   UNL     1       7.600   5.743  18.609  0.00  0.00    +0.000 A 
ATOM     12  C   UNL     1       7.491   6.811  17.722  0.00  0.00    +0.000 A 
ATOM     13  C   UNL     1       6.238   7.186  17.236  0.00  0.00    +0.000 A 
ATOM     14  C   UNL     1       5.085   6.499  17.638  0.00  0.00    +0.000 A 
ATOM     15  N   UNL     1       3.815   6.960  17.228  0.00  0.00    +0.000 N 
ATOM     16  H   UNL     1       3.867   7.457  16.346  0.00  0.00    +0.000 HD
ENDROOT
BRANCH   1  18
ATOM     17  N   UNL     1       0.247  11.017  20.681  0.00  0.00    +0.000 N 
ATOM     18  C   UNL     1       0.214   9.631  20.750  0.00  0.00    +0.000 C 
ATOM     19  O   UNL     1      -0.517   8.973  21.488  0.00  0.00    +0.000 OA
ATOM     20  H   UNL     1       0.773  11.440  19.940  0.00  0.00    +0.000 HD
BRANCH  17  22
ATOM     21  C   UNL     1       0.080  13.244  21.704  0.00  0.00    +0.000 C 
ATOM     22  C   UNL     1      -0.610  11.888  21.503  0.00  0.00    +0.000 C 
ATOM     23  C   UNL     1      -0.868  11.247  22.874  0.00  0.00    +0.000 C 
ATOM     24  C   UNL     1      -1.948  12.136  20.780  0.00  0.00    +0.000 C 
ENDBRANCH  17  22
ENDBRANCH   1  18
TORSDOF 2
ENDMDL
MODEL 9
REMARK VINA RESULT:      -7.7      4.090      6.569
REMARK  Name = 
REMARK  5 active torsions:
REMARK  status: ('A' for Active; 'I' for Inactive)
REMARK    1  A    between atoms: C_1  and  C_2
REMARK    2  A    between atoms: C_2  and  C_3
REMARK    3  A    between atoms: C_2  and  C_4
REMARK    4  A    between atoms: C_2  and  N_5
REMARK    5  A    between atoms: C_6  and  C_8
REMARK                            x       y       z     vdW  Elec       q    Type
REMARK                         _______ _______ _______ _____ _____    ______ ____
ROOT
ATOM      1  C   UNL     1       6.102   4.612  15.541  0.00  0.00    +0.000 A 
ATOM      2  C   UNL     1       6.466   5.710  16.323  0.00  0.00    +0.000 A 
ATOM      3  C   UNL     1       6.049   5.773  17.645  0.00  0.00    +0.000 A 
ATOM      4  C   UNL     1       5.252   4.762  18.217  0.00  0.00    +0.000 A 
ATOM      5  C   UNL     1       4.886   3.648  17.435  0.00  0.00    +0.000 A 
ATOM      6  C   UNL     1       5.307   3.603  16.093  0.00  0.00    +0.000 A 
ATOM      7  C   UNL     1       4.042   2.477  17.908  0.00  0.00    +0.000 C 
ATOM      8  C   UNL     1       3.715   2.359  19.398  0.00  0.00    +0.000 C 
ATOM      9  C   UNL     1       2.871   3.516  19.857  0.00  0.00    +0.000 A 
ATOM     10  C   UNL     1       1.513   3.358  20.165  0.00  0.00    +0.000 A 
ATOM     11  C   UNL     1       0.741   4.465  20.520  0.00  0.00    +0.000 A 
ATOM     12  C   UNL     1       1.318   5.731  20.571  0.00  0.00    +0.000 A 
ATOM     13  C   UNL     1       2.675   5.889  20.286  0.00  0.00    +0.000 A 
ATOM     14  C   UNL     1       3.461   4.783  19.941  0.00  0.00    +0.000 A 
ATOM     15  N   UNL     1       4.804   4.973  19.546  0.00  0.00    +0.000 N 
ATOM     16  H   UNL     1       5.199   5.809  19.962  0.00  0.00    +0.000 HD
ENDROOT
BRANCH   1  18
ATOM     17  N   UNL     1       5.858   3.548  13.376  0.00  0.00    +0.000 N 
ATOM     18  C   UNL     1       6.521   4.507  14.128  0.00  0.00    +0.000 C 
ATOM     19  O   UNL     1       7.388   5.268  13.705  0.00  0.00    +0.000 OA
ATOM     20  H   UNL     1       5.068   3.089  13.787  0.00  0.00    +0.000 HD
BRANCH  17  22
ATOM     21  C   UNL     1       6.709   1.919  11.746  0.00  0.00    +0.000 C 
ATOM     22  C   UNL     1       6.118   3.322  11.944  0.00  0.00    +0.000 C 
ATOM     23  C   UNL     1       7.109   4.365  11.408  0.00  0.00    +0.000 C 
ATOM     24  C   UNL     1       4.797   3.399  11.155  0.00  0.00    +0.000 C 
ENDBRANCH  17  22
ENDBRANCH   1  18
TORSDOF 2
ENDMDL
