MODEL 1
REMARK VINA RESULT:      -6.8      0.000      0.000
REMARK  Name = 
REMARK  3 active torsions:
REMARK  status: ('A' for Active; 'I' for Inactive)
REMARK    1  A    between atoms: C_1  and  C_2
REMARK    2  A    between atoms: C_16  and  O_17
REMARK    3  A    between atoms: C_19  and  O_20
REMARK                            x       y       z     vdW  Elec       q    Type
REMARK                         _______ _______ _______ _____ _____    ______ ____
ROOT
ATOM      1  C   UNL     1       0.796  10.512  21.274  0.00  0.00    +0.000 C 
ATOM      2  C   UNL     1      -0.337  11.145  20.472  0.00  0.00    +0.000 C 
ATOM      3  C   UNL     1      -1.002  10.125  19.526  0.00  0.00    +0.000 C 
ATOM      4  C   UNL     1      -0.866  10.533  18.052  0.00  0.00    +0.000 C 
ATOM      5  C   UNL     1      -1.786   9.717  17.144  0.00  0.00    +0.000 C 
ATOM      6  C   UNL     1      -2.891  10.583  16.566  0.00  0.00    +0.000 C 
ATOM      7  O   UNL     1      -2.697  11.260  15.555  0.00  0.00    +0.000 OA
ATOM      8  C   UNL     1      -4.237  10.548  17.264  0.00  0.00    +0.000 C 
ATOM      9  C   UNL     1      -4.981  11.879  17.137  0.00  0.00    +0.000 C 
ATOM     10  C   UNL     1      -6.165  11.988  18.105  0.00  0.00    +0.000 C 
ATOM     11  C   UNL     1      -5.843  12.775  19.350  0.00  0.00    +0.000 C 
ATOM     12  C   UNL     1      -4.957  12.388  20.282  0.00  0.00    +0.000 C 
ATOM     13  C   UNL     1      -4.525  13.120  21.501  0.00  0.00    +0.000 A 
ATOM     14  C   UNL     1      -5.415  13.778  22.375  0.00  0.00    +0.000 A 
ATOM     15 CL   UNL     1      -7.122  13.914  22.080  0.00  0.00    +0.000 Cl
ATOM     16  C   UNL     1      -4.946  14.339  23.576  0.00  0.00    +0.000 A 
ATOM     17  C   UNL     1      -3.621  14.212  23.969  0.00  0.00    +0.000 A 
ATOM     18  C   UNL     1      -2.723  13.575  23.121  0.00  0.00    +0.000 A 
ATOM     19  C   UNL     1      -3.153  13.058  21.886  0.00  0.00    +0.000 A 
ATOM     20  C   UNL     1      -2.135  12.606  20.910  0.00  0.00    +0.000 C 
ATOM     21  O   UNL     1      -2.100  13.046  19.767  0.00  0.00    +0.000 OA
ATOM     22  O   UNL     1      -1.329  11.629  21.407  0.00  0.00    +0.000 OA
ENDROOT
BRANCH  16  23
ATOM     23  O   UNL     1      -5.769  15.035  24.423  0.00  0.00    +0.000 OA
ATOM     24  H   UNL     1      -5.669  15.984  24.210  0.00  0.00    +0.000 HD
ENDBRANCH  16  23
BRANCH  18  25
ATOM     25  O   UNL     1      -1.411  13.484  23.497  0.00  0.00    +0.000 OA
ATOM     26  H   UNL     1      -1.339  13.583  24.462  0.00  0.00    +0.000 HD
ENDBRANCH  18  25
TORSDOF 2
ENDMDL
MODEL 2
REMARK VINA RESULT:      -6.7      1.061      1.255
REMARK  Name = 
REMARK  3 active torsions:
REMARK  status: ('A' for Active; 'I' for Inactive)
REMARK    1  A    between atoms: C_1  and  C_2
REMARK    2  A    between atoms: C_16  and  O_17
REMARK    3  A    between atoms: C_19  and  O_20
REMARK                            x       y       z     vdW  Elec       q    Type
REMARK                         _______ _______ _______ _____ _____    ______ ____
ROOT
ATOM      1  C   UNL     1       0.915  10.173  20.193  0.00  0.00    +0.000 C 
ATOM      2  C   UNL     1      -0.343  10.944  19.805  0.00  0.00    +0.000 C 
ATOM      3  C   UNL     1      -1.379  10.032  19.118  0.00  0.00    +0.000 C 
ATOM      4  C   UNL     1      -1.682  10.483  17.682  0.00  0.00    +0.000 C 
ATOM      5  C   UNL     1      -2.924   9.797  17.115  0.00  0.00    +0.000 C 
ATOM      6  C   UNL     1      -4.060  10.788  16.931  0.00  0.00    +0.000 C 
ATOM      7  O   UNL     1      -4.131  11.482  15.916  0.00  0.00    +0.000 OA
ATOM      8  C   UNL     1      -5.107  10.855  18.027  0.00  0.00    +0.000 C 
ATOM      9  C   UNL     1      -5.708  12.256  18.156  0.00  0.00    +0.000 C 
ATOM     10  C   UNL     1      -6.501  12.440  19.456  0.00  0.00    +0.000 C 
ATOM     11  C   UNL     1      -5.716  13.142  20.535  0.00  0.00    +0.000 C 
ATOM     12  C   UNL     1      -4.623  12.633  21.127  0.00  0.00    +0.000 C 
ATOM     13  C   UNL     1      -3.748  13.271  22.146  0.00  0.00    +0.000 A 
ATOM     14  C   UNL     1      -4.237  13.977  23.266  0.00  0.00    +0.000 A 
ATOM     15 CL   UNL     1      -5.925  14.289  23.539  0.00  0.00    +0.000 Cl
ATOM     16  C   UNL     1      -3.352  14.441  24.253  0.00  0.00    +0.000 A 
ATOM     17  C   UNL     1      -1.991  14.171  24.196  0.00  0.00    +0.000 A 
ATOM     18  C   UNL     1      -1.485  13.485  23.099  0.00  0.00    +0.000 A 
ATOM     19  C   UNL     1      -2.340  13.061  22.066  0.00  0.00    +0.000 A 
ATOM     20  C   UNL     1      -1.743  12.553  20.810  0.00  0.00    +0.000 C 
ATOM     21  O   UNL     1      -2.031  13.033  19.721  0.00  0.00    +0.000 OA
ATOM     22  O   UNL     1      -0.926  11.484  21.014  0.00  0.00    +0.000 OA
ENDROOT
BRANCH  16  23
ATOM     23  O   UNL     1      -3.782  15.180  25.326  0.00  0.00    +0.000 OA
ATOM     24  H   UNL     1      -3.119  15.072  26.037  0.00  0.00    +0.000 HD
ENDBRANCH  16  23
BRANCH  18  25
ATOM     25  O   UNL     1      -0.140  13.253  23.030  0.00  0.00    +0.000 OA
ATOM     26  H   UNL     1       0.152  12.773  23.825  0.00  0.00    +0.000 HD
ENDBRANCH  18  25
TORSDOF 2
ENDMDL
MODEL 3
REMARK VINA RESULT:      -6.3     12.185     13.254
REMARK  Name = 
REMARK  3 active torsions:
REMARK  status: ('A' for Active; 'I' for Inactive)
REMARK    1  A    between atoms: C_1  and  C_2
REMARK    2  A    between atoms: C_16  and  O_17
REMARK    3  A    between atoms: C_19  and  O_20
REMARK                            x       y       z     vdW  Elec       q    Type
REMARK                         _______ _______ _______ _____ _____    ______ ____
ROOT
ATOM      1  C   UNL     1       8.962   9.659  18.998  0.00  0.00    +0.000 C 
ATOM      2  C   UNL     1       9.568  11.021  19.323  0.00  0.00    +0.000 C 
ATOM      3  C   UNL     1       9.367  12.022  18.169  0.00  0.00    +0.000 C 
ATOM      4  C   UNL     1      10.702  12.511  17.589  0.00  0.00    +0.000 C 
ATOM      5  C   UNL     1      10.524  13.728  16.682  0.00  0.00    +0.000 C 
ATOM      6  C   UNL     1      11.131  14.970  17.308  0.00  0.00    +0.000 C 
ATOM      7  O   UNL     1      12.333  15.211  17.189  0.00  0.00    +0.000 OA
ATOM      8  C   UNL     1      10.193  15.904  18.048  0.00  0.00    +0.000 C 
ATOM      9  C   UNL     1      10.898  16.628  19.197  0.00  0.00    +0.000 C 
ATOM     10  C   UNL     1       9.914  17.302  20.161  0.00  0.00    +0.000 C 
ATOM     11  C   UNL     1       9.648  16.489  21.403  0.00  0.00    +0.000 C 
ATOM     12  C   UNL     1       9.030  15.297  21.408  0.00  0.00    +0.000 C 
ATOM     13  C   UNL     1       8.783  14.394  22.563  0.00  0.00    +0.000 A 
ATOM     14  C   UNL     1       8.309  14.838  23.815  0.00  0.00    +0.000 A 
ATOM     15 CL   UNL     1       8.061  16.513  24.207  0.00  0.00    +0.000 Cl
ATOM     16  C   UNL     1       7.977  13.910  24.817  0.00  0.00    +0.000 A 
ATOM     17  C   UNL     1       8.041  12.542  24.593  0.00  0.00    +0.000 A 
ATOM     18  C   UNL     1       8.512  12.080  23.369  0.00  0.00    +0.000 A 
ATOM     19  C   UNL     1       8.909  12.986  22.370  0.00  0.00    +0.000 A 
ATOM     20  C   UNL     1       9.626  12.469  21.182  0.00  0.00    +0.000 C 
ATOM     21  O   UNL     1      10.719  12.911  20.848  0.00  0.00    +0.000 OA
ATOM     22  O   UNL     1       8.909  11.532  20.504  0.00  0.00    +0.000 OA
ENDROOT
BRANCH  16  23
ATOM     23  O   UNL     1       7.568  14.303  26.066  0.00  0.00    +0.000 OA
ATOM     24  H   UNL     1       6.925  13.639  26.384  0.00  0.00    +0.000 HD
ENDBRANCH  16  23
BRANCH  18  25
ATOM     25  O   UNL     1       8.607  10.732  23.165  0.00  0.00    +0.000 OA
ATOM     26  H   UNL     1       8.291  10.258  23.954  0.00  0.00    +0.000 HD
ENDBRANCH  18  25
TORSDOF 2
ENDMDL
MODEL 4
REMARK VINA RESULT:      -6.2      2.596      6.680
REMARK  Name = 
REMARK  3 active torsions:
REMARK  status: ('A' for Active; 'I' for Inactive)
REMARK    1  A    between atoms: C_1  and  C_2
REMARK    2  A    between atoms: C_16  and  O_17
REMARK    3  A    between atoms: C_19  and  O_20
REMARK                            x       y       z     vdW  Elec       q    Type
REMARK                         _______ _______ _______ _____ _____    ______ ____
ROOT
ATOM      1  C   UNL     1      -7.234  12.610  23.827  0.00  0.00    +0.000 C 
ATOM      2  C   UNL     1      -5.996  13.161  23.125  0.00  0.00    +0.000 C 
ATOM      3  C   UNL     1      -4.736  13.017  24.000  0.00  0.00    +0.000 C 
ATOM      4  C   UNL     1      -4.111  14.378  24.339  0.00  0.00    +0.000 C 
ATOM      5  C   UNL     1      -2.704  14.235  24.920  0.00  0.00    +0.000 C 
ATOM      6  C   UNL     1      -1.659  14.770  23.958  0.00  0.00    +0.000 C 
ATOM      7  O   UNL     1      -1.390  15.972  23.925  0.00  0.00    +0.000 OA
ATOM      8  C   UNL     1      -0.947  13.763  23.075  0.00  0.00    +0.000 C 
ATOM      9  C   UNL     1      -0.536  14.371  21.732  0.00  0.00    +0.000 C 
ATOM     10  C   UNL     1      -0.133  13.308  20.702  0.00  0.00    +0.000 C 
ATOM     11  C   UNL     1      -1.236  12.977  19.729  0.00  0.00    +0.000 C 
ATOM     12  C   UNL     1      -2.393  12.386  20.070  0.00  0.00    +0.000 C 
ATOM     13  C   UNL     1      -3.560  12.081  19.203  0.00  0.00    +0.000 A 
ATOM     14  C   UNL     1      -3.451  11.512  17.916  0.00  0.00    +0.000 A 
ATOM     15 CL   UNL     1      -1.931  11.201  17.132  0.00  0.00    +0.000 Cl
ATOM     16  C   UNL     1      -4.604  11.133  17.208  0.00  0.00    +0.000 A 
ATOM     17  C   UNL     1      -5.870  11.243  17.766  0.00  0.00    +0.000 A 
ATOM     18  C   UNL     1      -6.004  11.807  19.030  0.00  0.00    +0.000 A 
ATOM     19  C   UNL     1      -4.872  12.251  19.736  0.00  0.00    +0.000 A 
ATOM     20  C   UNL     1      -5.068  13.059  20.961  0.00  0.00    +0.000 C 
ATOM     21  O   UNL     1      -4.551  14.162  21.094  0.00  0.00    +0.000 OA
ATOM     22  O   UNL     1      -5.805  12.411  21.903  0.00  0.00    +0.000 OA
ENDROOT
BRANCH  16  23
ATOM     23  O   UNL     1      -4.543  10.632  15.933  0.00  0.00    +0.000 OA
ATOM     24  H   UNL     1      -3.736  10.083  15.875  0.00  0.00    +0.000 HD
ENDBRANCH  16  23
BRANCH  18  25
ATOM     25  O   UNL     1      -7.256  11.946  19.561  0.00  0.00    +0.000 OA
ATOM     26  H   UNL     1      -7.216  11.842  20.527  0.00  0.00    +0.000 HD
ENDBRANCH  18  25
TORSDOF 2
ENDMDL
MODEL 5
REMARK VINA RESULT:      -6.2      1.950      5.832
REMARK  Name = 
REMARK  3 active torsions:
REMARK  status: ('A' for Active; 'I' for Inactive)
REMARK    1  A    between atoms: C_1  and  C_2
REMARK    2  A    between atoms: C_16  and  O_17
REMARK    3  A    between atoms: C_19  and  O_20
REMARK                            x       y       z     vdW  Elec       q    Type
REMARK                         _______ _______ _______ _____ _____    ______ ____
ROOT
ATOM      1  C   UNL     1       1.306  14.119  21.009  0.00  0.00    +0.000 C 
ATOM      2  C   UNL     1      -0.053  13.538  21.389  0.00  0.00    +0.000 C 
ATOM      3  C   UNL     1      -0.884  14.534  22.220  0.00  0.00    +0.000 C 
ATOM      4  C   UNL     1      -1.207  13.989  23.619  0.00  0.00    +0.000 C 
ATOM      5  C   UNL     1      -2.287  14.812  24.321  0.00  0.00    +0.000 C 
ATOM      6  C   UNL     1      -3.571  14.016  24.469  0.00  0.00    +0.000 C 
ATOM      7  O   UNL     1      -3.724  13.239  25.412  0.00  0.00    +0.000 OA
ATOM      8  C   UNL     1      -4.654  14.248  23.433  0.00  0.00    +0.000 C 
ATOM      9  C   UNL     1      -5.497  12.993  23.199  0.00  0.00    +0.000 C 
ATOM     10  C   UNL     1      -6.359  13.088  21.934  0.00  0.00    +0.000 C 
ATOM     11  C   UNL     1      -5.752  12.383  20.748  0.00  0.00    +0.000 C 
ATOM     12  C   UNL     1      -4.610  12.758  20.148  0.00  0.00    +0.000 C 
ATOM     13  C   UNL     1      -3.901  12.093  19.024  0.00  0.00    +0.000 A 
ATOM     14  C   UNL     1      -4.549  11.607  17.869  0.00  0.00    +0.000 A 
ATOM     15 CL   UNL     1      -6.274  11.619  17.662  0.00  0.00    +0.000 Cl
ATOM     16  C   UNL     1      -3.798  11.107  16.791  0.00  0.00    +0.000 A 
ATOM     17  C   UNL     1      -2.409  11.132  16.798  0.00  0.00    +0.000 A 
ATOM     18  C   UNL     1      -1.749  11.600  17.928  0.00  0.00    +0.000 A 
ATOM     19  C   UNL     1      -2.476  12.049  19.044  0.00  0.00    +0.000 A 
ATOM     20  C   UNL     1      -1.751  12.310  20.309  0.00  0.00    +0.000 C 
ATOM     21  O   UNL     1      -2.077  11.771  21.360  0.00  0.00    +0.000 OA
ATOM     22  O   UNL     1      -0.767  13.239  20.167  0.00  0.00    +0.000 OA
ENDROOT
BRANCH  16  23
ATOM     23  O   UNL     1      -4.391  10.573  15.677  0.00  0.00    +0.000 OA
ATOM     24  H   UNL     1      -3.682  10.386  15.031  0.00  0.00    +0.000 HD
ENDBRANCH  16  23
BRANCH  18  25
ATOM     25  O   UNL     1      -0.382  11.589  17.944  0.00  0.00    +0.000 OA
ATOM     26  H   UNL     1      -0.065  10.788  18.397  0.00  0.00    +0.000 HD
ENDBRANCH  18  25
TORSDOF 2
ENDMDL
MODEL 6
REMARK VINA RESULT:      -6.1     10.583     12.639
REMARK  Name = 
REMARK  3 active torsions:
REMARK  status: ('A' for Active; 'I' for Inactive)
REMARK    1  A    between atoms: C_1  and  C_2
REMARK    2  A    between atoms: C_16  and  O_17
REMARK    3  A    between atoms: C_19  and  O_20
REMARK                            x       y       z     vdW  Elec       q    Type
REMARK                         _______ _______ _______ _____ _____    ______ ____
ROOT
ATOM      1  C   UNL     1      11.272  11.712  18.100  0.00  0.00    +0.000 C 
ATOM      2  C   UNL     1      10.799  13.004  18.761  0.00  0.00    +0.000 C 
ATOM      3  C   UNL     1      10.317  14.032  17.719  0.00  0.00    +0.000 C 
ATOM      4  C   UNL     1      11.154  15.319  17.748  0.00  0.00    +0.000 C 
ATOM      5  C   UNL     1      10.494  16.451  16.962  0.00  0.00    +0.000 C 
ATOM      6  C   UNL     1      10.021  17.557  17.888  0.00  0.00    +0.000 C 
ATOM      7  O   UNL     1      10.797  18.436  18.265  0.00  0.00    +0.000 OA
ATOM      8  C   UNL     1       8.560  17.546  18.295  0.00  0.00    +0.000 C 
ATOM      9  C   UNL     1       8.350  18.138  19.689  0.00  0.00    +0.000 C 
ATOM     10  C   UNL     1       6.960  17.830  20.259  0.00  0.00    +0.000 C 
ATOM     11  C   UNL     1       6.957  16.668  21.219  0.00  0.00    +0.000 C 
ATOM     12  C   UNL     1       7.233  15.400  20.873  0.00  0.00    +0.000 C 
ATOM     13  C   UNL     1       7.320  14.204  21.752  0.00  0.00    +0.000 A 
ATOM     14  C   UNL     1       6.380  13.905  22.761  0.00  0.00    +0.000 A 
ATOM     15 CL   UNL     1       5.062  14.955  23.183  0.00  0.00    +0.000 Cl
ATOM     16  C   UNL     1       6.458  12.691  23.464  0.00  0.00    +0.000 A 
ATOM     17  C   UNL     1       7.409  11.729  23.153  0.00  0.00    +0.000 A 
ATOM     18  C   UNL     1       8.350  12.004  22.168  0.00  0.00    +0.000 A 
ATOM     19  C   UNL     1       8.333  13.235  21.490  0.00  0.00    +0.000 A 
ATOM     20  C   UNL     1       9.483  13.590  20.627  0.00  0.00    +0.000 C 
ATOM     21  O   UNL     1      10.107  14.632  20.783  0.00  0.00    +0.000 OA
ATOM     22  O   UNL     1       9.698  12.678  19.640  0.00  0.00    +0.000 OA
ENDROOT
BRANCH  16  23
ATOM     23  O   UNL     1       5.599  12.389  24.491  0.00  0.00    +0.000 OA
ATOM     24  H   UNL     1       4.694  12.583  24.178  0.00  0.00    +0.000 HD
ENDBRANCH  16  23
BRANCH  18  25
ATOM     25  O   UNL     1       9.306  11.067  21.890  0.00  0.00    +0.000 OA
ATOM     26  H   UNL     1       9.410  10.468  22.650  0.00  0.00    +0.000 HD
ENDBRANCH  18  25
TORSDOF 2
ENDMDL
MODEL 7
REMARK VINA RESULT:      -6.1      2.434      5.227
REMARK  Name = 
REMARK  3 active torsions:
REMARK  status: ('A' for Active; 'I' for Inactive)
REMARK    1  A    between atoms: C_1  and  C_2
REMARK    2  A    between atoms: C_16  and  O_17
REMARK    3  A    between atoms: C_19  and  O_20
REMARK                            x       y       z     vdW  Elec       q    Type
REMARK                         _______ _______ _______ _____ _____    ______ ____
ROOT
ATOM      1  C   UNL     1      -4.309  12.696  24.442  0.00  0.00    +0.000 C 
ATOM      2  C   UNL     1      -3.472  12.597  23.169  0.00  0.00    +0.000 C 
ATOM      3  C   UNL     1      -2.535  11.374  23.200  0.00  0.00    +0.000 C 
ATOM      4  C   UNL     1      -1.056  11.779  23.131  0.00  0.00    +0.000 C 
ATOM      5  C   UNL     1      -0.146  10.586  22.835  0.00  0.00    +0.000 C 
ATOM      6  C   UNL     1       0.471  10.698  21.453  0.00  0.00    +0.000 C 
ATOM      7  O   UNL     1       1.491  11.363  21.272  0.00  0.00    +0.000 OA
ATOM      8  C   UNL     1      -0.201   9.934  20.328  0.00  0.00    +0.000 C 
ATOM      9  C   UNL     1      -0.032  10.637  18.980  0.00  0.00    +0.000 C 
ATOM     10  C   UNL     1      -0.975  10.085  17.904  0.00  0.00    +0.000 C 
ATOM     11  C   UNL     1      -2.209  10.928  17.706  0.00  0.00    +0.000 C 
ATOM     12  C   UNL     1      -3.166  11.097  18.633  0.00  0.00    +0.000 C 
ATOM     13  C   UNL     1      -4.377  11.955  18.559  0.00  0.00    +0.000 A 
ATOM     14  C   UNL     1      -5.220  12.022  17.429  0.00  0.00    +0.000 A 
ATOM     15 CL   UNL     1      -4.888  11.196  15.937  0.00  0.00    +0.000 Cl
ATOM     16  C   UNL     1      -6.417  12.756  17.480  0.00  0.00    +0.000 A 
ATOM     17  C   UNL     1      -6.839  13.381  18.646  0.00  0.00    +0.000 A 
ATOM     18  C   UNL     1      -6.022  13.335  19.769  0.00  0.00    +0.000 A 
ATOM     19  C   UNL     1      -4.790  12.659  19.728  0.00  0.00    +0.000 A 
ATOM     20  C   UNL     1      -3.843  12.833  20.853  0.00  0.00    +0.000 C 
ATOM     21  O   UNL     1      -2.693  13.213  20.673  0.00  0.00    +0.000 OA
ATOM     22  O   UNL     1      -4.377  12.463  22.049  0.00  0.00    +0.000 OA
ENDROOT
BRANCH  16  23
ATOM     23  O   UNL     1      -7.234  12.892  16.387  0.00  0.00    +0.000 OA
ATOM     24  H   UNL     1      -8.156  12.848  16.706  0.00  0.00    +0.000 HD
ENDBRANCH  16  23
BRANCH  18  25
ATOM     25  O   UNL     1      -6.425  13.982  20.904  0.00  0.00    +0.000 OA
ATOM     26  H   UNL     1      -6.771  13.336  21.544  0.00  0.00    +0.000 HD
ENDBRANCH  18  25
TORSDOF 2
ENDMDL
MODEL 8
REMARK VINA RESULT:      -6.0      0.984      1.017
REMARK  Name = 
REMARK  3 active torsions:
REMARK  status: ('A' for Active; 'I' for Inactive)
REMARK    1  A    between atoms: C_1  and  C_2
REMARK    2  A    between atoms: C_16  and  O_17
REMARK    3  A    between atoms: C_19  and  O_20
REMARK                            x       y       z     vdW  Elec       q    Type
REMARK                         _______ _______ _______ _____ _____    ______ ____
ROOT
ATOM      1  C   UNL     1       0.643  12.258  21.200  0.00  0.00    +0.000 C 
ATOM      2  C   UNL     1      -0.675  12.388  20.442  0.00  0.00    +0.000 C 
ATOM      3  C   UNL     1      -0.993  11.114  19.635  0.00  0.00    +0.000 C 
ATOM      4  C   UNL     1      -1.074  11.393  18.127  0.00  0.00    +0.000 C 
ATOM      5  C   UNL     1      -1.699  10.228  17.360  0.00  0.00    +0.000 C 
ATOM      6  C   UNL     1      -3.060  10.608  16.803  0.00  0.00    +0.000 C 
ATOM      7  O   UNL     1      -3.156  11.205  15.730  0.00  0.00    +0.000 OA
ATOM      8  C   UNL     1      -4.279  10.193  17.604  0.00  0.00    +0.000 C 
ATOM      9  C   UNL     1      -5.438  11.176  17.431  0.00  0.00    +0.000 C 
ATOM     10  C   UNL     1      -6.542  10.977  18.477  0.00  0.00    +0.000 C 
ATOM     11  C   UNL     1      -6.452  11.948  19.627  0.00  0.00    +0.000 C 
ATOM     12  C   UNL     1      -5.444  11.978  20.514  0.00  0.00    +0.000 C 
ATOM     13  C   UNL     1      -5.233  12.932  21.634  0.00  0.00    +0.000 A 
ATOM     14  C   UNL     1      -6.253  13.336  22.521  0.00  0.00    +0.000 A 
ATOM     15 CL   UNL     1      -7.915  12.859  22.349  0.00  0.00    +0.000 Cl
ATOM     16  C   UNL     1      -5.949  14.140  23.632  0.00  0.00    +0.000 A 
ATOM     17  C   UNL     1      -4.644  14.507  23.930  0.00  0.00    +0.000 A 
ATOM     18  C   UNL     1      -3.623  14.127  23.068  0.00  0.00    +0.000 A 
ATOM     19  C   UNL     1      -3.906  13.374  21.915  0.00  0.00    +0.000 A 
ATOM     20  C   UNL     1      -2.842  13.195  20.901  0.00  0.00    +0.000 C 
ATOM     21  O   UNL     1      -3.013  13.503  19.728  0.00  0.00    +0.000 OA
ATOM     22  O   UNL     1      -1.728  12.602  21.410  0.00  0.00    +0.000 OA
ENDROOT
BRANCH  16  23
ATOM     23  O   UNL     1      -6.921  14.601  24.484  0.00  0.00    +0.000 OA
ATOM     24  H   UNL     1      -6.829  14.109  25.323  0.00  0.00    +0.000 HD
ENDBRANCH  16  23
BRANCH  18  25
ATOM     25  O   UNL     1      -2.343  14.522  23.346  0.00  0.00    +0.000 OA
ATOM     26  H   UNL     1      -1.799  14.461  22.541  0.00  0.00    +0.000 HD
ENDBRANCH  18  25
TORSDOF 2
ENDMDL
MODEL 9
REMARK VINA RESULT:      -5.9      2.586      6.938
REMARK  Name = 
REMARK  3 active torsions:
REMARK  status: ('A' for Active; 'I' for Inactive)
REMARK    1  A    between atoms: C_1  and  C_2
REMARK    2  A    between atoms: C_16  and  O_17
REMARK    3  A    between atoms: C_19  and  O_20
REMARK                            x       y       z     vdW  Elec       q    Type
REMARK                         _______ _______ _______ _____ _____    ______ ____
ROOT
ATOM      1  C   UNL     1      -7.545  11.668  19.816  0.00  0.00    +0.000 C 
ATOM      2  C   UNL     1      -6.389  12.521  20.332  0.00  0.00    +0.000 C 
ATOM      3  C   UNL     1      -6.435  12.672  21.865  0.00  0.00    +0.000 C 
ATOM      4  C   UNL     1      -6.596  14.137  22.295  0.00  0.00    +0.000 C 
ATOM      5  C   UNL     1      -6.319  14.331  23.786  0.00  0.00    +0.000 C 
ATOM      6  C   UNL     1      -5.045  15.127  24.006  0.00  0.00    +0.000 C 
ATOM      7  O   UNL     1      -5.058  16.358  23.974  0.00  0.00    +0.000 OA
ATOM      8  C   UNL     1      -3.779  14.343  24.297  0.00  0.00    +0.000 C 
ATOM      9  C   UNL     1      -2.531  15.061  23.779  0.00  0.00    +0.000 C 
ATOM     10  C   UNL     1      -1.297  14.152  23.750  0.00  0.00    +0.000 C 
ATOM     11  C   UNL     1      -1.013  13.581  22.383  0.00  0.00    +0.000 C 
ATOM     12  C   UNL     1      -1.819  12.717  21.743  0.00  0.00    +0.000 C 
ATOM     13  C   UNL     1      -1.661  12.153  20.377  0.00  0.00    +0.000 A 
ATOM     14  C   UNL     1      -0.441  11.656  19.872  0.00  0.00    +0.000 A 
ATOM     15 CL   UNL     1       1.062  11.744  20.740  0.00  0.00    +0.000 Cl
ATOM     16  C   UNL     1      -0.399  11.021  18.619  0.00  0.00    +0.000 A 
ATOM     17  C   UNL     1      -1.550  10.805  17.873  0.00  0.00    +0.000 A 
ATOM     18  C   UNL     1      -2.762  11.292  18.346  0.00  0.00    +0.000 A 
ATOM     19  C   UNL     1      -2.824  11.985  19.568  0.00  0.00    +0.000 A 
ATOM     20  C   UNL     1      -4.074  12.695  19.923  0.00  0.00    +0.000 C 
ATOM     21  O   UNL     1      -4.080  13.888  20.202  0.00  0.00    +0.000 OA
ATOM     22  O   UNL     1      -5.153  11.867  19.965  0.00  0.00    +0.000 OA
ENDROOT
BRANCH  16  23
ATOM     23  O   UNL     1       0.776  10.577  18.068  0.00  0.00    +0.000 OA
ATOM     24  H   UNL     1       0.659   9.629  17.860  0.00  0.00    +0.000 HD
ENDBRANCH  16  23
BRANCH  18  25
ATOM     25  O   UNL     1      -3.887  11.109  17.591  0.00  0.00    +0.000 OA
ATOM     26  H   UNL     1      -4.020  11.879  17.010  0.00  0.00    +0.000 HD
ENDBRANCH  18  25
TORSDOF 2
ENDMDL
