MODEL 1
REMARK VINA RESULT:      -7.4      0.000      0.000
REMARK  Name = 
REMARK  5 active torsions:
REMARK  status: ('A' for Active; 'I' for Inactive)
REMARK    1  A    between atoms: C_1  and  N_2
REMARK    2  A    between atoms: N_2  and  S_3
REMARK    3  A    between atoms: S_3  and  C_6
REMARK    4  A    between atoms: C_10  and  C_11
REMARK    5  A    between atoms: N_13  and  C_14
REMARK                            x       y       z     vdW  Elec       q    Type
REMARK                         _______ _______ _______ _____ _____    ______ ____
ROOT
ATOM      1  C   UNL     1       4.669   4.934  17.109  0.00  0.00    +0.000 A 
ATOM      2  C   UNL     1       3.828   3.820  17.034  0.00  0.00    +0.000 A 
ATOM      3  C   UNL     1       2.524   3.917  17.510  0.00  0.00    +0.000 A 
ATOM      4  C   UNL     1       2.077   5.120  18.058  0.00  0.00    +0.000 A 
ATOM      5  C   UNL     1       2.927   6.234  18.160  0.00  0.00    +0.000 A 
ATOM      6  C   UNL     1       4.241   6.135  17.695  0.00  0.00    +0.000 A 
ENDROOT
BRANCH   5   7
ATOM      7  C   UNL     1       2.332   7.495  18.690  0.00  0.00    +0.000 C 
ATOM      8  O   UNL     1       2.208   7.573  19.909  0.00  0.00    +0.000 OA
ATOM      9  N   UNL     1       1.947   8.463  17.775  0.00  0.00    +0.000 N 
ATOM     10  H   UNL     1       2.014   8.258  16.788  0.00  0.00    +0.000 HD
BRANCH   9  11
ATOM     11  C   UNL     1       1.409   9.732  18.109  0.00  0.00    +0.000 A 
ATOM     12  C   UNL     1       0.050   9.943  18.371  0.00  0.00    +0.000 A 
ATOM     13  C   UNL     1      -0.439  11.215  18.673  0.00  0.00    +0.000 A 
ATOM     14  C   UNL     1       0.428  12.301  18.716  0.00  0.00    +0.000 A 
ATOM     15  C   UNL     1       1.785  12.098  18.475  0.00  0.00    +0.000 A 
ATOM     16 CL   UNL     1       2.858  13.445  18.516  0.00  0.00    +0.000 Cl
ATOM     17  C   UNL     1       2.283  10.823  18.188  0.00  0.00    +0.000 A 
ENDBRANCH   9  11
ENDBRANCH   5   7
BRANCH   1  18
ATOM     18  S   UNL     1       6.319   4.827  16.462  0.00  0.00    +0.000 S 
ATOM     19  O   UNL     1       6.756   6.164  16.129  0.00  0.00    +0.000 OA
ATOM     20  O   UNL     1       6.353   3.749  15.502  0.00  0.00    +0.000 OA
BRANCH  18  22
ATOM     21  C   UNL     1       7.748   5.409  18.681  0.00  0.00    +0.000 C 
ATOM     22  N   UNL     1       7.194   4.371  17.821  0.00  0.00    +0.000 NA
ATOM     23  H   UNL     1       6.817   3.532  18.259  0.00  0.00    +0.000 HD
ENDBRANCH  18  22
ENDBRANCH   1  18
TORSDOF 4
ENDMDL
MODEL 2
REMARK VINA RESULT:      -7.3      2.382      2.670
REMARK  Name = 
REMARK  5 active torsions:
REMARK  status: ('A' for Active; 'I' for Inactive)
REMARK    1  A    between atoms: C_1  and  N_2
REMARK    2  A    between atoms: N_2  and  S_3
REMARK    3  A    between atoms: S_3  and  C_6
REMARK    4  A    between atoms: C_10  and  C_11
REMARK    5  A    between atoms: N_13  and  C_14
REMARK                            x       y       z     vdW  Elec       q    Type
REMARK                         _______ _______ _______ _____ _____    ______ ____
ROOT
ATOM      1  C   UNL     1       5.382   4.984  17.909  0.00  0.00    +0.000 A 
ATOM      2  C   UNL     1       4.810   3.975  17.128  0.00  0.00    +0.000 A 
ATOM      3  C   UNL     1       3.450   3.709  17.248  0.00  0.00    +0.000 A 
ATOM      4  C   UNL     1       2.679   4.446  18.146  0.00  0.00    +0.000 A 
ATOM      5  C   UNL     1       3.254   5.442  18.953  0.00  0.00    +0.000 A 
ATOM      6  C   UNL     1       4.622   5.703  18.845  0.00  0.00    +0.000 A 
ENDROOT
BRANCH   5   7
ATOM      7  C   UNL     1       2.331   6.225  19.826  0.00  0.00    +0.000 C 
ATOM      8  O   UNL     1       1.720   5.595  20.684  0.00  0.00    +0.000 OA
ATOM      9  N   UNL     1       2.218   7.587  19.589  0.00  0.00    +0.000 N 
ATOM     10  H   UNL     1       2.702   7.988  18.799  0.00  0.00    +0.000 HD
BRANCH   9  11
ATOM     11  C   UNL     1       1.425   8.483  20.351  0.00  0.00    +0.000 A 
ATOM     12  C   UNL     1       1.375   8.462  21.750  0.00  0.00    +0.000 A 
ATOM     13  C   UNL     1       0.562   9.347  22.458  0.00  0.00    +0.000 A 
ATOM     14  C   UNL     1      -0.220  10.271  21.774  0.00  0.00    +0.000 A 
ATOM     15  C   UNL     1      -0.164  10.313  20.382  0.00  0.00    +0.000 A 
ATOM     16 CL   UNL     1      -1.141  11.449  19.534  0.00  0.00    +0.000 Cl
ATOM     17  C   UNL     1       0.663   9.438  19.668  0.00  0.00    +0.000 A 
ENDBRANCH   9  11
ENDBRANCH   5   7
BRANCH   1  18
ATOM     18  S   UNL     1       7.108   5.358  17.726  0.00  0.00    +0.000 S 
ATOM     19  O   UNL     1       7.643   4.502  16.691  0.00  0.00    +0.000 OA
ATOM     20  O   UNL     1       7.693   5.421  19.045  0.00  0.00    +0.000 OA
BRANCH  18  22
ATOM     21  C   UNL     1       7.863   7.952  17.699  0.00  0.00    +0.000 C 
ATOM     22  N   UNL     1       7.059   6.906  17.079  0.00  0.00    +0.000 NA
ATOM     23  H   UNL     1       6.979   6.898  16.064  0.00  0.00    +0.000 HD
ENDBRANCH  18  22
ENDBRANCH   1  18
TORSDOF 4
ENDMDL
MODEL 3
REMARK VINA RESULT:      -7.3      5.332      6.742
REMARK  Name = 
REMARK  5 active torsions:
REMARK  status: ('A' for Active; 'I' for Inactive)
REMARK    1  A    between atoms: C_1  and  N_2
REMARK    2  A    between atoms: N_2  and  S_3
REMARK    3  A    between atoms: S_3  and  C_6
REMARK    4  A    between atoms: C_10  and  C_11
REMARK    5  A    between atoms: N_13  and  C_14
REMARK                            x       y       z     vdW  Elec       q    Type
REMARK                         _______ _______ _______ _____ _____    ______ ____
ROOT
ATOM      1  C   UNL     1       6.715   6.145  16.971  0.00  0.00    +0.000 A 
ATOM      2  C   UNL     1       7.098   5.197  17.924  0.00  0.00    +0.000 A 
ATOM      3  C   UNL     1       7.914   5.585  18.983  0.00  0.00    +0.000 A 
ATOM      4  C   UNL     1       8.342   6.910  19.075  0.00  0.00    +0.000 A 
ATOM      5  C   UNL     1       7.981   7.860  18.105  0.00  0.00    +0.000 A 
ATOM      6  C   UNL     1       7.172   7.471  17.034  0.00  0.00    +0.000 A 
ENDROOT
BRANCH   5   7
ATOM      7  C   UNL     1       8.425   9.266  18.335  0.00  0.00    +0.000 C 
ATOM      8  O   UNL     1       7.988  10.114  17.562  0.00  0.00    +0.000 OA
ATOM      9  N   UNL     1       9.308   9.502  19.378  0.00  0.00    +0.000 N 
ATOM     10  H   UNL     1       9.672   8.717  19.898  0.00  0.00    +0.000 HD
BRANCH   9  11
ATOM     11  C   UNL     1       9.793  10.779  19.762  0.00  0.00    +0.000 A 
ATOM     12  C   UNL     1      10.823  11.442  19.085  0.00  0.00    +0.000 A 
ATOM     13  C   UNL     1      11.284  12.688  19.512  0.00  0.00    +0.000 A 
ATOM     14  C   UNL     1      10.721  13.291  20.631  0.00  0.00    +0.000 A 
ATOM     15  C   UNL     1       9.683  12.648  21.301  0.00  0.00    +0.000 A 
ATOM     16 CL   UNL     1       8.992  13.390  22.694  0.00  0.00    +0.000 Cl
ATOM     17  C   UNL     1       9.205  11.407  20.867  0.00  0.00    +0.000 A 
ENDBRANCH   9  11
ENDBRANCH   5   7
BRANCH   1  18
ATOM     18  S   UNL     1       5.637   5.664  15.645  0.00  0.00    +0.000 S 
ATOM     19  O   UNL     1       5.033   6.861  15.104  0.00  0.00    +0.000 OA
ATOM     20  O   UNL     1       4.845   4.544  16.098  0.00  0.00    +0.000 OA
BRANCH  18  22
ATOM     21  C   UNL     1       6.379   3.966  13.679  0.00  0.00    +0.000 C 
ATOM     22  N   UNL     1       6.729   5.125  14.491  0.00  0.00    +0.000 NA
ATOM     23  H   UNL     1       7.230   5.892  14.044  0.00  0.00    +0.000 HD
ENDBRANCH  18  22
ENDBRANCH   1  18
TORSDOF 4
ENDMDL
MODEL 4
REMARK VINA RESULT:      -7.3      4.787      7.571
REMARK  Name = 
REMARK  5 active torsions:
REMARK  status: ('A' for Active; 'I' for Inactive)
REMARK    1  A    between atoms: C_1  and  N_2
REMARK    2  A    between atoms: N_2  and  S_3
REMARK    3  A    between atoms: S_3  and  C_6
REMARK    4  A    between atoms: C_10  and  C_11
REMARK    5  A    between atoms: N_13  and  C_14
REMARK                            x       y       z     vdW  Elec       q    Type
REMARK                         _______ _______ _______ _____ _____    ______ ____
ROOT
ATOM      1  C   UNL     1       3.440   4.279  19.361  0.00  0.00    +0.000 A 
ATOM      2  C   UNL     1       2.795   5.427  19.833  0.00  0.00    +0.000 A 
ATOM      3  C   UNL     1       2.891   6.610  19.106  0.00  0.00    +0.000 A 
ATOM      4  C   UNL     1       3.631   6.636  17.923  0.00  0.00    +0.000 A 
ATOM      5  C   UNL     1       4.302   5.491  17.459  0.00  0.00    +0.000 A 
ATOM      6  C   UNL     1       4.219   4.306  18.194  0.00  0.00    +0.000 A 
ENDROOT
BRANCH   5   7
ATOM      7  C   UNL     1       5.002   5.601  16.147  0.00  0.00    +0.000 C 
ATOM      8  O   UNL     1       5.167   6.735  15.706  0.00  0.00    +0.000 OA
ATOM      9  N   UNL     1       5.387   4.426  15.519  0.00  0.00    +0.000 N 
ATOM     10  H   UNL     1       5.123   3.542  15.931  0.00  0.00    +0.000 HD
BRANCH   9  11
ATOM     11  C   UNL     1       6.100   4.352  14.295  0.00  0.00    +0.000 A 
ATOM     12  C   UNL     1       7.145   5.222  13.963  0.00  0.00    +0.000 A 
ATOM     13  C   UNL     1       7.802   5.128  12.736  0.00  0.00    +0.000 A 
ATOM     14  C   UNL     1       7.421   4.157  11.816  0.00  0.00    +0.000 A 
ATOM     15  C   UNL     1       6.395   3.274  12.144  0.00  0.00    +0.000 A 
ATOM     16 CL   UNL     1       5.915   2.078  11.001  0.00  0.00    +0.000 Cl
ATOM     17  C   UNL     1       5.744   3.354  13.380  0.00  0.00    +0.000 A 
ENDBRANCH   9  11
ENDBRANCH   5   7
BRANCH   1  18
ATOM     18  S   UNL     1       3.282   2.757  20.261  0.00  0.00    +0.000 S 
ATOM     19  O   UNL     1       2.428   2.999  21.402  0.00  0.00    +0.000 OA
ATOM     20  O   UNL     1       4.600   2.182  20.400  0.00  0.00    +0.000 OA
BRANCH  18  22
ATOM     21  C   UNL     1       1.028   2.223  18.870  0.00  0.00    +0.000 C 
ATOM     22  N   UNL     1       2.389   1.817  19.195  0.00  0.00    +0.000 NA
ATOM     23  H   UNL     1       2.965   1.422  18.453  0.00  0.00    +0.000 HD
ENDBRANCH  18  22
ENDBRANCH   1  18
TORSDOF 4
ENDMDL
MODEL 5
REMARK VINA RESULT:      -7.2      2.227      2.416
REMARK  Name = 
REMARK  5 active torsions:
REMARK  status: ('A' for Active; 'I' for Inactive)
REMARK    1  A    between atoms: C_1  and  N_2
REMARK    2  A    between atoms: N_2  and  S_3
REMARK    3  A    between atoms: S_3  and  C_6
REMARK    4  A    between atoms: C_10  and  C_11
REMARK    5  A    between atoms: N_13  and  C_14
REMARK                            x       y       z     vdW  Elec       q    Type
REMARK                         _______ _______ _______ _____ _____    ______ ____
ROOT
ATOM      1  C   UNL     1       5.501   5.038  17.372  0.00  0.00    +0.000 A 
ATOM      2  C   UNL     1       4.955   3.884  16.802  0.00  0.00    +0.000 A 
ATOM      3  C   UNL     1       3.620   3.571  17.042  0.00  0.00    +0.000 A 
ATOM      4  C   UNL     1       2.850   4.407  17.851  0.00  0.00    +0.000 A 
ATOM      5  C   UNL     1       3.402   5.554  18.448  0.00  0.00    +0.000 A 
ATOM      6  C   UNL     1       4.745   5.864  18.219  0.00  0.00    +0.000 A 
ENDROOT
BRANCH   5   7
ATOM      7  C   UNL     1       2.477   6.422  19.232  0.00  0.00    +0.000 C 
ATOM      8  O   UNL     1       1.916   5.902  20.192  0.00  0.00    +0.000 OA
ATOM      9  N   UNL     1       2.304   7.731  18.807  0.00  0.00    +0.000 N 
ATOM     10  H   UNL     1       2.749   8.031  17.951  0.00  0.00    +0.000 HD
BRANCH   9  11
ATOM     11  C   UNL     1       1.500   8.701  19.460  0.00  0.00    +0.000 A 
ATOM     12  C   UNL     1       0.898   9.773  18.791  0.00  0.00    +0.000 A 
ATOM     13  C   UNL     1       0.134  10.716  19.479  0.00  0.00    +0.000 A 
ATOM     14  C   UNL     1      -0.038  10.603  20.854  0.00  0.00    +0.000 A 
ATOM     15  C   UNL     1       0.542   9.530  21.526  0.00  0.00    +0.000 A 
ATOM     16 CL   UNL     1       0.339   9.395  23.232  0.00  0.00    +0.000 Cl
ATOM     17  C   UNL     1       1.295   8.571  20.839  0.00  0.00    +0.000 A 
ENDBRANCH   9  11
ENDBRANCH   5   7
BRANCH   1  18
ATOM     18  S   UNL     1       7.190   5.465  17.031  0.00  0.00    +0.000 S 
ATOM     19  O   UNL     1       7.240   6.079  15.723  0.00  0.00    +0.000 OA
ATOM     20  O   UNL     1       8.016   4.331  17.376  0.00  0.00    +0.000 OA
BRANCH  18  22
ATOM     21  C   UNL     1       7.814   8.021  17.646  0.00  0.00    +0.000 C 
ATOM     22  N   UNL     1       7.466   6.695  18.140  0.00  0.00    +0.000 NA
ATOM     23  H   UNL     1       6.854   6.628  18.951  0.00  0.00    +0.000 HD
ENDBRANCH  18  22
ENDBRANCH   1  18
TORSDOF 4
ENDMDL
MODEL 6
REMARK VINA RESULT:      -7.2      1.651      2.017
REMARK  Name = 
REMARK  5 active torsions:
REMARK  status: ('A' for Active; 'I' for Inactive)
REMARK    1  A    between atoms: C_1  and  N_2
REMARK    2  A    between atoms: N_2  and  S_3
REMARK    3  A    between atoms: S_3  and  C_6
REMARK    4  A    between atoms: C_10  and  C_11
REMARK    5  A    between atoms: N_13  and  C_14
REMARK                            x       y       z     vdW  Elec       q    Type
REMARK                         _______ _______ _______ _____ _____    ______ ____
ROOT
ATOM      1  C   UNL     1       4.957   5.103  17.455  0.00  0.00    +0.000 A 
ATOM      2  C   UNL     1       4.169   3.979  17.186  0.00  0.00    +0.000 A 
ATOM      3  C   UNL     1       2.802   4.028  17.442  0.00  0.00    +0.000 A 
ATOM      4  C   UNL     1       2.239   5.192  17.966  0.00  0.00    +0.000 A 
ATOM      5  C   UNL     1       3.031   6.314  18.263  0.00  0.00    +0.000 A 
ATOM      6  C   UNL     1       4.406   6.264  18.020  0.00  0.00    +0.000 A 
ENDROOT
BRANCH   5   7
ATOM      7  C   UNL     1       2.323   7.534  18.749  0.00  0.00    +0.000 C 
ATOM      8  O   UNL     1       2.116   7.605  19.957  0.00  0.00    +0.000 OA
ATOM      9  N   UNL     1       1.935   8.474  17.806  0.00  0.00    +0.000 N 
ATOM     10  H   UNL     1       2.079   8.274  16.826  0.00  0.00    +0.000 HD
BRANCH   9  11
ATOM     11  C   UNL     1       1.296   9.707  18.099  0.00  0.00    +0.000 A 
ATOM     12  C   UNL     1       1.997  10.875  18.420  0.00  0.00    +0.000 A 
ATOM     13  C   UNL     1       1.326  12.060  18.725  0.00  0.00    +0.000 A 
ATOM     14  C   UNL     1      -0.064  12.094  18.715  0.00  0.00    +0.000 A 
ATOM     15  C   UNL     1      -0.770  10.941  18.379  0.00  0.00    +0.000 A 
ATOM     16 CL   UNL     1      -2.493  10.979  18.379  0.00  0.00    +0.000 Cl
ATOM     17  C   UNL     1      -0.102   9.755  18.056  0.00  0.00    +0.000 A 
ENDBRANCH   9  11
ENDBRANCH   5   7
BRANCH   1  18
ATOM     18  S   UNL     1       6.693   5.060  17.087  0.00  0.00    +0.000 S 
ATOM     19  O   UNL     1       6.877   4.276  15.887  0.00  0.00    +0.000 OA
ATOM     20  O   UNL     1       7.401   4.764  18.311  0.00  0.00    +0.000 OA
BRANCH  18  22
ATOM     21  C   UNL     1       7.691   7.518  17.605  0.00  0.00    +0.000 C 
ATOM     22  N   UNL     1       6.994   6.655  16.658  0.00  0.00    +0.000 NA
ATOM     23  H   UNL     1       7.209   6.755  15.667  0.00  0.00    +0.000 HD
ENDBRANCH  18  22
ENDBRANCH   1  18
TORSDOF 4
ENDMDL
MODEL 7
REMARK VINA RESULT:      -7.2      2.419      2.718
REMARK  Name = 
REMARK  5 active torsions:
REMARK  status: ('A' for Active; 'I' for Inactive)
REMARK    1  A    between atoms: C_1  and  N_2
REMARK    2  A    between atoms: N_2  and  S_3
REMARK    3  A    between atoms: S_3  and  C_6
REMARK    4  A    between atoms: C_10  and  C_11
REMARK    5  A    between atoms: N_13  and  C_14
REMARK                            x       y       z     vdW  Elec       q    Type
REMARK                         _______ _______ _______ _____ _____    ______ ____
ROOT
ATOM      1  C   UNL     1       5.435   5.171  17.306  0.00  0.00    +0.000 A 
ATOM      2  C   UNL     1       4.753   3.955  17.198  0.00  0.00    +0.000 A 
ATOM      3  C   UNL     1       3.380   3.921  17.423  0.00  0.00    +0.000 A 
ATOM      4  C   UNL     1       2.706   5.096  17.756  0.00  0.00    +0.000 A 
ATOM      5  C   UNL     1       3.391   6.316  17.891  0.00  0.00    +0.000 A 
ATOM      6  C   UNL     1       4.772   6.350  17.679  0.00  0.00    +0.000 A 
ENDROOT
BRANCH   5   7
ATOM      7  C   UNL     1       2.569   7.528  18.174  0.00  0.00    +0.000 C 
ATOM      8  O   UNL     1       2.283   8.235  17.213  0.00  0.00    +0.000 OA
ATOM      9  N   UNL     1       2.214   7.774  19.492  0.00  0.00    +0.000 N 
ATOM     10  H   UNL     1       2.578   7.172  20.218  0.00  0.00    +0.000 HD
BRANCH   9  11
ATOM     11  C   UNL     1       1.401   8.851  19.930  0.00  0.00    +0.000 A 
ATOM     12  C   UNL     1       1.097   9.956  19.126  0.00  0.00    +0.000 A 
ATOM     13  C   UNL     1       0.311  11.005  19.606  0.00  0.00    +0.000 A 
ATOM     14  C   UNL     1      -0.182  10.965  20.905  0.00  0.00    +0.000 A 
ATOM     15  C   UNL     1       0.099   9.861  21.707  0.00  0.00    +0.000 A 
ATOM     16 CL   UNL     1      -0.502   9.817  23.321  0.00  0.00    +0.000 Cl
ATOM     17  C   UNL     1       0.872   8.799  21.225  0.00  0.00    +0.000 A 
ENDBRANCH   9  11
ENDBRANCH   5   7
BRANCH   1  18
ATOM     18  S   UNL     1       7.178   5.226  16.975  0.00  0.00    +0.000 S 
ATOM     19  O   UNL     1       7.852   4.462  18.001  0.00  0.00    +0.000 OA
ATOM     20  O   UNL     1       7.533   6.595  16.683  0.00  0.00    +0.000 OA
BRANCH  18  22
ATOM     21  C   UNL     1       6.864   4.925  14.308  0.00  0.00    +0.000 C 
ATOM     22  N   UNL     1       7.291   4.323  15.565  0.00  0.00    +0.000 NA
ATOM     23  H   UNL     1       8.114   3.722  15.556  0.00  0.00    +0.000 HD
ENDBRANCH  18  22
ENDBRANCH   1  18
TORSDOF 4
ENDMDL
MODEL 8
REMARK VINA RESULT:      -7.1      2.216      2.420
REMARK  Name = 
REMARK  5 active torsions:
REMARK  status: ('A' for Active; 'I' for Inactive)
REMARK    1  A    between atoms: C_1  and  N_2
REMARK    2  A    between atoms: N_2  and  S_3
REMARK    3  A    between atoms: S_3  and  C_6
REMARK    4  A    between atoms: C_10  and  C_11
REMARK    5  A    between atoms: N_13  and  C_14
REMARK                            x       y       z     vdW  Elec       q    Type
REMARK                         _______ _______ _______ _____ _____    ______ ____
ROOT
ATOM      1  C   UNL     1       5.180   5.401  16.963  0.00  0.00    +0.000 A 
ATOM      2  C   UNL     1       4.520   4.169  16.911  0.00  0.00    +0.000 A 
ATOM      3  C   UNL     1       3.221   4.071  17.400  0.00  0.00    +0.000 A 
ATOM      4  C   UNL     1       2.599   5.197  17.939  0.00  0.00    +0.000 A 
ATOM      5  C   UNL     1       3.268   6.431  18.018  0.00  0.00    +0.000 A 
ATOM      6  C   UNL     1       4.577   6.529  17.539  0.00  0.00    +0.000 A 
ENDROOT
BRANCH   5   7
ATOM      7  C   UNL     1       2.491   7.592  18.540  0.00  0.00    +0.000 C 
ATOM      8  O   UNL     1       2.298   8.520  17.760  0.00  0.00    +0.000 OA
ATOM      9  N   UNL     1       2.070   7.545  19.861  0.00  0.00    +0.000 N 
ATOM     10  H   UNL     1       2.359   6.770  20.440  0.00  0.00    +0.000 HD
BRANCH   9  11
ATOM     11  C   UNL     1       1.285   8.539  20.501  0.00  0.00    +0.000 A 
ATOM     12  C   UNL     1       1.204   8.672  21.892  0.00  0.00    +0.000 A 
ATOM     13  C   UNL     1       0.401   9.650  22.480  0.00  0.00    +0.000 A 
ATOM     14  C   UNL     1      -0.340  10.513  21.680  0.00  0.00    +0.000 A 
ATOM     15  C   UNL     1      -0.252  10.401  20.294  0.00  0.00    +0.000 A 
ATOM     16 CL   UNL     1      -1.178  11.463  19.303  0.00  0.00    +0.000 Cl
ATOM     17  C   UNL     1       0.566   9.433  19.700  0.00  0.00    +0.000 A 
ENDBRANCH   9  11
ENDBRANCH   5   7
BRANCH   1  18
ATOM     18  S   UNL     1       6.820   5.541  16.298  0.00  0.00    +0.000 S 
ATOM     19  O   UNL     1       6.713   5.636  14.859  0.00  0.00    +0.000 OA
ATOM     20  O   UNL     1       7.648   4.546  16.939  0.00  0.00    +0.000 OA
BRANCH  18  22
ATOM     21  C   UNL     1       7.940   7.178  18.133  0.00  0.00    +0.000 C 
ATOM     22  N   UNL     1       7.283   7.062  16.837  0.00  0.00    +0.000 NA
ATOM     23  H   UNL     1       7.605   7.660  16.078  0.00  0.00    +0.000 HD
ENDBRANCH  18  22
ENDBRANCH   1  18
TORSDOF 4
ENDMDL
MODEL 9
REMARK VINA RESULT:      -7.1      2.088      2.339
REMARK  Name = 
REMARK  5 active torsions:
REMARK  status: ('A' for Active; 'I' for Inactive)
REMARK    1  A    between atoms: C_1  and  N_2
REMARK    2  A    between atoms: N_2  and  S_3
REMARK    3  A    between atoms: S_3  and  C_6
REMARK    4  A    between atoms: C_10  and  C_11
REMARK    5  A    between atoms: N_13  and  C_14
REMARK                            x       y       z     vdW  Elec       q    Type
REMARK                         _______ _______ _______ _____ _____    ______ ____
ROOT
ATOM      1  C   UNL     1       4.964   5.365  17.217  0.00  0.00    +0.000 A 
ATOM      2  C   UNL     1       4.444   4.169  16.713  0.00  0.00    +0.000 A 
ATOM      3  C   UNL     1       3.219   3.707  17.185  0.00  0.00    +0.000 A 
ATOM      4  C   UNL     1       2.532   4.439  18.154  0.00  0.00    +0.000 A 
ATOM      5  C   UNL     1       3.064   5.627  18.682  0.00  0.00    +0.000 A 
ATOM      6  C   UNL     1       4.300   6.087  18.220  0.00  0.00    +0.000 A 
ENDROOT
BRANCH   5   7
ATOM      7  C   UNL     1       2.218   6.375  19.657  0.00  0.00    +0.000 C 
ATOM      8  O   UNL     1       1.691   5.714  20.547  0.00  0.00    +0.000 OA
ATOM      9  N   UNL     1       2.073   7.742  19.473  0.00  0.00    +0.000 N 
ATOM     10  H   UNL     1       2.481   8.171  18.655  0.00  0.00    +0.000 HD
BRANCH   9  11
ATOM     11  C   UNL     1       1.345   8.607  20.329  0.00  0.00    +0.000 A 
ATOM     12  C   UNL     1       1.367   8.500  21.725  0.00  0.00    +0.000 A 
ATOM     13  C   UNL     1       0.616   9.359  22.528  0.00  0.00    +0.000 A 
ATOM     14  C   UNL     1      -0.175  10.342  21.944  0.00  0.00    +0.000 A 
ATOM     15  C   UNL     1      -0.190  10.469  20.557  0.00  0.00    +0.000 A 
ATOM     16 CL   UNL     1      -1.179  11.679  19.833  0.00  0.00    +0.000 Cl
ATOM     17  C   UNL     1       0.575   9.621  19.748  0.00  0.00    +0.000 A 
ENDBRANCH   9  11
ENDBRANCH   5   7
BRANCH   1  18
ATOM     18  S   UNL     1       6.505   5.981  16.584  0.00  0.00    +0.000 S 
ATOM     19  O   UNL     1       6.606   7.379  16.937  0.00  0.00    +0.000 OA
ATOM     20  O   UNL     1       6.643   5.523  15.221  0.00  0.00    +0.000 OA
BRANCH  18  22
ATOM     21  C   UNL     1       7.853   5.647  18.902  0.00  0.00    +0.000 C 
ATOM     22  N   UNL     1       7.620   5.172  17.544  0.00  0.00    +0.000 NA
ATOM     23  H   UNL     1       7.615   4.167  17.379  0.00  0.00    +0.000 HD
ENDBRANCH  18  22
ENDBRANCH   1  18
TORSDOF 4
ENDMDL
