MODEL 1
REMARK VINA RESULT:      -8.8      0.000      0.000
REMARK  Name = 
REMARK  5 active torsions:
REMARK  status: ('A' for Active; 'I' for Inactive)
REMARK    1  A    between atoms: C_2  and  C_3
REMARK    2  A    between atoms: C_7  and  N_8
REMARK    3  A    between atoms: N_8  and  C_9
REMARK    4  A    between atoms: C_13  and  C_14
REMARK    5  A    between atoms: C_14  and  O_16
REMARK                            x       y       z     vdW  Elec       q    Type
REMARK                         _______ _______ _______ _____ _____    ______ ____
ROOT
ATOM      1  C   UNL     1       2.595   5.859  19.932  0.00  0.00    +0.000 A 
ATOM      2  N   UNL     1       3.708   6.234  19.247  0.00  0.00    +0.000 NA
ATOM      3  C   UNL     1       4.245   5.482  18.295  0.00  0.00    +0.000 A 
ATOM      4  C   UNL     1       5.340   5.990  17.618  0.00  0.00    +0.000 A 
ATOM      5  C   UNL     1       5.970   5.261  16.604  0.00  0.00    +0.000 A 
ATOM      6  C   UNL     1       5.465   4.008  16.240  0.00  0.00    +0.000 A 
ATOM      7  C   UNL     1       4.356   3.485  16.904  0.00  0.00    +0.000 A 
ATOM      8  C   UNL     1       3.743   4.226  17.940  0.00  0.00    +0.000 A 
ATOM      9  C   UNL     1       2.597   3.791  18.665  0.00  0.00    +0.000 A 
ATOM     10  S   UNL     1       1.723   2.307  18.480  0.00  0.00    +0.000 S 
ATOM     11  C   UNL     1       0.593   2.720  19.679  0.00  0.00    +0.000 A 
ATOM     12  C   UNL     1       0.862   3.946  20.235  0.00  0.00    +0.000 A 
ATOM     13  C   UNL     1       2.019   4.591  19.663  0.00  0.00    +0.000 A 
ENDROOT
BRANCH   1  14
ATOM     14  N   UNL     1       2.066   6.762  20.873  0.00  0.00    +0.000 N 
ATOM     15  H   UNL     1       1.632   6.323  21.673  0.00  0.00    +0.000 HD
BRANCH  14  20
ATOM     16  C   UNL     1       0.155   9.956  21.189  0.00  0.00    +0.000 A 
ATOM     17  C   UNL     1       0.272  10.463  19.898  0.00  0.00    +0.000 A 
ATOM     18  C   UNL     1       1.000   9.754  18.940  0.00  0.00    +0.000 A 
ATOM     19  C   UNL     1       1.606   8.537  19.273  0.00  0.00    +0.000 A 
ATOM     20  C   UNL     1       1.479   8.009  20.562  0.00  0.00    +0.000 A 
ATOM     21  C   UNL     1       0.763   8.744  21.516  0.00  0.00    +0.000 A 
BRANCH  16  23
ATOM     22  C   UNL     1      -1.261  11.170  23.041  0.00  0.00    +0.000 C 
ATOM     23  C   UNL     1      -0.604  10.644  22.186  0.00  0.00    +0.000 C 
ENDBRANCH  16  23
ENDBRANCH  14  20
ENDBRANCH   1  14
BRANCH   5  24
ATOM     24  C   UNL     1       7.132   5.804  15.856  0.00  0.00    +0.000 C 
ATOM     25  O   UNL     1       7.534   5.303  14.820  0.00  0.00    +0.000 OA
BRANCH  24  26
ATOM     26  O   UNL     1       7.725   6.869  16.435  0.00  0.00    +0.000 OA
ATOM     27  H   UNL     1       7.135   7.593  16.713  0.00  0.00    +0.000 HD
ENDBRANCH  24  26
ENDBRANCH   5  24
TORSDOF 5
ENDMDL
MODEL 2
REMARK VINA RESULT:      -8.3      2.974      7.212
REMARK  Name = 
REMARK  5 active torsions:
REMARK  status: ('A' for Active; 'I' for Inactive)
REMARK    1  A    between atoms: C_2  and  C_3
REMARK    2  A    between atoms: C_7  and  N_8
REMARK    3  A    between atoms: N_8  and  C_9
REMARK    4  A    between atoms: C_13  and  C_14
REMARK    5  A    between atoms: C_14  and  O_16
REMARK                            x       y       z     vdW  Elec       q    Type
REMARK                         _______ _______ _______ _____ _____    ______ ____
ROOT
ATOM      1  C   UNL     1       4.381   4.383  18.130  0.00  0.00    +0.000 A 
ATOM      2  N   UNL     1       4.035   5.622  17.690  0.00  0.00    +0.000 NA
ATOM      3  C   UNL     1       3.187   6.400  18.351  0.00  0.00    +0.000 A 
ATOM      4  C   UNL     1       2.955   7.668  17.847  0.00  0.00    +0.000 A 
ATOM      5  C   UNL     1       2.072   8.550  18.479  0.00  0.00    +0.000 A 
ATOM      6  C   UNL     1       1.437   8.161  19.663  0.00  0.00    +0.000 A 
ATOM      7  C   UNL     1       1.667   6.891  20.191  0.00  0.00    +0.000 A 
ATOM      8  C   UNL     1       2.547   6.004  19.530  0.00  0.00    +0.000 A 
ATOM      9  C   UNL     1       2.864   4.696  19.995  0.00  0.00    +0.000 A 
ATOM     10  S   UNL     1       2.264   3.898  21.411  0.00  0.00    +0.000 S 
ATOM     11  C   UNL     1       3.196   2.506  21.129  0.00  0.00    +0.000 A 
ATOM     12  C   UNL     1       3.944   2.614  19.982  0.00  0.00    +0.000 A 
ATOM     13  C   UNL     1       3.771   3.877  19.305  0.00  0.00    +0.000 A 
ENDROOT
BRANCH   1  14
ATOM     14  N   UNL     1       5.342   3.668  17.390  0.00  0.00    +0.000 N 
ATOM     15  H   UNL     1       6.041   3.204  17.954  0.00  0.00    +0.000 HD
BRANCH  14  20
ATOM     16  C   UNL     1       5.734   4.004  13.690  0.00  0.00    +0.000 A 
ATOM     17  C   UNL     1       6.892   4.772  13.615  0.00  0.00    +0.000 A 
ATOM     18  C   UNL     1       7.521   5.191  14.790  0.00  0.00    +0.000 A 
ATOM     19  C   UNL     1       6.994   4.836  16.038  0.00  0.00    +0.000 A 
ATOM     20  C   UNL     1       5.842   4.048  16.124  0.00  0.00    +0.000 A 
ATOM     21  C   UNL     1       5.211   3.655  14.936  0.00  0.00    +0.000 A 
BRANCH  16  23
ATOM     22  C   UNL     1       4.507   3.200  11.509  0.00  0.00    +0.000 C 
ATOM     23  C   UNL     1       5.080   3.538  12.508  0.00  0.00    +0.000 C 
ENDBRANCH  16  23
ENDBRANCH  14  20
ENDBRANCH   1  14
BRANCH   5  24
ATOM     24  C   UNL     1       1.831   9.921  17.959  0.00  0.00    +0.000 C 
ATOM     25  O   UNL     1       2.736  10.639  17.568  0.00  0.00    +0.000 OA
BRANCH  24  26
ATOM     26  O   UNL     1       0.541  10.316  17.992  0.00  0.00    +0.000 OA
ATOM     27  H   UNL     1       0.108  10.305  18.864  0.00  0.00    +0.000 HD
ENDBRANCH  24  26
ENDBRANCH   5  24
TORSDOF 5
ENDMDL
MODEL 3
REMARK VINA RESULT:      -8.1      2.913      7.322
REMARK  Name = 
REMARK  5 active torsions:
REMARK  status: ('A' for Active; 'I' for Inactive)
REMARK    1  A    between atoms: C_2  and  C_3
REMARK    2  A    between atoms: C_7  and  N_8
REMARK    3  A    between atoms: N_8  and  C_9
REMARK    4  A    between atoms: C_13  and  C_14
REMARK    5  A    between atoms: C_14  and  O_16
REMARK                            x       y       z     vdW  Elec       q    Type
REMARK                         _______ _______ _______ _____ _____    ______ ____
ROOT
ATOM      1  C   UNL     1       3.349   4.422  17.985  0.00  0.00    +0.000 A 
ATOM      2  N   UNL     1       3.031   5.708  17.677  0.00  0.00    +0.000 NA
ATOM      3  C   UNL     1       2.484   6.536  18.557  0.00  0.00    +0.000 A 
ATOM      4  C   UNL     1       2.262   7.842  18.157  0.00  0.00    +0.000 A 
ATOM      5  C   UNL     1       1.684   8.779  19.021  0.00  0.00    +0.000 A 
ATOM      6  C   UNL     1       1.356   8.401  20.328  0.00  0.00    +0.000 A 
ATOM      7  C   UNL     1       1.583   7.092  20.752  0.00  0.00    +0.000 A 
ATOM      8  C   UNL     1       2.149   6.153  19.860  0.00  0.00    +0.000 A 
ATOM      9  C   UNL     1       2.437   4.800  20.200  0.00  0.00    +0.000 A 
ATOM     10  S   UNL     1       2.162   4.003  21.713  0.00  0.00    +0.000 S 
ATOM     11  C   UNL     1       2.827   2.540  21.164  0.00  0.00    +0.000 A 
ATOM     12  C   UNL     1       3.242   2.624  19.858  0.00  0.00    +0.000 A 
ATOM     13  C   UNL     1       3.030   3.927  19.274  0.00  0.00    +0.000 A 
ENDROOT
BRANCH   1  14
ATOM     14  N   UNL     1       3.990   3.649  16.999  0.00  0.00    +0.000 N 
ATOM     15  H   UNL     1       4.013   2.658  17.197  0.00  0.00    +0.000 HD
BRANCH  14  20
ATOM     16  C   UNL     1       6.348   4.115  14.139  0.00  0.00    +0.000 A 
ATOM     17  C   UNL     1       7.349   4.870  14.742  0.00  0.00    +0.000 A 
ATOM     18  C   UNL     1       7.225   5.238  16.084  0.00  0.00    +0.000 A 
ATOM     19  C   UNL     1       6.102   4.845  16.822  0.00  0.00    +0.000 A 
ATOM     20  C   UNL     1       5.100   4.069  16.231  0.00  0.00    +0.000 A 
ATOM     21  C   UNL     1       5.230   3.727  14.878  0.00  0.00    +0.000 A 
BRANCH  16  23
ATOM     22  C   UNL     1       6.605   3.361  11.634  0.00  0.00    +0.000 C 
ATOM     23  C   UNL     1       6.457   3.700  12.775  0.00  0.00    +0.000 C 
ENDBRANCH  16  23
ENDBRANCH  14  20
ENDBRANCH   1  14
BRANCH   5  24
ATOM     24  C   UNL     1       1.460  10.188  18.610  0.00  0.00    +0.000 C 
ATOM     25  O   UNL     1       0.780  10.959  19.265  0.00  0.00    +0.000 OA
BRANCH  24  26
ATOM     26  O   UNL     1       2.039  10.531  17.440  0.00  0.00    +0.000 OA
ATOM     27  H   UNL     1       2.213  11.479  17.306  0.00  0.00    +0.000 HD
ENDBRANCH  24  26
ENDBRANCH   5  24
TORSDOF 5
ENDMDL
MODEL 4
REMARK VINA RESULT:      -8.1      1.996      3.012
REMARK  Name = 
REMARK  5 active torsions:
REMARK  status: ('A' for Active; 'I' for Inactive)
REMARK    1  A    between atoms: C_2  and  C_3
REMARK    2  A    between atoms: C_7  and  N_8
REMARK    3  A    between atoms: N_8  and  C_9
REMARK    4  A    between atoms: C_13  and  C_14
REMARK    5  A    between atoms: C_14  and  O_16
REMARK                            x       y       z     vdW  Elec       q    Type
REMARK                         _______ _______ _______ _____ _____    ______ ____
ROOT
ATOM      1  C   UNL     1       3.068   7.851  18.162  0.00  0.00    +0.000 A 
ATOM      2  N   UNL     1       3.948   7.556  17.168  0.00  0.00    +0.000 NA
ATOM      3  C   UNL     1       4.386   6.323  16.949  0.00  0.00    +0.000 A 
ATOM      4  C   UNL     1       5.230   6.125  15.870  0.00  0.00    +0.000 A 
ATOM      5  C   UNL     1       5.742   4.858  15.571  0.00  0.00    +0.000 A 
ATOM      6  C   UNL     1       5.368   3.760  16.353  0.00  0.00    +0.000 A 
ATOM      7  C   UNL     1       4.510   3.939  17.438  0.00  0.00    +0.000 A 
ATOM      8  C   UNL     1       4.017   5.229  17.739  0.00  0.00    +0.000 A 
ATOM      9  C   UNL     1       3.124   5.515  18.811  0.00  0.00    +0.000 A 
ATOM     10  S   UNL     1       2.465   4.407  19.968  0.00  0.00    +0.000 S 
ATOM     11  C   UNL     1       1.555   5.616  20.740  0.00  0.00    +0.000 A 
ATOM     12  C   UNL     1       1.743   6.847  20.159  0.00  0.00    +0.000 A 
ATOM     13  C   UNL     1       2.648   6.816  19.035  0.00  0.00    +0.000 A 
ENDROOT
BRANCH   1  14
ATOM     14  N   UNL     1       2.613   9.179  18.265  0.00  0.00    +0.000 N 
ATOM     15  H   UNL     1       3.290   9.823  18.650  0.00  0.00    +0.000 HD
BRANCH  14  20
ATOM     16  C   UNL     1      -1.028   9.917  17.869  0.00  0.00    +0.000 A 
ATOM     17  C   UNL     1      -1.342  10.386  19.141  0.00  0.00    +0.000 A 
ATOM     18  C   UNL     1      -0.352  10.434  20.125  0.00  0.00    +0.000 A 
ATOM     19  C   UNL     1       0.952  10.017  19.834  0.00  0.00    +0.000 A 
ATOM     20  C   UNL     1       1.284   9.562  18.553  0.00  0.00    +0.000 A 
ATOM     21  C   UNL     1       0.273   9.500  17.585  0.00  0.00    +0.000 A 
BRANCH  16  23
ATOM     22  C   UNL     1      -2.794   9.848  15.923  0.00  0.00    +0.000 C 
ATOM     23  C   UNL     1      -2.012   9.880  16.832  0.00  0.00    +0.000 C 
ENDBRANCH  16  23
ENDBRANCH  14  20
ENDBRANCH   1  14
BRANCH   5  24
ATOM     24  C   UNL     1       6.631   4.629  14.403  0.00  0.00    +0.000 C 
ATOM     25  O   UNL     1       7.553   5.378  14.128  0.00  0.00    +0.000 OA
BRANCH  24  26
ATOM     26  O   UNL     1       6.311   3.552  13.655  0.00  0.00    +0.000 OA
ATOM     27  H   UNL     1       6.991   3.244  13.031  0.00  0.00    +0.000 HD
ENDBRANCH  24  26
ENDBRANCH   5  24
TORSDOF 5
ENDMDL
MODEL 5
REMARK VINA RESULT:      -8.0      0.695      1.909
REMARK  Name = 
REMARK  5 active torsions:
REMARK  status: ('A' for Active; 'I' for Inactive)
REMARK    1  A    between atoms: C_2  and  C_3
REMARK    2  A    between atoms: C_7  and  N_8
REMARK    3  A    between atoms: N_8  and  C_9
REMARK    4  A    between atoms: C_13  and  C_14
REMARK    5  A    between atoms: C_14  and  O_16
REMARK                            x       y       z     vdW  Elec       q    Type
REMARK                         _______ _______ _______ _____ _____    ______ ____
ROOT
ATOM      1  C   UNL     1       2.511   5.738  20.073  0.00  0.00    +0.000 A 
ATOM      2  N   UNL     1       3.640   6.165  19.446  0.00  0.00    +0.000 NA
ATOM      3  C   UNL     1       4.208   5.482  18.461  0.00  0.00    +0.000 A 
ATOM      4  C   UNL     1       5.317   6.041  17.850  0.00  0.00    +0.000 A 
ATOM      5  C   UNL     1       5.980   5.386  16.807  0.00  0.00    +0.000 A 
ATOM      6  C   UNL     1       5.494   4.158  16.344  0.00  0.00    +0.000 A 
ATOM      7  C   UNL     1       4.371   3.585  16.940  0.00  0.00    +0.000 A 
ATOM      8  C   UNL     1       3.725   4.250  18.007  0.00  0.00    +0.000 A 
ATOM      9  C   UNL     1       2.563   3.760  18.670  0.00  0.00    +0.000 A 
ATOM     10  S   UNL     1       1.705   2.288  18.360  0.00  0.00    +0.000 S 
ATOM     11  C   UNL     1       0.540   2.612  19.552  0.00  0.00    +0.000 A 
ATOM     12  C   UNL     1       0.784   3.799  20.197  0.00  0.00    +0.000 A 
ATOM     13  C   UNL     1       1.952   4.488  19.702  0.00  0.00    +0.000 A 
ENDROOT
BRANCH   1  14
ATOM     14  N   UNL     1       1.950   6.571  21.058  0.00  0.00    +0.000 N 
ATOM     15  H   UNL     1       1.540   6.077  21.838  0.00  0.00    +0.000 HD
BRANCH  14  20
ATOM     16  C   UNL     1       1.142   9.916  19.603  0.00  0.00    +0.000 A 
ATOM     17  C   UNL     1       0.045  10.283  20.375  0.00  0.00    +0.000 A 
ATOM     18  C   UNL     1      -0.433   9.410  21.356  0.00  0.00    +0.000 A 
ATOM     19  C   UNL     1       0.192   8.176  21.567  0.00  0.00    +0.000 A 
ATOM     20  C   UNL     1       1.308   7.806  20.809  0.00  0.00    +0.000 A 
ATOM     21  C   UNL     1       1.760   8.683  19.815  0.00  0.00    +0.000 A 
BRANCH  16  23
ATOM     22  C   UNL     1       2.144  11.564  17.816  0.00  0.00    +0.000 C 
ATOM     23  C   UNL     1       1.672  10.796  18.608  0.00  0.00    +0.000 C 
ENDBRANCH  16  23
ENDBRANCH  14  20
ENDBRANCH   1  14
BRANCH   5  24
ATOM     24  C   UNL     1       7.158   5.985  16.130  0.00  0.00    +0.000 C 
ATOM     25  O   UNL     1       7.727   6.973  16.562  0.00  0.00    +0.000 OA
BRANCH  24  26
ATOM     26  O   UNL     1       7.520   5.372  14.983  0.00  0.00    +0.000 OA
ATOM     27  H   UNL     1       6.956   4.633  14.693  0.00  0.00    +0.000 HD
ENDBRANCH  24  26
ENDBRANCH   5  24
TORSDOF 5
ENDMDL
MODEL 6
REMARK VINA RESULT:      -7.7      1.711      2.199
REMARK  Name = 
REMARK  5 active torsions:
REMARK  status: ('A' for Active; 'I' for Inactive)
REMARK    1  A    between atoms: C_2  and  C_3
REMARK    2  A    between atoms: C_7  and  N_8
REMARK    3  A    between atoms: N_8  and  C_9
REMARK    4  A    between atoms: C_13  and  C_14
REMARK    5  A    between atoms: C_14  and  O_16
REMARK                            x       y       z     vdW  Elec       q    Type
REMARK                         _______ _______ _______ _____ _____    ______ ____
ROOT
ATOM      1  C   UNL     1       3.168   7.739  18.107  0.00  0.00    +0.000 A 
ATOM      2  N   UNL     1       4.019   7.449  17.087  0.00  0.00    +0.000 NA
ATOM      3  C   UNL     1       4.433   6.215  16.835  0.00  0.00    +0.000 A 
ATOM      4  C   UNL     1       5.248   6.024  15.732  0.00  0.00    +0.000 A 
ATOM      5  C   UNL     1       5.733   4.755  15.398  0.00  0.00    +0.000 A 
ATOM      6  C   UNL     1       5.362   3.649  16.169  0.00  0.00    +0.000 A 
ATOM      7  C   UNL     1       4.533   3.820  17.278  0.00  0.00    +0.000 A 
ATOM      8  C   UNL     1       4.067   5.112  17.614  0.00  0.00    +0.000 A 
ATOM      9  C   UNL     1       3.203   5.390  18.712  0.00  0.00    +0.000 A 
ATOM     10  S   UNL     1       2.555   4.271  19.864  0.00  0.00    +0.000 S 
ATOM     11  C   UNL     1       1.682   5.479  20.679  0.00  0.00    +0.000 A 
ATOM     12  C   UNL     1       1.875   6.717  20.117  0.00  0.00    +0.000 A 
ATOM     13  C   UNL     1       2.752   6.694  18.971  0.00  0.00    +0.000 A 
ENDROOT
BRANCH   1  14
ATOM     14  N   UNL     1       2.735   9.071  18.245  0.00  0.00    +0.000 N 
ATOM     15  H   UNL     1       3.437   9.702  18.605  0.00  0.00    +0.000 HD
BRANCH  14  20
ATOM     16  C   UNL     1      -0.211  10.166  20.264  0.00  0.00    +0.000 A 
ATOM     17  C   UNL     1      -1.203  10.199  19.288  0.00  0.00    +0.000 A 
ATOM     18  C   UNL     1      -0.884   9.881  17.966  0.00  0.00    +0.000 A 
ATOM     19  C   UNL     1       0.426   9.524  17.623  0.00  0.00    +0.000 A 
ATOM     20  C   UNL     1       1.426   9.468  18.600  0.00  0.00    +0.000 A 
ATOM     21  C   UNL     1       1.093   9.812  19.917  0.00  0.00    +0.000 A 
BRANCH  16  23
ATOM     22  C   UNL     1      -0.755  10.653  22.789  0.00  0.00    +0.000 C 
ATOM     23  C   UNL     1      -0.510  10.462  21.630  0.00  0.00    +0.000 C 
ENDBRANCH  16  23
ENDBRANCH  14  20
ENDBRANCH   1  14
BRANCH   5  24
ATOM     24  C   UNL     1       6.591   4.536  14.205  0.00  0.00    +0.000 C 
ATOM     25  O   UNL     1       7.410   5.357  13.830  0.00  0.00    +0.000 OA
BRANCH  24  26
ATOM     26  O   UNL     1       6.362   3.376  13.554  0.00  0.00    +0.000 OA
ATOM     27  H   UNL     1       6.606   2.561  14.027  0.00  0.00    +0.000 HD
ENDBRANCH  24  26
ENDBRANCH   5  24
TORSDOF 5
ENDMDL
MODEL 7
REMARK VINA RESULT:      -7.6      4.015      6.123
REMARK  Name = 
REMARK  5 active torsions:
REMARK  status: ('A' for Active; 'I' for Inactive)
REMARK    1  A    between atoms: C_2  and  C_3
REMARK    2  A    between atoms: C_7  and  N_8
REMARK    3  A    between atoms: N_8  and  C_9
REMARK    4  A    between atoms: C_13  and  C_14
REMARK    5  A    between atoms: C_14  and  O_16
REMARK                            x       y       z     vdW  Elec       q    Type
REMARK                         _______ _______ _______ _____ _____    ______ ____
ROOT
ATOM      1  C   UNL     1      -0.025  10.588  18.930  0.00  0.00    +0.000 A 
ATOM      2  N   UNL     1       0.775   9.759  18.208  0.00  0.00    +0.000 NA
ATOM      3  C   UNL     1       1.428   8.744  18.759  0.00  0.00    +0.000 A 
ATOM      4  C   UNL     1       2.164   7.924  17.920  0.00  0.00    +0.000 A 
ATOM      5  C   UNL     1       2.886   6.835  18.418  0.00  0.00    +0.000 A 
ATOM      6  C   UNL     1       2.839   6.543  19.786  0.00  0.00    +0.000 A 
ATOM      7  C   UNL     1       2.094   7.352  20.644  0.00  0.00    +0.000 A 
ATOM      8  C   UNL     1       1.386   8.460  20.128  0.00  0.00    +0.000 A 
ATOM      9  C   UNL     1       0.583   9.335  20.915  0.00  0.00    +0.000 A 
ATOM     10  S   UNL     1       0.304   9.271  22.623  0.00  0.00    +0.000 S 
ATOM     11  C   UNL     1      -0.739  10.611  22.593  0.00  0.00    +0.000 A 
ATOM     12  C   UNL     1      -0.875  11.124  21.327  0.00  0.00    +0.000 A 
ATOM     13  C   UNL     1      -0.120  10.400  20.332  0.00  0.00    +0.000 A 
ENDROOT
BRANCH   1  14
ATOM     14  N   UNL     1      -0.728  11.591  18.237  0.00  0.00    +0.000 N 
ATOM     15  H   UNL     1      -0.561  12.528  18.578  0.00  0.00    +0.000 HD
BRANCH  14  20
ATOM     16  C   UNL     1      -3.495  10.805  15.854  0.00  0.00    +0.000 A 
ATOM     17  C   UNL     1      -4.603  11.218  16.589  0.00  0.00    +0.000 A 
ATOM     18  C   UNL     1      -4.426  11.733  17.875  0.00  0.00    +0.000 A 
ATOM     19  C   UNL     1      -3.142  11.839  18.423  0.00  0.00    +0.000 A 
ATOM     20  C   UNL     1      -2.021  11.445  17.685  0.00  0.00    +0.000 A 
ATOM     21  C   UNL     1      -2.218  10.911  16.405  0.00  0.00    +0.000 A 
BRANCH  16  23
ATOM     22  C   UNL     1      -3.810   9.848  13.426  0.00  0.00    +0.000 C 
ATOM     23  C   UNL     1      -3.639  10.298  14.525  0.00  0.00    +0.000 C 
ENDBRANCH  16  23
ENDBRANCH  14  20
ENDBRANCH   1  14
BRANCH   5  24
ATOM     24  C   UNL     1       3.661   5.936  17.525  0.00  0.00    +0.000 C 
ATOM     25  O   UNL     1       3.512   4.726  17.529  0.00  0.00    +0.000 OA
BRANCH  24  26
ATOM     26  O   UNL     1       4.564   6.563  16.743  0.00  0.00    +0.000 OA
ATOM     27  H   UNL     1       4.541   7.537  16.752  0.00  0.00    +0.000 HD
ENDBRANCH  24  26
ENDBRANCH   5  24
TORSDOF 5
ENDMDL
MODEL 8
REMARK VINA RESULT:      -7.6      5.248      8.395
REMARK  Name = 
REMARK  5 active torsions:
REMARK  status: ('A' for Active; 'I' for Inactive)
REMARK    1  A    between atoms: C_2  and  C_3
REMARK    2  A    between atoms: C_7  and  N_8
REMARK    3  A    between atoms: N_8  and  C_9
REMARK    4  A    between atoms: C_13  and  C_14
REMARK    5  A    between atoms: C_14  and  O_16
REMARK                            x       y       z     vdW  Elec       q    Type
REMARK                         _______ _______ _______ _____ _____    ______ ____
ROOT
ATOM      1  C   UNL     1      -0.408  10.500  19.250  0.00  0.00    +0.000 A 
ATOM      2  N   UNL     1      -0.773  10.079  18.009  0.00  0.00    +0.000 NA
ATOM      3  C   UNL     1      -1.900  10.471  17.429  0.00  0.00    +0.000 A 
ATOM      4  C   UNL     1      -2.142  10.034  16.138  0.00  0.00    +0.000 A 
ATOM      5  C   UNL     1      -3.308  10.396  15.455  0.00  0.00    +0.000 A 
ATOM      6  C   UNL     1      -4.233  11.245  16.071  0.00  0.00    +0.000 A 
ATOM      7  C   UNL     1      -4.000  11.705  17.367  0.00  0.00    +0.000 A 
ATOM      8  C   UNL     1      -2.827  11.314  18.051  0.00  0.00    +0.000 A 
ATOM      9  C   UNL     1      -2.488  11.741  19.367  0.00  0.00    +0.000 A 
ATOM     10  S   UNL     1      -3.394  12.783  20.412  0.00  0.00    +0.000 S 
ATOM     11  C   UNL     1      -2.221  12.720  21.639  0.00  0.00    +0.000 A 
ATOM     12  C   UNL     1      -1.161  11.919  21.293  0.00  0.00    +0.000 A 
ATOM     13  C   UNL     1      -1.289  11.340  19.977  0.00  0.00    +0.000 A 
ENDROOT
BRANCH   1  14
ATOM     14  N   UNL     1       0.841  10.080  19.746  0.00  0.00    +0.000 N 
ATOM     15  H   UNL     1       1.460  10.834  20.009  0.00  0.00    +0.000 HD
BRANCH  14  20
ATOM     16  C   UNL     1       2.266   6.629  19.616  0.00  0.00    +0.000 A 
ATOM     17  C   UNL     1       3.007   6.692  18.440  0.00  0.00    +0.000 A 
ATOM     18  C   UNL     1       3.011   7.869  17.688  0.00  0.00    +0.000 A 
ATOM     19  C   UNL     1       2.279   8.983  18.117  0.00  0.00    +0.000 A 
ATOM     20  C   UNL     1       1.546   8.936  19.308  0.00  0.00    +0.000 A 
ATOM     21  C   UNL     1       1.535   7.740  20.038  0.00  0.00    +0.000 A 
BRANCH  16  23
ATOM     22  C   UNL     1       2.251   4.491  21.146  0.00  0.00    +0.000 C 
ATOM     23  C   UNL     1       2.261   5.448  20.423  0.00  0.00    +0.000 C 
ENDBRANCH  16  23
ENDBRANCH  14  20
ENDBRANCH   1  14
BRANCH   5  24
ATOM     24  C   UNL     1      -3.568   9.950  14.063  0.00  0.00    +0.000 C 
ATOM     25  O   UNL     1      -4.687   9.677  13.663  0.00  0.00    +0.000 OA
BRANCH  24  26
ATOM     26  O   UNL     1      -2.466   9.838  13.293  0.00  0.00    +0.000 OA
ATOM     27  H   UNL     1      -2.335   8.981  12.848  0.00  0.00    +0.000 HD
ENDBRANCH  24  26
ENDBRANCH   5  24
TORSDOF 5
ENDMDL
MODEL 9
REMARK VINA RESULT:      -7.6      4.900      8.170
REMARK  Name = 
REMARK  5 active torsions:
REMARK  status: ('A' for Active; 'I' for Inactive)
REMARK    1  A    between atoms: C_2  and  C_3
REMARK    2  A    between atoms: C_7  and  N_8
REMARK    3  A    between atoms: N_8  and  C_9
REMARK    4  A    between atoms: C_13  and  C_14
REMARK    5  A    between atoms: C_14  and  O_16
REMARK                            x       y       z     vdW  Elec       q    Type
REMARK                         _______ _______ _______ _____ _____    ______ ____
ROOT
ATOM      1  C   UNL     1       0.121   9.988  19.742  0.00  0.00    +0.000 A 
ATOM      2  N   UNL     1      -0.353   9.669  18.508  0.00  0.00    +0.000 NA
ATOM      3  C   UNL     1      -1.434  10.239  17.992  0.00  0.00    +0.000 A 
ATOM      4  C   UNL     1      -1.791   9.888  16.702  0.00  0.00    +0.000 A 
ATOM      5  C   UNL     1      -2.919  10.437  16.084  0.00  0.00    +0.000 A 
ATOM      6  C   UNL     1      -3.685  11.388  16.767  0.00  0.00    +0.000 A 
ATOM      7  C   UNL     1      -3.335  11.763  18.064  0.00  0.00    +0.000 A 
ATOM      8  C   UNL     1      -2.202  11.183  18.682  0.00  0.00    +0.000 A 
ATOM      9  C   UNL     1      -1.750  11.510  19.992  0.00  0.00    +0.000 A 
ATOM     10  S   UNL     1      -2.452  12.633  21.109  0.00  0.00    +0.000 S 
ATOM     11  C   UNL     1      -1.251  12.358  22.277  0.00  0.00    +0.000 A 
ATOM     12  C   UNL     1      -0.333  11.426  21.859  0.00  0.00    +0.000 A 
ATOM     13  C   UNL     1      -0.598  10.919  20.534  0.00  0.00    +0.000 A 
ENDROOT
BRANCH   1  14
ATOM     14  N   UNL     1       1.315   9.376  20.166  0.00  0.00    +0.000 N 
ATOM     15  H   UNL     1       2.059  10.023  20.389  0.00  0.00    +0.000 HD
BRANCH  14  20
ATOM     16  C   UNL     1       2.227   5.757  19.999  0.00  0.00    +0.000 A 
ATOM     17  C   UNL     1       2.844   5.697  18.753  0.00  0.00    +0.000 A 
ATOM     18  C   UNL     1       2.933   6.850  17.969  0.00  0.00    +0.000 A 
ATOM     19  C   UNL     1       2.410   8.062  18.435  0.00  0.00    +0.000 A 
ATOM     20  C   UNL     1       1.806   8.138  19.694  0.00  0.00    +0.000 A 
ATOM     21  C   UNL     1       1.706   6.967  20.458  0.00  0.00    +0.000 A 
BRANCH  16  23
ATOM     22  C   UNL     1       2.029   3.658  21.569  0.00  0.00    +0.000 C 
ATOM     23  C   UNL     1       2.143   4.601  20.836  0.00  0.00    +0.000 C 
ENDBRANCH  16  23
ENDBRANCH  14  20
ENDBRANCH   1  14
BRANCH   5  24
ATOM     24  C   UNL     1      -3.299  10.084  14.693  0.00  0.00    +0.000 C 
ATOM     25  O   UNL     1      -2.470   9.874  13.823  0.00  0.00    +0.000 OA
BRANCH  24  26
ATOM     26  O   UNL     1      -4.628  10.051  14.464  0.00  0.00    +0.000 OA
ATOM     27  H   UNL     1      -5.100   9.257  14.774  0.00  0.00    +0.000 HD
ENDBRANCH  24  26
ENDBRANCH   5  24
TORSDOF 5
ENDMDL
