MODEL 1
REMARK VINA RESULT:      -8.1      0.000      0.000
REMARK  Name = 
REMARK  4 active torsions:
REMARK  status: ('A' for Active; 'I' for Inactive)
REMARK    1  A    between atoms: C_4  and  C_5
REMARK    2  A    between atoms: N_16  and  C_17
REMARK    3  A    between atoms: C_17  and  N_18
REMARK    4  A    between atoms: N_21  and  C_22
REMARK                            x       y       z     vdW  Elec       q    Type
REMARK                         _______ _______ _______ _____ _____    ______ ____
ROOT
ATOM      1  S   UNL     1       2.070  10.495  17.963  0.00  0.00    +0.000 S 
ATOM      2  C   UNL     1       2.023   9.009  18.719  0.00  0.00    +0.000 A 
ATOM      3  S   UNL     1       2.250   7.499  17.867  0.00  0.00    +0.000 S 
ATOM      4  C   UNL     1       2.048   6.637  19.367  0.00  0.00    +0.000 A 
ATOM      5  N   UNL     1       1.851   7.376  20.417  0.00  0.00    +0.000 NA
ATOM      6  N   UNL     1       1.802   8.727  20.068  0.00  0.00    +0.000 N 
ENDROOT
BRANCH   4   7
ATOM      7  C   UNL     1       2.147   5.111  19.417  0.00  0.00    +0.000 C 
ATOM      8  C   UNL     1       1.841   4.505  18.023  0.00  0.00    +0.000 C 
ATOM      9  C   UNL     1       1.899   2.970  18.066  0.00  0.00    +0.000 C 
ATOM     10  C   UNL     1       3.311   2.526  18.480  0.00  0.00    +0.000 C 
ATOM     11  C   UNL     1       3.647   3.091  19.869  0.00  0.00    +0.000 C 
ATOM     12  C   UNL     1       2.627   2.546  20.882  0.00  0.00    +0.000 C 
ATOM     13  C   UNL     1       1.212   3.000  20.490  0.00  0.00    +0.000 C 
ATOM     14  C   UNL     1       0.877   2.454  19.091  0.00  0.00    +0.000 C 
ATOM     15  C   UNL     1       1.154   4.539  20.460  0.00  0.00    +0.000 C 
ATOM     16  C   UNL     1       3.567   4.633  19.833  0.00  0.00    +0.000 C 
ENDBRANCH   4   7
BRANCH   6  17
ATOM     17  C   UNL     1       1.403   9.682  21.098  0.00  0.00    +0.000 C 
BRANCH  17  18
ATOM     18  N   UNL     1      -0.050   9.753  21.211  0.00  0.00    +0.000 NA
ATOM     19  C   UNL     1      -0.627   9.644  22.547  0.00  0.00    +0.000 C 
ATOM     20  C   UNL     1      -1.300  10.863  23.184  0.00  0.00    +0.000 C 
ATOM     21  N   UNL     1      -2.083  11.668  22.245  0.00  0.00    +0.000 N 
ATOM     22  C   UNL     1      -1.469  11.934  20.935  0.00  0.00    +0.000 C 
ATOM     23  C   UNL     1      -0.705  10.724  20.333  0.00  0.00    +0.000 C 
BRANCH  21  24
ATOM     24  C   UNL     1      -3.152  12.419  22.736  0.00  0.00    +0.000 A 
ATOM     25  C   UNL     1      -3.603  12.314  24.068  0.00  0.00    +0.000 A 
ATOM     26  C   UNL     1      -4.821  12.858  24.501  0.00  0.00    +0.000 A 
ATOM     27  C   UNL     1      -5.615  13.566  23.609  0.00  0.00    +0.000 A 
ATOM     28  C   UNL     1      -5.149  13.784  22.321  0.00  0.00    +0.000 A 
ATOM     29  C   UNL     1      -3.930  13.236  21.898  0.00  0.00    +0.000 A 
ENDBRANCH  21  24
ENDBRANCH  17  18
ENDBRANCH   6  17
TORSDOF 4
ENDMDL
MODEL 2
REMARK VINA RESULT:      -8.1      0.063      1.406
REMARK  Name = 
REMARK  4 active torsions:
REMARK  status: ('A' for Active; 'I' for Inactive)
REMARK    1  A    between atoms: C_4  and  C_5
REMARK    2  A    between atoms: N_16  and  C_17
REMARK    3  A    between atoms: C_17  and  N_18
REMARK    4  A    between atoms: N_21  and  C_22
REMARK                            x       y       z     vdW  Elec       q    Type
REMARK                         _______ _______ _______ _____ _____    ______ ____
ROOT
ATOM      1  S   UNL     1       2.115  10.492  18.056  0.00  0.00    +0.000 S 
ATOM      2  C   UNL     1       2.050   8.992  18.784  0.00  0.00    +0.000 A 
ATOM      3  S   UNL     1       2.277   7.498  17.905  0.00  0.00    +0.000 S 
ATOM      4  C   UNL     1       2.053   6.608  19.386  0.00  0.00    +0.000 A 
ATOM      5  N   UNL     1       1.848   7.328  20.448  0.00  0.00    +0.000 NA
ATOM      6  N   UNL     1       1.813   8.686  20.124  0.00  0.00    +0.000 N 
ENDROOT
BRANCH   4   7
ATOM      7  C   UNL     1       2.141   5.081  19.407  0.00  0.00    +0.000 C 
ATOM      8  C   UNL     1       1.136   4.498  20.434  0.00  0.00    +0.000 C 
ATOM      9  C   UNL     1       1.239   2.966  20.495  0.00  0.00    +0.000 C 
ATOM     10  C   UNL     1       0.907   2.379  19.114  0.00  0.00    +0.000 C 
ATOM     11  C   UNL     1       1.894   2.917  18.068  0.00  0.00    +0.000 C 
ATOM     12  C   UNL     1       3.317   2.494  18.469  0.00  0.00    +0.000 C 
ATOM     13  C   UNL     1       3.670   3.092  19.840  0.00  0.00    +0.000 C 
ATOM     14  C   UNL     1       2.672   2.571  20.889  0.00  0.00    +0.000 C 
ATOM     15  C   UNL     1       3.577   4.628  19.773  0.00  0.00    +0.000 C 
ATOM     16  C   UNL     1       1.807   4.459  18.021  0.00  0.00    +0.000 C 
ENDBRANCH   4   7
BRANCH   6  17
ATOM     17  C   UNL     1       1.408   9.624  21.168  0.00  0.00    +0.000 C 
BRANCH  17  18
ATOM     18  N   UNL     1      -0.046   9.707  21.262  0.00  0.00    +0.000 NA
ATOM     19  C   UNL     1      -0.640   9.629  22.593  0.00  0.00    +0.000 C 
ATOM     20  C   UNL     1      -1.312  10.866  23.197  0.00  0.00    +0.000 C 
ATOM     21  N   UNL     1      -2.078  11.656  22.232  0.00  0.00    +0.000 N 
ATOM     22  C   UNL     1      -1.447  11.891  20.924  0.00  0.00    +0.000 C 
ATOM     23  C   UNL     1      -0.684  10.664  20.356  0.00  0.00    +0.000 C 
BRANCH  21  24
ATOM     24  C   UNL     1      -3.148  12.424  22.694  0.00  0.00    +0.000 A 
ATOM     25  C   UNL     1      -3.602  12.365  24.028  0.00  0.00    +0.000 A 
ATOM     26  C   UNL     1      -4.821  12.925  24.438  0.00  0.00    +0.000 A 
ATOM     27  C   UNL     1      -5.612  13.602  23.521  0.00  0.00    +0.000 A 
ATOM     28  C   UNL     1      -5.143  13.776  22.228  0.00  0.00    +0.000 A 
ATOM     29  C   UNL     1      -3.923  13.213  21.827  0.00  0.00    +0.000 A 
ENDBRANCH  21  24
ENDBRANCH  17  18
ENDBRANCH   6  17
TORSDOF 4
ENDMDL
MODEL 3
REMARK VINA RESULT:      -7.9      0.284      1.428
REMARK  Name = 
REMARK  4 active torsions:
REMARK  status: ('A' for Active; 'I' for Inactive)
REMARK    1  A    between atoms: C_4  and  C_5
REMARK    2  A    between atoms: N_16  and  C_17
REMARK    3  A    between atoms: C_17  and  N_18
REMARK    4  A    between atoms: N_21  and  C_22
REMARK                            x       y       z     vdW  Elec       q    Type
REMARK                         _______ _______ _______ _____ _____    ______ ____
ROOT
ATOM      1  S   UNL     1       2.010  10.561  18.054  0.00  0.00    +0.000 S 
ATOM      2  C   UNL     1       1.980   9.059  18.781  0.00  0.00    +0.000 A 
ATOM      3  S   UNL     1       2.214   7.569  17.896  0.00  0.00    +0.000 S 
ATOM      4  C   UNL     1       2.030   6.675  19.380  0.00  0.00    +0.000 A 
ATOM      5  N   UNL     1       1.834   7.391  20.447  0.00  0.00    +0.000 NA
ATOM      6  N   UNL     1       1.772   8.748  20.125  0.00  0.00    +0.000 N 
ENDROOT
BRANCH   4   7
ATOM      7  C   UNL     1       2.141   5.150  19.399  0.00  0.00    +0.000 C 
ATOM      8  C   UNL     1       3.570   4.719  19.819  0.00  0.00    +0.000 C 
ATOM      9  C   UNL     1       3.709   3.188  19.807  0.00  0.00    +0.000 C 
ATOM     10  C   UNL     1       2.713   2.579  20.805  0.00  0.00    +0.000 C 
ATOM     11  C   UNL     1       1.279   2.966  20.413  0.00  0.00    +0.000 C 
ATOM     12  C   UNL     1       0.988   2.416  19.007  0.00  0.00    +0.000 C 
ATOM     13  C   UNL     1       1.965   3.033  17.994  0.00  0.00    +0.000 C 
ATOM     14  C   UNL     1       3.405   2.665  18.393  0.00  0.00    +0.000 C 
ATOM     15  C   UNL     1       1.814   4.566  18.001  0.00  0.00    +0.000 C 
ATOM     16  C   UNL     1       1.144   4.505  20.404  0.00  0.00    +0.000 C 
ENDBRANCH   4   7
BRANCH   6  17
ATOM     17  C   UNL     1       1.373   9.680  21.177  0.00  0.00    +0.000 C 
BRANCH  17  18
ATOM     18  N   UNL     1      -0.081   9.754  21.285  0.00  0.00    +0.000 NA
ATOM     19  C   UNL     1      -0.655   9.785  22.626  0.00  0.00    +0.000 C 
ATOM     20  C   UNL     1      -1.334  11.061  23.132  0.00  0.00    +0.000 C 
ATOM     21  N   UNL     1      -2.123  11.757  22.115  0.00  0.00    +0.000 N 
ATOM     22  C   UNL     1      -1.512  11.886  20.783  0.00  0.00    +0.000 C 
ATOM     23  C   UNL     1      -0.743  10.623  20.311  0.00  0.00    +0.000 C 
BRANCH  21  24
ATOM     24  C   UNL     1      -3.196  12.550  22.526  0.00  0.00    +0.000 A 
ATOM     25  C   UNL     1      -3.325  13.022  23.848  0.00  0.00    +0.000 A 
ATOM     26  C   UNL     1      -4.511  13.592  24.336  0.00  0.00    +0.000 A 
ATOM     27  C   UNL     1      -5.601  13.743  23.491  0.00  0.00    +0.000 A 
ATOM     28  C   UNL     1      -5.471  13.393  22.155  0.00  0.00    +0.000 A 
ATOM     29  C   UNL     1      -4.281  12.825  21.677  0.00  0.00    +0.000 A 
ENDBRANCH  21  24
ENDBRANCH  17  18
ENDBRANCH   6  17
TORSDOF 4
ENDMDL
MODEL 4
REMARK VINA RESULT:      -7.4      2.443      3.337
REMARK  Name = 
REMARK  4 active torsions:
REMARK  status: ('A' for Active; 'I' for Inactive)
REMARK    1  A    between atoms: C_4  and  C_5
REMARK    2  A    between atoms: N_16  and  C_17
REMARK    3  A    between atoms: C_17  and  N_18
REMARK    4  A    between atoms: N_21  and  C_22
REMARK                            x       y       z     vdW  Elec       q    Type
REMARK                         _______ _______ _______ _____ _____    ______ ____
ROOT
ATOM      1  S   UNL     1       0.233  10.347  21.814  0.00  0.00    +0.000 S 
ATOM      2  C   UNL     1       0.922   9.191  20.828  0.00  0.00    +0.000 A 
ATOM      3  S   UNL     1       1.048   7.507  21.280  0.00  0.00    +0.000 S 
ATOM      4  C   UNL     1       1.820   7.169  19.756  0.00  0.00    +0.000 A 
ATOM      5  N   UNL     1       1.963   8.187  18.961  0.00  0.00    +0.000 NA
ATOM      6  N   UNL     1       1.487   9.353  19.563  0.00  0.00    +0.000 N 
ENDROOT
BRANCH   4   7
ATOM      7  C   UNL     1       2.248   5.747  19.389  0.00  0.00    +0.000 C 
ATOM      8  C   UNL     1       1.479   4.713  20.250  0.00  0.00    +0.000 C 
ATOM      9  C   UNL     1       1.926   3.280  19.919  0.00  0.00    +0.000 C 
ATOM     10  C   UNL     1       1.631   2.984  18.441  0.00  0.00    +0.000 C 
ATOM     11  C   UNL     1       2.392   3.977  17.549  0.00  0.00    +0.000 C 
ATOM     12  C   UNL     1       3.899   3.815  17.807  0.00  0.00    +0.000 C 
ATOM     13  C   UNL     1       4.211   4.129  19.279  0.00  0.00    +0.000 C 
ATOM     14  C   UNL     1       3.436   3.149  20.178  0.00  0.00    +0.000 C 
ATOM     15  C   UNL     1       3.773   5.569  19.604  0.00  0.00    +0.000 C 
ATOM     16  C   UNL     1       1.959   5.419  17.896  0.00  0.00    +0.000 C 
ENDBRANCH   4   7
BRANCH   6  17
ATOM     17  C   UNL     1       1.740  10.622  18.884  0.00  0.00    +0.000 C 
BRANCH  17  18
ATOM     18  N   UNL     1       0.563  11.061  18.141  0.00  0.00    +0.000 NA
ATOM     19  C   UNL     1      -0.460  10.062  17.849  0.00  0.00    +0.000 C 
ATOM     20  C   UNL     1      -1.826  10.152  18.536  0.00  0.00    +0.000 C 
ATOM     21  N   UNL     1      -2.330  11.518  18.678  0.00  0.00    +0.000 N 
ATOM     22  C   UNL     1      -1.364  12.534  19.124  0.00  0.00    +0.000 C 
ATOM     23  C   UNL     1       0.049  12.384  18.498  0.00  0.00    +0.000 C 
BRANCH  21  24
ATOM     24  C   UNL     1      -3.710  11.719  18.744  0.00  0.00    +0.000 A 
ATOM     25  C   UNL     1      -4.322  12.436  19.793  0.00  0.00    +0.000 A 
ATOM     26  C   UNL     1      -5.707  12.424  20.011  0.00  0.00    +0.000 A 
ATOM     27  C   UNL     1      -6.534  11.716  19.150  0.00  0.00    +0.000 A 
ATOM     28  C   UNL     1      -5.978  11.092  18.044  0.00  0.00    +0.000 A 
ATOM     29  C   UNL     1      -4.591  11.110  17.834  0.00  0.00    +0.000 A 
ENDBRANCH  21  24
ENDBRANCH  17  18
ENDBRANCH   6  17
TORSDOF 4
ENDMDL
MODEL 5
REMARK VINA RESULT:      -7.4      2.496      3.067
REMARK  Name = 
REMARK  4 active torsions:
REMARK  status: ('A' for Active; 'I' for Inactive)
REMARK    1  A    between atoms: C_4  and  C_5
REMARK    2  A    between atoms: N_16  and  C_17
REMARK    3  A    between atoms: C_17  and  N_18
REMARK    4  A    between atoms: N_21  and  C_22
REMARK                            x       y       z     vdW  Elec       q    Type
REMARK                         _______ _______ _______ _____ _____    ______ ____
ROOT
ATOM      1  S   UNL     1       0.052  10.363  21.878  0.00  0.00    +0.000 S 
ATOM      2  C   UNL     1       0.794   9.254  20.877  0.00  0.00    +0.000 A 
ATOM      3  S   UNL     1       0.992   7.570  21.304  0.00  0.00    +0.000 S 
ATOM      4  C   UNL     1       1.781   7.289  19.776  0.00  0.00    +0.000 A 
ATOM      5  N   UNL     1       1.882   8.324  18.997  0.00  0.00    +0.000 NA
ATOM      6  N   UNL     1       1.353   9.459  19.615  0.00  0.00    +0.000 N 
ENDROOT
BRANCH   4   7
ATOM      7  C   UNL     1       2.273   5.893  19.389  0.00  0.00    +0.000 C 
ATOM      8  C   UNL     1       1.898   5.579  17.918  0.00  0.00    +0.000 C 
ATOM      9  C   UNL     1       2.352   4.164  17.525  0.00  0.00    +0.000 C 
ATOM     10  C   UNL     1       3.879   4.064  17.661  0.00  0.00    +0.000 C 
ATOM     11  C   UNL     1       4.293   4.351  19.113  0.00  0.00    +0.000 C 
ATOM     12  C   UNL     1       3.634   3.305  20.027  0.00  0.00    +0.000 C 
ATOM     13  C   UNL     1       2.105   3.408  19.916  0.00  0.00    +0.000 C 
ATOM     14  C   UNL     1       1.686   3.141  18.460  0.00  0.00    +0.000 C 
ATOM     15  C   UNL     1       1.652   4.823  20.323  0.00  0.00    +0.000 C 
ATOM     16  C   UNL     1       3.818   5.764  19.516  0.00  0.00    +0.000 C 
ENDBRANCH   4   7
BRANCH   6  17
ATOM     17  C   UNL     1       1.552  10.748  18.957  0.00  0.00    +0.000 C 
BRANCH  17  18
ATOM     18  N   UNL     1       0.366  11.136  18.200  0.00  0.00    +0.000 NA
ATOM     19  C   UNL     1      -0.633  10.105  17.939  0.00  0.00    +0.000 C 
ATOM     20  C   UNL     1      -2.002  10.184  18.623  0.00  0.00    +0.000 C 
ATOM     21  N   UNL     1      -2.538  11.543  18.723  0.00  0.00    +0.000 N 
ATOM     22  C   UNL     1      -1.596  12.594  19.137  0.00  0.00    +0.000 C 
ATOM     23  C   UNL     1      -0.179  12.458  18.516  0.00  0.00    +0.000 C 
BRANCH  21  24
ATOM     24  C   UNL     1      -3.922  11.713  18.783  0.00  0.00    +0.000 A 
ATOM     25  C   UNL     1      -4.547  12.492  19.778  0.00  0.00    +0.000 A 
ATOM     26  C   UNL     1      -5.931  12.462  20.005  0.00  0.00    +0.000 A 
ATOM     27  C   UNL     1      -6.744  11.670  19.206  0.00  0.00    +0.000 A 
ATOM     28  C   UNL     1      -6.176  10.979  18.146  0.00  0.00    +0.000 A 
ATOM     29  C   UNL     1      -4.792  11.015  17.927  0.00  0.00    +0.000 A 
ENDBRANCH  21  24
ENDBRANCH  17  18
ENDBRANCH   6  17
TORSDOF 4
ENDMDL
MODEL 6
REMARK VINA RESULT:      -7.4      3.560      5.198
REMARK  Name = 
REMARK  4 active torsions:
REMARK  status: ('A' for Active; 'I' for Inactive)
REMARK    1  A    between atoms: C_4  and  C_5
REMARK    2  A    between atoms: N_16  and  C_17
REMARK    3  A    between atoms: C_17  and  N_18
REMARK    4  A    between atoms: N_21  and  C_22
REMARK                            x       y       z     vdW  Elec       q    Type
REMARK                         _______ _______ _______ _____ _____    ______ ____
ROOT
ATOM      1  S   UNL     1       1.420   2.929  21.640  0.00  0.00    +0.000 S 
ATOM      2  C   UNL     1       2.268   3.850  20.537  0.00  0.00    +0.000 A 
ATOM      3  S   UNL     1       3.620   3.229  19.618  0.00  0.00    +0.000 S 
ATOM      4  C   UNL     1       3.787   4.779  18.842  0.00  0.00    +0.000 A 
ATOM      5  N   UNL     1       2.922   5.682  19.197  0.00  0.00    +0.000 NA
ATOM      6  N   UNL     1       2.067   5.184  20.182  0.00  0.00    +0.000 N 
ENDROOT
BRANCH   4   7
ATOM      7  C   UNL     1       4.864   5.017  17.783  0.00  0.00    +0.000 C 
ATOM      8  C   UNL     1       4.732   6.443  17.189  0.00  0.00    +0.000 C 
ATOM      9  C   UNL     1       5.785   6.684  16.096  0.00  0.00    +0.000 C 
ATOM     10  C   UNL     1       7.189   6.548  16.704  0.00  0.00    +0.000 C 
ATOM     11  C   UNL     1       7.370   5.139  17.288  0.00  0.00    +0.000 C 
ATOM     12  C   UNL     1       7.208   4.112  16.155  0.00  0.00    +0.000 C 
ATOM     13  C   UNL     1       5.798   4.223  15.551  0.00  0.00    +0.000 C 
ATOM     14  C   UNL     1       5.604   5.640  14.981  0.00  0.00    +0.000 C 
ATOM     15  C   UNL     1       4.746   3.969  16.646  0.00  0.00    +0.000 C 
ATOM     16  C   UNL     1       6.299   4.887  18.371  0.00  0.00    +0.000 C 
ENDBRANCH   4   7
BRANCH   6  17
ATOM     17  C   UNL     1       1.153   6.123  20.829  0.00  0.00    +0.000 C 
BRANCH  17  18
ATOM     18  N   UNL     1       1.691   7.479  20.802  0.00  0.00    +0.000 NA
ATOM     19  C   UNL     1       1.863   8.109  19.497  0.00  0.00    +0.000 C 
ATOM     20  C   UNL     1       0.973   9.293  19.104  0.00  0.00    +0.000 C 
ATOM     21  N   UNL     1       0.704  10.224  20.201  0.00  0.00    +0.000 N 
ATOM     22  C   UNL     1       0.372   9.627  21.504  0.00  0.00    +0.000 C 
ATOM     23  C   UNL     1       1.211   8.370  21.859  0.00  0.00    +0.000 C 
BRANCH  21  24
ATOM     24  C   UNL     1       0.421  11.556  19.894  0.00  0.00    +0.000 A 
ATOM     25  C   UNL     1      -0.402  11.925  18.811  0.00  0.00    +0.000 A 
ATOM     26  C   UNL     1      -0.484  13.243  18.338  0.00  0.00    +0.000 A 
ATOM     27  C   UNL     1       0.235  14.248  18.969  0.00  0.00    +0.000 A 
ATOM     28  C   UNL     1       0.966  13.940  20.106  0.00  0.00    +0.000 A 
ATOM     29  C   UNL     1       1.042  12.619  20.572  0.00  0.00    +0.000 A 
ENDBRANCH  21  24
ENDBRANCH  17  18
ENDBRANCH   6  17
TORSDOF 4
ENDMDL
MODEL 7
REMARK VINA RESULT:      -7.4      2.469      3.320
REMARK  Name = 
REMARK  4 active torsions:
REMARK  status: ('A' for Active; 'I' for Inactive)
REMARK    1  A    between atoms: C_4  and  C_5
REMARK    2  A    between atoms: N_16  and  C_17
REMARK    3  A    between atoms: C_17  and  N_18
REMARK    4  A    between atoms: N_21  and  C_22
REMARK                            x       y       z     vdW  Elec       q    Type
REMARK                         _______ _______ _______ _____ _____    ______ ____
ROOT
ATOM      1  S   UNL     1       0.099  10.361  21.884  0.00  0.00    +0.000 S 
ATOM      2  C   UNL     1       0.827   9.235  20.890  0.00  0.00    +0.000 A 
ATOM      3  S   UNL     1       0.976   7.546  21.316  0.00  0.00    +0.000 S 
ATOM      4  C   UNL     1       1.781   7.249  19.799  0.00  0.00    +0.000 A 
ATOM      5  N   UNL     1       1.919   8.284  19.025  0.00  0.00    +0.000 NA
ATOM      6  N   UNL     1       1.411   9.430  19.638  0.00  0.00    +0.000 N 
ENDROOT
BRANCH   4   7
ATOM      7  C   UNL     1       2.242   5.842  19.415  0.00  0.00    +0.000 C 
ATOM      8  C   UNL     1       3.783   5.729  19.533  0.00  0.00    +0.000 C 
ATOM      9  C   UNL     1       4.267   4.332  19.114  0.00  0.00    +0.000 C 
ATOM     10  C   UNL     1       3.638   3.278  20.040  0.00  0.00    +0.000 C 
ATOM     11  C   UNL     1       2.107   3.343  19.938  0.00  0.00    +0.000 C 
ATOM     12  C   UNL     1       1.697   3.049  18.486  0.00  0.00    +0.000 C 
ATOM     13  C   UNL     1       2.303   4.109  17.551  0.00  0.00    +0.000 C 
ATOM     14  C   UNL     1       3.837   4.062  17.663  0.00  0.00    +0.000 C 
ATOM     15  C   UNL     1       1.807   5.507  17.966  0.00  0.00    +0.000 C 
ATOM     16  C   UNL     1       1.622   4.754  20.338  0.00  0.00    +0.000 C 
ENDBRANCH   4   7
BRANCH   6  17
ATOM     17  C   UNL     1       1.652  10.715  18.987  0.00  0.00    +0.000 C 
BRANCH  17  18
ATOM     18  N   UNL     1       0.479  11.147  18.234  0.00  0.00    +0.000 NA
ATOM     19  C   UNL     1      -0.523  10.137  17.910  0.00  0.00    +0.000 C 
ATOM     20  C   UNL     1      -1.901  10.194  18.579  0.00  0.00    +0.000 C 
ATOM     21  N   UNL     1      -2.429  11.550  18.735  0.00  0.00    +0.000 N 
ATOM     22  C   UNL     1      -1.485  12.573  19.211  0.00  0.00    +0.000 C 
ATOM     23  C   UNL     1      -0.061  12.457  18.604  0.00  0.00    +0.000 C 
BRANCH  21  24
ATOM     24  C   UNL     1      -3.812  11.728  18.785  0.00  0.00    +0.000 A 
ATOM     25  C   UNL     1      -4.444  12.481  19.795  0.00  0.00    +0.000 A 
ATOM     26  C   UNL     1      -5.830  12.453  20.006  0.00  0.00    +0.000 A 
ATOM     27  C   UNL     1      -6.639  11.691  19.174  0.00  0.00    +0.000 A 
ATOM     28  C   UNL     1      -6.063  11.027  18.102  0.00  0.00    +0.000 A 
ATOM     29  C   UNL     1      -4.676  11.061  17.899  0.00  0.00    +0.000 A 
ENDBRANCH  21  24
ENDBRANCH  17  18
ENDBRANCH   6  17
TORSDOF 4
ENDMDL
MODEL 8
REMARK VINA RESULT:      -7.4      3.166      5.110
REMARK  Name = 
REMARK  4 active torsions:
REMARK  status: ('A' for Active; 'I' for Inactive)
REMARK    1  A    between atoms: C_4  and  C_5
REMARK    2  A    between atoms: N_16  and  C_17
REMARK    3  A    between atoms: C_17  and  N_18
REMARK    4  A    between atoms: N_21  and  C_22
REMARK                            x       y       z     vdW  Elec       q    Type
REMARK                         _______ _______ _______ _____ _____    ______ ____
ROOT
ATOM      1  S   UNL     1       1.251   3.098  21.607  0.00  0.00    +0.000 S 
ATOM      2  C   UNL     1       2.223   4.033  20.624  0.00  0.00    +0.000 A 
ATOM      3  S   UNL     1       3.634   3.404  19.806  0.00  0.00    +0.000 S 
ATOM      4  C   UNL     1       3.917   4.977  19.113  0.00  0.00    +0.000 A 
ATOM      5  N   UNL     1       3.050   5.893  19.426  0.00  0.00    +0.000 NA
ATOM      6  N   UNL     1       2.094   5.386  20.309  0.00  0.00    +0.000 N 
ENDROOT
BRANCH   4   7
ATOM      7  C   UNL     1       5.094   5.220  18.166  0.00  0.00    +0.000 C 
ATOM      8  C   UNL     1       6.413   5.355  18.969  0.00  0.00    +0.000 C 
ATOM      9  C   UNL     1       7.600   5.636  18.034  0.00  0.00    +0.000 C 
ATOM     10  C   UNL     1       7.757   4.470  17.047  0.00  0.00    +0.000 C 
ATOM     11  C   UNL     1       6.475   4.314  16.215  0.00  0.00    +0.000 C 
ATOM     12  C   UNL     1       6.238   5.614  15.429  0.00  0.00    +0.000 C 
ATOM     13  C   UNL     1       6.058   6.787  16.406  0.00  0.00    +0.000 C 
ATOM     14  C   UNL     1       7.332   6.935  17.256  0.00  0.00    +0.000 C 
ATOM     15  C   UNL     1       4.861   6.507  17.333  0.00  0.00    +0.000 C 
ATOM     16  C   UNL     1       5.279   4.053  17.155  0.00  0.00    +0.000 C 
ENDBRANCH   4   7
BRANCH   6  17
ATOM     17  C   UNL     1       1.153   6.328  20.908  0.00  0.00    +0.000 C 
BRANCH  17  18
ATOM     18  N   UNL     1       1.678   7.689  20.867  0.00  0.00    +0.000 NA
ATOM     19  C   UNL     1       1.729   8.352  19.568  0.00  0.00    +0.000 C 
ATOM     20  C   UNL     1       0.800   9.536  19.282  0.00  0.00    +0.000 C 
ATOM     21  N   UNL     1       0.623  10.439  20.421  0.00  0.00    +0.000 N 
ATOM     22  C   UNL     1       0.411   9.809  21.734  0.00  0.00    +0.000 C 
ATOM     23  C   UNL     1       1.286   8.551  21.984  0.00  0.00    +0.000 C 
BRANCH  21  24
ATOM     24  C   UNL     1       0.305  11.775  20.173  0.00  0.00    +0.000 A 
ATOM     25  C   UNL     1      -0.968  12.315  20.447  0.00  0.00    +0.000 A 
ATOM     26  C   UNL     1      -1.378  13.568  19.969  0.00  0.00    +0.000 A 
ATOM     27  C   UNL     1      -0.499  14.344  19.226  0.00  0.00    +0.000 A 
ATOM     28  C   UNL     1       0.797  13.893  19.033  0.00  0.00    +0.000 A 
ATOM     29  C   UNL     1       1.198  12.638  19.516  0.00  0.00    +0.000 A 
ENDBRANCH  21  24
ENDBRANCH  17  18
ENDBRANCH   6  17
TORSDOF 4
ENDMDL
MODEL 9
REMARK VINA RESULT:      -7.4      0.892      1.711
REMARK  Name = 
REMARK  4 active torsions:
REMARK  status: ('A' for Active; 'I' for Inactive)
REMARK    1  A    between atoms: C_4  and  C_5
REMARK    2  A    between atoms: N_16  and  C_17
REMARK    3  A    between atoms: C_17  and  N_18
REMARK    4  A    between atoms: N_21  and  C_22
REMARK                            x       y       z     vdW  Elec       q    Type
REMARK                         _______ _______ _______ _____ _____    ______ ____
ROOT
ATOM      1  S   UNL     1       1.932  10.393  18.012  0.00  0.00    +0.000 S 
ATOM      2  C   UNL     1       1.959   8.899  18.756  0.00  0.00    +0.000 A 
ATOM      3  S   UNL     1       2.050   7.396  17.867  0.00  0.00    +0.000 S 
ATOM      4  C   UNL     1       2.029   6.520  19.373  0.00  0.00    +0.000 A 
ATOM      5  N   UNL     1       1.980   7.251  20.447  0.00  0.00    +0.000 NA
ATOM      6  N   UNL     1       1.909   8.606  20.119  0.00  0.00    +0.000 N 
ENDROOT
BRANCH   4   7
ATOM      7  C   UNL     1       2.108   4.993  19.397  0.00  0.00    +0.000 C 
ATOM      8  C   UNL     1       3.519   4.534  19.846  0.00  0.00    +0.000 C 
ATOM      9  C   UNL     1       3.627   3.001  19.838  0.00  0.00    +0.000 C 
ATOM     10  C   UNL     1       2.600   2.414  20.819  0.00  0.00    +0.000 C 
ATOM     11  C   UNL     1       1.182   2.830  20.398  0.00  0.00    +0.000 C 
ATOM     12  C   UNL     1       0.906   2.282  18.988  0.00  0.00    +0.000 C 
ATOM     13  C   UNL     1       1.915   2.878  17.993  0.00  0.00    +0.000 C 
ATOM     14  C   UNL     1       3.339   2.480  18.420  0.00  0.00    +0.000 C 
ATOM     15  C   UNL     1       1.796   4.413  17.994  0.00  0.00    +0.000 C 
ATOM     16  C   UNL     1       1.079   4.371  20.384  0.00  0.00    +0.000 C 
ENDBRANCH   4   7
BRANCH   6  17
ATOM     17  C   UNL     1       1.661   9.556  21.200  0.00  0.00    +0.000 C 
BRANCH  17  18
ATOM     18  N   UNL     1       0.297  10.070  21.141  0.00  0.00    +0.000 NA
ATOM     19  C   UNL     1      -0.629   9.644  22.186  0.00  0.00    +0.000 C 
ATOM     20  C   UNL     1      -1.124  10.658  23.221  0.00  0.00    +0.000 C 
ATOM     21  N   UNL     1      -1.398  11.986  22.668  0.00  0.00    +0.000 N 
ATOM     22  C   UNL     1      -0.405  12.523  21.724  0.00  0.00    +0.000 C 
ATOM     23  C   UNL     1       0.166  11.471  20.736  0.00  0.00    +0.000 C 
BRANCH  21  24
ATOM     24  C   UNL     1      -2.338  12.796  23.306  0.00  0.00    +0.000 A 
ATOM     25  C   UNL     1      -3.687  12.414  23.460  0.00  0.00    +0.000 A 
ATOM     26  C   UNL     1      -4.687  13.313  23.859  0.00  0.00    +0.000 A 
ATOM     27  C   UNL     1      -4.354  14.626  24.159  0.00  0.00    +0.000 A 
ATOM     28  C   UNL     1      -3.021  15.006  24.128  0.00  0.00    +0.000 A 
ATOM     29  C   UNL     1      -2.028  14.100  23.727  0.00  0.00    +0.000 A 
ENDBRANCH  21  24
ENDBRANCH  17  18
ENDBRANCH   6  17
TORSDOF 4
ENDMDL
