MODEL 1
REMARK VINA RESULT:      -9.1      0.000      0.000
REMARK  Name = 
REMARK  8 active torsions:
REMARK  status: ('A' for Active; 'I' for Inactive)
REMARK    1  A    between atoms: N_6  and  C_7
REMARK    2  A    between atoms: C_7  and  C_8
REMARK    3  A    between atoms: C_8  and  C_9
REMARK    4  A    between atoms: C_9  and  C_10
REMARK    5  A    between atoms: C_10  and  C_11
REMARK    6  A    between atoms: C_11  and  C_12
REMARK    7  A    between atoms: C_12  and  C_13
REMARK    8  A    between atoms: C_13  and  N_14
REMARK                            x       y       z     vdW  Elec       q    Type
REMARK                         _______ _______ _______ _____ _____    ______ ____
ROOT
ATOM      1  C   UNL     1       0.631   9.612  20.094  0.00  0.00    +0.000 C 
ENDROOT
BRANCH   1   2
ATOM      2  C   UNL     1       1.270  10.059  18.762  0.00  0.00    +0.000 C 
BRANCH   2   3
ATOM      3  C   UNL     1       1.673   8.871  17.837  0.00  0.00    +0.000 C 
BRANCH   3   4
ATOM      4  C   UNL     1       2.762   8.016  18.492  0.00  0.00    +0.000 C 
BRANCH   4  10
ATOM      5  C   UNL     1       5.829   4.947  15.329  0.00  0.00    +0.000 A 
ATOM      6  C   UNL     1       5.349   6.218  15.570  0.00  0.00    +0.000 A 
ATOM      7  C   UNL     1       4.490   6.482  16.637  0.00  0.00    +0.000 A 
ATOM      8  C   UNL     1       3.956   5.449  17.405  0.00  0.00    +0.000 A 
ATOM      9  C   UNL     1       2.858   5.605  18.476  0.00  0.00    +0.000 A 
ATOM     10  N   UNL     1       2.343   6.703  18.969  0.00  0.00    +0.000 NA
ATOM     11  N   UNL     1       2.388   4.367  18.905  0.00  0.00    +0.000 N 
ATOM     12  C   UNL     1       2.876   3.157  18.495  0.00  0.00    +0.000 A 
ATOM     13  N   UNL     1       3.855   2.962  17.682  0.00  0.00    +0.000 NA
ATOM     14  C   UNL     1       4.387   4.127  17.104  0.00  0.00    +0.000 A 
ATOM     15  C   UNL     1       5.353   3.906  16.104  0.00  0.00    +0.000 A 
ATOM     16  C   UNL     1       2.131   2.003  19.086  0.00  0.00    +0.000 C 
ATOM     17  C   UNL     1       1.059   2.686  19.915  0.00  0.00    +0.000 C 
ATOM     18  C   UNL     1       1.230   4.208  19.762  0.00  0.00    +0.000 C 
ENDBRANCH   4  10
ENDBRANCH   3   4
ENDBRANCH   2   3
ENDBRANCH   1   2
BRANCH   1  19
ATOM     19  C   UNL     1       0.574  10.655  21.224  0.00  0.00    +0.000 C 
BRANCH  19  20
ATOM     20  C   UNL     1      -0.770  11.345  21.481  0.00  0.00    +0.000 C 
BRANCH  20  21
ATOM     21  C   UNL     1      -1.401  12.084  20.309  0.00  0.00    +0.000 C 
BRANCH  21  22
ATOM     22  N   UNL     1      -2.833  12.346  20.399  0.00  0.00    +0.000 NA
ATOM     23  C   UNL     1      -3.596  12.119  19.364  0.00  0.00    +0.000 A 
ATOM     24  C   UNL     1      -3.197  11.479  18.002  0.00  0.00    +0.000 A 
ATOM     25  C   UNL     1      -2.028  10.759  17.748  0.00  0.00    +0.000 A 
ATOM     26  C   UNL     1      -1.903   9.924  16.632  0.00  0.00    +0.000 A 
ATOM     27  C   UNL     1      -2.959   9.799  15.743  0.00  0.00    +0.000 A 
ATOM     28  C   UNL     1      -4.104  10.576  15.917  0.00  0.00    +0.000 A 
ATOM     29  C   UNL     1      -4.225  11.440  17.018  0.00  0.00    +0.000 A 
ATOM     30  N   UNL     1      -5.395  12.234  17.081  0.00  0.00    +0.000 NA
ATOM     31  C   UNL     1      -5.655  12.707  18.251  0.00  0.00    +0.000 A 
ATOM     32  N   UNL     1      -4.947  12.441  19.400  0.00  0.00    +0.000 N 
ATOM     33  C   UNL     1      -5.679  12.997  20.527  0.00  0.00    +0.000 C 
ATOM     34  C   UNL     1      -6.274  14.247  19.878  0.00  0.00    +0.000 C 
ATOM     35  C   UNL     1      -6.726  13.736  18.502  0.00  0.00    +0.000 C 
ENDBRANCH  21  22
ENDBRANCH  20  21
ENDBRANCH  19  20
ENDBRANCH   1  19
TORSDOF 8
ENDMDL
MODEL 2
REMARK VINA RESULT:      -8.9      0.825      2.823
REMARK  Name = 
REMARK  8 active torsions:
REMARK  status: ('A' for Active; 'I' for Inactive)
REMARK    1  A    between atoms: N_6  and  C_7
REMARK    2  A    between atoms: C_7  and  C_8
REMARK    3  A    between atoms: C_8  and  C_9
REMARK    4  A    between atoms: C_9  and  C_10
REMARK    5  A    between atoms: C_10  and  C_11
REMARK    6  A    between atoms: C_11  and  C_12
REMARK    7  A    between atoms: C_12  and  C_13
REMARK    8  A    between atoms: C_13  and  N_14
REMARK                            x       y       z     vdW  Elec       q    Type
REMARK                         _______ _______ _______ _____ _____    ______ ____
ROOT
ATOM      1  C   UNL     1       1.043  11.066  20.044  0.00  0.00    +0.000 C 
ENDROOT
BRANCH   1   2
ATOM      2  C   UNL     1       0.541   9.688  19.564  0.00  0.00    +0.000 C 
BRANCH   2   3
ATOM      3  C   UNL     1       1.407   9.074  18.423  0.00  0.00    +0.000 C 
BRANCH   3   4
ATOM      4  C   UNL     1       2.197   7.863  18.929  0.00  0.00    +0.000 C 
BRANCH   4  10
ATOM      5  C   UNL     1       1.540   2.702  20.252  0.00  0.00    +0.000 A 
ATOM      6  C   UNL     1       1.297   4.012  20.608  0.00  0.00    +0.000 A 
ATOM      7  C   UNL     1       1.743   5.075  19.823  0.00  0.00    +0.000 A 
ATOM      8  C   UNL     1       2.588   4.863  18.736  0.00  0.00    +0.000 A 
ATOM      9  C   UNL     1       3.292   5.965  17.919  0.00  0.00    +0.000 A 
ATOM     10  N   UNL     1       3.125   7.262  17.977  0.00  0.00    +0.000 NA
ATOM     11  N   UNL     1       4.234   5.428  17.047  0.00  0.00    +0.000 N 
ATOM     12  C   UNL     1       4.467   4.092  16.868  0.00  0.00    +0.000 A 
ATOM     13  N   UNL     1       3.845   3.122  17.444  0.00  0.00    +0.000 NA
ATOM     14  C   UNL     1       2.909   3.514  18.416  0.00  0.00    +0.000 A 
ATOM     15  C   UNL     1       2.338   2.456  19.151  0.00  0.00    +0.000 A 
ATOM     16  C   UNL     1       5.580   3.822  15.907  0.00  0.00    +0.000 C 
ATOM     17  C   UNL     1       6.042   5.218  15.530  0.00  0.00    +0.000 C 
ATOM     18  C   UNL     1       5.177   6.234  16.296  0.00  0.00    +0.000 C 
ENDBRANCH   4  10
ENDBRANCH   3   4
ENDBRANCH   2   3
ENDBRANCH   1   2
BRANCH   1  19
ATOM     19  C   UNL     1       0.298  11.705  21.229  0.00  0.00    +0.000 C 
BRANCH  19  20
ATOM     20  C   UNL     1      -1.232  11.627  21.229  0.00  0.00    +0.000 C 
BRANCH  20  21
ATOM     21  C   UNL     1      -1.975  12.684  20.423  0.00  0.00    +0.000 C 
BRANCH  21  22
ATOM     22  N   UNL     1      -3.432  12.625  20.458  0.00  0.00    +0.000 NA
ATOM     23  C   UNL     1      -4.086  12.225  19.401  0.00  0.00    +0.000 A 
ATOM     24  C   UNL     1      -3.505  11.675  18.067  0.00  0.00    +0.000 A 
ATOM     25  C   UNL     1      -2.198  11.228  17.867  0.00  0.00    +0.000 A 
ATOM     26  C   UNL     1      -1.849  10.429  16.771  0.00  0.00    +0.000 A 
ATOM     27  C   UNL     1      -2.818  10.065  15.848  0.00  0.00    +0.000 A 
ATOM     28  C   UNL     1      -4.110  10.573  15.968  0.00  0.00    +0.000 A 
ATOM     29  C   UNL     1      -4.461  11.400  17.047  0.00  0.00    +0.000 A 
ATOM     30  N   UNL     1      -5.778  11.917  17.055  0.00  0.00    +0.000 NA
ATOM     31  C   UNL     1      -6.181  12.334  18.207  0.00  0.00    +0.000 A 
ATOM     32  N   UNL     1      -5.475  12.242  19.384  0.00  0.00    +0.000 N 
ATOM     33  C   UNL     1      -6.354  12.634  20.474  0.00  0.00    +0.000 C 
ATOM     34  C   UNL     1      -7.185  13.715  19.782  0.00  0.00    +0.000 C 
ATOM     35  C   UNL     1      -7.460  13.103  18.401  0.00  0.00    +0.000 C 
ENDBRANCH  21  22
ENDBRANCH  20  21
ENDBRANCH  19  20
ENDBRANCH   1  19
TORSDOF 8
ENDMDL
MODEL 3
REMARK VINA RESULT:      -8.8      1.313      4.138
REMARK  Name = 
REMARK  8 active torsions:
REMARK  status: ('A' for Active; 'I' for Inactive)
REMARK    1  A    between atoms: N_6  and  C_7
REMARK    2  A    between atoms: C_7  and  C_8
REMARK    3  A    between atoms: C_8  and  C_9
REMARK    4  A    between atoms: C_9  and  C_10
REMARK    5  A    between atoms: C_10  and  C_11
REMARK    6  A    between atoms: C_11  and  C_12
REMARK    7  A    between atoms: C_12  and  C_13
REMARK    8  A    between atoms: C_13  and  N_14
REMARK                            x       y       z     vdW  Elec       q    Type
REMARK                         _______ _______ _______ _____ _____    ______ ____
ROOT
ATOM      1  C   UNL     1      -0.739   9.952  22.101  0.00  0.00    +0.000 C 
ENDROOT
BRANCH   1   2
ATOM      2  C   UNL     1       0.594   9.175  22.074  0.00  0.00    +0.000 C 
BRANCH   2   3
ATOM      3  C   UNL     1       1.164   8.969  20.638  0.00  0.00    +0.000 C 
BRANCH   3   4
ATOM      4  C   UNL     1       1.716   7.550  20.469  0.00  0.00    +0.000 C 
BRANCH   4  10
ATOM      5  C   UNL     1       1.406   2.198  20.181  0.00  0.00    +0.000 A 
ATOM      6  C   UNL     1       1.141   3.318  20.941  0.00  0.00    +0.000 A 
ATOM      7  C   UNL     1       1.466   4.597  20.491  0.00  0.00    +0.000 A 
ATOM      8  C   UNL     1       2.215   4.785  19.331  0.00  0.00    +0.000 A 
ATOM      9  C   UNL     1       2.792   6.129  18.843  0.00  0.00    +0.000 A 
ATOM     10  N   UNL     1       2.575   7.332  19.311  0.00  0.00    +0.000 NA
ATOM     11  N   UNL     1       3.671   5.948  17.779  0.00  0.00    +0.000 N 
ATOM     12  C   UNL     1       3.943   4.749  17.180  0.00  0.00    +0.000 A 
ATOM     13  N   UNL     1       3.419   3.610  17.474  0.00  0.00    +0.000 NA
ATOM     14  C   UNL     1       2.562   3.622  18.587  0.00  0.00    +0.000 A 
ATOM     15  C   UNL     1       2.108   2.354  19.000  0.00  0.00    +0.000 A 
ATOM     16  C   UNL     1       4.972   4.862  16.102  0.00  0.00    +0.000 C 
ATOM     17  C   UNL     1       5.337   6.335  16.140  0.00  0.00    +0.000 C 
ATOM     18  C   UNL     1       4.504   7.008  17.245  0.00  0.00    +0.000 C 
ENDBRANCH   4  10
ENDBRANCH   3   4
ENDBRANCH   2   3
ENDBRANCH   1   2
BRANCH   1  19
ATOM     19  C   UNL     1      -0.733  11.322  22.801  0.00  0.00    +0.000 C 
BRANCH  19  20
ATOM     20  C   UNL     1      -2.079  12.032  22.979  0.00  0.00    +0.000 C 
BRANCH  20  21
ATOM     21  C   UNL     1      -2.495  13.005  21.885  0.00  0.00    +0.000 C 
BRANCH  21  22
ATOM     22  N   UNL     1      -2.237  12.591  20.511  0.00  0.00    +0.000 NA
ATOM     23  C   UNL     1      -3.233  12.231  19.748  0.00  0.00    +0.000 A 
ATOM     24  C   UNL     1      -4.754  12.276  20.075  0.00  0.00    +0.000 A 
ATOM     25  C   UNL     1      -5.345  12.986  21.121  0.00  0.00    +0.000 A 
ATOM     26  C   UNL     1      -6.716  13.269  21.141  0.00  0.00    +0.000 A 
ATOM     27  C   UNL     1      -7.524  12.835  20.100  0.00  0.00    +0.000 A 
ATOM     28  C   UNL     1      -6.982  12.044  19.089  0.00  0.00    +0.000 A 
ATOM     29  C   UNL     1      -5.613  11.730  19.078  0.00  0.00    +0.000 A 
ATOM     30  N   UNL     1      -5.162  10.872  18.047  0.00  0.00    +0.000 NA
ATOM     31  C   UNL     1      -3.891  10.914  17.835  0.00  0.00    +0.000 A 
ATOM     32  N   UNL     1      -3.001  11.754  18.464  0.00  0.00    +0.000 N 
ATOM     33  C   UNL     1      -1.713  11.632  17.801  0.00  0.00    +0.000 C 
ATOM     34  C   UNL     1      -1.736  10.149  17.426  0.00  0.00    +0.000 C 
ATOM     35  C   UNL     1      -3.175   9.943  16.934  0.00  0.00    +0.000 C 
ENDBRANCH  21  22
ENDBRANCH  20  21
ENDBRANCH  19  20
ENDBRANCH   1  19
TORSDOF 8
ENDMDL
MODEL 4
REMARK VINA RESULT:      -8.8      1.537     10.502
REMARK  Name = 
REMARK  8 active torsions:
REMARK  status: ('A' for Active; 'I' for Inactive)
REMARK    1  A    between atoms: N_6  and  C_7
REMARK    2  A    between atoms: C_7  and  C_8
REMARK    3  A    between atoms: C_8  and  C_9
REMARK    4  A    between atoms: C_9  and  C_10
REMARK    5  A    between atoms: C_10  and  C_11
REMARK    6  A    between atoms: C_11  and  C_12
REMARK    7  A    between atoms: C_12  and  C_13
REMARK    8  A    between atoms: C_13  and  N_14
REMARK                            x       y       z     vdW  Elec       q    Type
REMARK                         _______ _______ _______ _____ _____    ______ ____
ROOT
ATOM      1  C   UNL     1       0.157   9.826  19.756  0.00  0.00    +0.000 C 
ENDROOT
BRANCH   1   2
ATOM      2  C   UNL     1       0.982  10.628  20.784  0.00  0.00    +0.000 C 
BRANCH   2   3
ATOM      3  C   UNL     1       0.849  12.172  20.619  0.00  0.00    +0.000 C 
BRANCH   3   4
ATOM      4  C   UNL     1      -0.414  12.529  19.830  0.00  0.00    +0.000 C 
BRANCH   4  10
ATOM      5  C   UNL     1      -4.070  10.949  16.230  0.00  0.00    +0.000 A 
ATOM      6  C   UNL     1      -2.751  11.288  16.444  0.00  0.00    +0.000 A 
ATOM      7  C   UNL     1      -2.291  11.665  17.706  0.00  0.00    +0.000 A 
ATOM      8  C   UNL     1      -3.175  11.871  18.763  0.00  0.00    +0.000 A 
ATOM      9  C   UNL     1      -2.807  12.467  20.136  0.00  0.00    +0.000 A 
ATOM     10  N   UNL     1      -1.622  12.743  20.620  0.00  0.00    +0.000 NA
ATOM     11  N   UNL     1      -3.943  12.746  20.890  0.00  0.00    +0.000 N 
ATOM     12  C   UNL     1      -5.226  12.465  20.510  0.00  0.00    +0.000 A 
ATOM     13  N   UNL     1      -5.592  11.878  19.423  0.00  0.00    +0.000 NA
ATOM     14  C   UNL     1      -4.551  11.601  18.521  0.00  0.00    +0.000 A 
ATOM     15  C   UNL     1      -4.966  11.097  17.273  0.00  0.00    +0.000 A 
ATOM     16  C   UNL     1      -6.240  12.934  21.503  0.00  0.00    +0.000 C 
ATOM     17  C   UNL     1      -5.384  13.597  22.567  0.00  0.00    +0.000 C 
ATOM     18  C   UNL     1      -3.911  13.485  22.138  0.00  0.00    +0.000 C 
ENDBRANCH   4  10
ENDBRANCH   3   4
ENDBRANCH   2   3
ENDBRANCH   1   2
BRANCH   1  19
ATOM     19  C   UNL     1       0.638   9.862  18.295  0.00  0.00    +0.000 C 
BRANCH  19  20
ATOM     20  C   UNL     1       2.052   9.350  18.003  0.00  0.00    +0.000 C 
BRANCH  20  21
ATOM     21  C   UNL     1       2.362   7.914  18.406  0.00  0.00    +0.000 C 
BRANCH  21  22
ATOM     22  N   UNL     1       3.491   7.278  17.737  0.00  0.00    +0.000 NA
ATOM     23  C   UNL     1       3.913   6.114  18.149  0.00  0.00    +0.000 A 
ATOM     24  C   UNL     1       3.290   5.205  19.249  0.00  0.00    +0.000 A 
ATOM     25  C   UNL     1       2.006   5.329  19.782  0.00  0.00    +0.000 A 
ATOM     26  C   UNL     1       1.396   4.285  20.488  0.00  0.00    +0.000 A 
ATOM     27  C   UNL     1       2.074   3.091  20.675  0.00  0.00    +0.000 A 
ATOM     28  C   UNL     1       3.392   2.970  20.238  0.00  0.00    +0.000 A 
ATOM     29  C   UNL     1       4.023   4.023  19.555  0.00  0.00    +0.000 A 
ATOM     30  N   UNL     1       5.380   3.834  19.202  0.00  0.00    +0.000 NA
ATOM     31  C   UNL     1       5.803   4.618  18.271  0.00  0.00    +0.000 A 
ATOM     32  N   UNL     1       5.038   5.530  17.581  0.00  0.00    +0.000 N 
ATOM     33  C   UNL     1       5.836   6.061  16.488  0.00  0.00    +0.000 C 
ATOM     34  C   UNL     1       7.220   6.069  17.138  0.00  0.00    +0.000 C 
ATOM     35  C   UNL     1       7.254   4.729  17.887  0.00  0.00    +0.000 C 
ENDBRANCH  21  22
ENDBRANCH  20  21
ENDBRANCH  19  20
ENDBRANCH   1  19
TORSDOF 8
ENDMDL
MODEL 5
REMARK VINA RESULT:      -8.8      0.761     10.159
REMARK  Name = 
REMARK  8 active torsions:
REMARK  status: ('A' for Active; 'I' for Inactive)
REMARK    1  A    between atoms: N_6  and  C_7
REMARK    2  A    between atoms: C_7  and  C_8
REMARK    3  A    between atoms: C_8  and  C_9
REMARK    4  A    between atoms: C_9  and  C_10
REMARK    5  A    between atoms: C_10  and  C_11
REMARK    6  A    between atoms: C_11  and  C_12
REMARK    7  A    between atoms: C_12  and  C_13
REMARK    8  A    between atoms: C_13  and  N_14
REMARK                            x       y       z     vdW  Elec       q    Type
REMARK                         _______ _______ _______ _____ _____    ______ ____
ROOT
ATOM      1  C   UNL     1       0.192   9.602  20.085  0.00  0.00    +0.000 C 
ENDROOT
BRANCH   1   2
ATOM      2  C   UNL     1       0.453  10.193  21.486  0.00  0.00    +0.000 C 
BRANCH   2   3
ATOM      3  C   UNL     1      -0.174  11.605  21.692  0.00  0.00    +0.000 C 
BRANCH   3   4
ATOM      4  C   UNL     1      -1.048  11.993  20.495  0.00  0.00    +0.000 C 
BRANCH   4  10
ATOM      5  C   UNL     1      -3.516  10.803  15.878  0.00  0.00    +0.000 A 
ATOM      6  C   UNL     1      -2.306  10.912  16.531  0.00  0.00    +0.000 A 
ATOM      7  C   UNL     1      -2.233  11.307  17.867  0.00  0.00    +0.000 A 
ATOM      8  C   UNL     1      -3.360  11.762  18.547  0.00  0.00    +0.000 A 
ATOM      9  C   UNL     1      -3.364  12.398  19.952  0.00  0.00    +0.000 A 
ATOM     10  N   UNL     1      -2.382  12.492  20.812  0.00  0.00    +0.000 NA
ATOM     11  N   UNL     1      -4.606  12.945  20.258  0.00  0.00    +0.000 N 
ATOM     12  C   UNL     1      -5.715  12.871  19.461  0.00  0.00    +0.000 A 
ATOM     13  N   UNL     1      -5.804  12.270  18.326  0.00  0.00    +0.000 NA
ATOM     14  C   UNL     1      -4.599  11.729  17.846  0.00  0.00    +0.000 A 
ATOM     15  C   UNL     1      -4.661  11.203  16.541  0.00  0.00    +0.000 A 
ATOM     16  C   UNL     1      -6.887  13.603  20.031  0.00  0.00    +0.000 C 
ATOM     17  C   UNL     1      -6.324  14.188  21.314  0.00  0.00    +0.000 C 
ATOM     18  C   UNL     1      -4.848  13.771  21.426  0.00  0.00    +0.000 C 
ENDBRANCH   4  10
ENDBRANCH   3   4
ENDBRANCH   2   3
ENDBRANCH   1   2
BRANCH   1  19
ATOM     19  C   UNL     1       1.131  10.054  18.952  0.00  0.00    +0.000 C 
BRANCH  19  20
ATOM     20  C   UNL     1       1.493   9.021  17.879  0.00  0.00    +0.000 C 
BRANCH  20  21
ATOM     21  C   UNL     1       2.724   8.163  18.136  0.00  0.00    +0.000 C 
BRANCH  21  22
ATOM     22  N   UNL     1       2.549   7.021  19.026  0.00  0.00    +0.000 NA
ATOM     23  C   UNL     1       3.017   5.854  18.676  0.00  0.00    +0.000 A 
ATOM     24  C   UNL     1       3.869   5.500  17.423  0.00  0.00    +0.000 A 
ATOM     25  C   UNL     1       4.541   6.412  16.607  0.00  0.00    +0.000 A 
ATOM     26  C   UNL     1       5.559   6.012  15.732  0.00  0.00    +0.000 A 
ATOM     27  C   UNL     1       5.919   4.675  15.662  0.00  0.00    +0.000 A 
ATOM     28  C   UNL     1       5.204   3.727  16.393  0.00  0.00    +0.000 A 
ATOM     29  C   UNL     1       4.161   4.117  17.249  0.00  0.00    +0.000 A 
ATOM     30  N   UNL     1       3.453   3.083  17.905  0.00  0.00    +0.000 NA
ATOM     31  C   UNL     1       2.789   3.466  18.942  0.00  0.00    +0.000 A 
ATOM     32  N   UNL     1       2.788   4.736  19.469  0.00  0.00    +0.000 N 
ATOM     33  C   UNL     1       2.085   4.701  20.741  0.00  0.00    +0.000 C 
ATOM     34  C   UNL     1       1.022   3.645  20.438  0.00  0.00    +0.000 C 
ATOM     35  C   UNL     1       1.809   2.580  19.663  0.00  0.00    +0.000 C 
ENDBRANCH  21  22
ENDBRANCH  20  21
ENDBRANCH  19  20
ENDBRANCH   1  19
TORSDOF 8
ENDMDL
MODEL 6
REMARK VINA RESULT:      -8.6      2.076      4.421
REMARK  Name = 
REMARK  8 active torsions:
REMARK  status: ('A' for Active; 'I' for Inactive)
REMARK    1  A    between atoms: N_6  and  C_7
REMARK    2  A    between atoms: C_7  and  C_8
REMARK    3  A    between atoms: C_8  and  C_9
REMARK    4  A    between atoms: C_9  and  C_10
REMARK    5  A    between atoms: C_10  and  C_11
REMARK    6  A    between atoms: C_11  and  C_12
REMARK    7  A    between atoms: C_12  and  C_13
REMARK    8  A    between atoms: C_13  and  N_14
REMARK                            x       y       z     vdW  Elec       q    Type
REMARK                         _______ _______ _______ _____ _____    ______ ____
ROOT
ATOM      1  C   UNL     1       0.959   9.779  20.132  0.00  0.00    +0.000 C 
ENDROOT
BRANCH   1   2
ATOM      2  C   UNL     1       1.617  10.224  18.809  0.00  0.00    +0.000 C 
BRANCH   2   3
ATOM      3  C   UNL     1       1.585   9.129  17.700  0.00  0.00    +0.000 C 
BRANCH   3   4
ATOM      4  C   UNL     1       2.052   7.779  18.253  0.00  0.00    +0.000 C 
BRANCH   4  10
ATOM      5  C   UNL     1       2.350   3.201  21.041  0.00  0.00    +0.000 A 
ATOM      6  C   UNL     1       1.658   4.379  20.850  0.00  0.00    +0.000 A 
ATOM      7  C   UNL     1       2.060   5.312  19.895  0.00  0.00    +0.000 A 
ATOM      8  C   UNL     1       3.264   5.170  19.208  0.00  0.00    +0.000 A 
ATOM      9  C   UNL     1       3.897   6.225  18.279  0.00  0.00    +0.000 A 
ATOM     10  N   UNL     1       3.384   7.347  17.844  0.00  0.00    +0.000 NA
ATOM     11  N   UNL     1       5.196   5.874  17.924  0.00  0.00    +0.000 N 
ATOM     12  C   UNL     1       5.821   4.712  18.281  0.00  0.00    +0.000 A 
ATOM     13  N   UNL     1       5.314   3.749  18.969  0.00  0.00    +0.000 NA
ATOM     14  C   UNL     1       4.022   3.993  19.466  0.00  0.00    +0.000 A 
ATOM     15  C   UNL     1       3.526   3.007  20.341  0.00  0.00    +0.000 A 
ATOM     16  C   UNL     1       7.235   4.643  17.798  0.00  0.00    +0.000 C 
ATOM     17  C   UNL     1       7.416   5.980  17.102  0.00  0.00    +0.000 C 
ATOM     18  C   UNL     1       6.097   6.765  17.218  0.00  0.00    +0.000 C 
ENDBRANCH   4  10
ENDBRANCH   3   4
ENDBRANCH   2   3
ENDBRANCH   1   2
BRANCH   1  19
ATOM     19  C   UNL     1      -0.508  10.187  20.353  0.00  0.00    +0.000 C 
BRANCH  19  20
ATOM     20  C   UNL     1      -1.228  10.891  19.198  0.00  0.00    +0.000 C 
BRANCH  20  21
ATOM     21  C   UNL     1      -1.868  12.238  19.503  0.00  0.00    +0.000 C 
BRANCH  21  22
ATOM     22  N   UNL     1      -3.309  12.337  19.299  0.00  0.00    +0.000 NA
ATOM     23  C   UNL     1      -4.093  12.532  20.325  0.00  0.00    +0.000 A 
ATOM     24  C   UNL     1      -3.687  12.787  21.805  0.00  0.00    +0.000 A 
ATOM     25  C   UNL     1      -2.417  13.153  22.254  0.00  0.00    +0.000 A 
ATOM     26  C   UNL     1      -2.212  13.706  23.524  0.00  0.00    +0.000 A 
ATOM     27  C   UNL     1      -3.291  13.898  24.373  0.00  0.00    +0.000 A 
ATOM     28  C   UNL     1      -4.557  13.457  23.992  0.00  0.00    +0.000 A 
ATOM     29  C   UNL     1      -4.765  12.873  22.732  0.00  0.00    +0.000 A 
ATOM     30  N   UNL     1      -6.070  12.400  22.454  0.00  0.00    +0.000 NA
ATOM     31  C   UNL     1      -6.322  12.234  21.201  0.00  0.00    +0.000 A 
ATOM     32  N   UNL     1      -5.473  12.545  20.164  0.00  0.00    +0.000 N 
ATOM     33  C   UNL     1      -6.205  12.402  18.917  0.00  0.00    +0.000 C 
ATOM     34  C   UNL     1      -7.115  11.223  19.266  0.00  0.00    +0.000 C 
ATOM     35  C   UNL     1      -7.564  11.551  20.696  0.00  0.00    +0.000 C 
ENDBRANCH  21  22
ENDBRANCH  20  21
ENDBRANCH  19  20
ENDBRANCH   1  19
TORSDOF 8
ENDMDL
MODEL 7
REMARK VINA RESULT:      -8.6      1.846     11.171
REMARK  Name = 
REMARK  8 active torsions:
REMARK  status: ('A' for Active; 'I' for Inactive)
REMARK    1  A    between atoms: N_6  and  C_7
REMARK    2  A    between atoms: C_7  and  C_8
REMARK    3  A    between atoms: C_8  and  C_9
REMARK    4  A    between atoms: C_9  and  C_10
REMARK    5  A    between atoms: C_10  and  C_11
REMARK    6  A    between atoms: C_11  and  C_12
REMARK    7  A    between atoms: C_12  and  C_13
REMARK    8  A    between atoms: C_13  and  N_14
REMARK                            x       y       z     vdW  Elec       q    Type
REMARK                         _______ _______ _______ _____ _____    ______ ____
ROOT
ATOM      1  C   UNL     1       0.943  11.289  18.802  0.00  0.00    +0.000 C 
ENDROOT
BRANCH   1   2
ATOM      2  C   UNL     1       0.981  11.245  20.344  0.00  0.00    +0.000 C 
BRANCH   2   3
ATOM      3  C   UNL     1      -0.429  11.117  20.996  0.00  0.00    +0.000 C 
BRANCH   3   4
ATOM      4  C   UNL     1      -1.240  12.401  20.797  0.00  0.00    +0.000 C 
BRANCH   4  10
ATOM      5  C   UNL     1      -5.286  12.871  24.295  0.00  0.00    +0.000 A 
ATOM      6  C   UNL     1      -3.930  12.669  24.136  0.00  0.00    +0.000 A 
ATOM      7  C   UNL     1      -3.343  12.628  22.872  0.00  0.00    +0.000 A 
ATOM      8  C   UNL     1      -4.120  12.629  21.715  0.00  0.00    +0.000 A 
ATOM      9  C   UNL     1      -3.598  12.396  20.284  0.00  0.00    +0.000 A 
ATOM     10  N   UNL     1      -2.360  12.312  19.866  0.00  0.00    +0.000 NA
ATOM     11  N   UNL     1      -4.645  12.239  19.380  0.00  0.00    +0.000 N 
ATOM     12  C   UNL     1      -5.972  12.348  19.690  0.00  0.00    +0.000 A 
ATOM     13  N   UNL     1      -6.469  12.639  20.842  0.00  0.00    +0.000 NA
ATOM     14  C   UNL     1      -5.529  12.754  21.880  0.00  0.00    +0.000 A 
ATOM     15  C   UNL     1      -6.080  12.923  23.165  0.00  0.00    +0.000 A 
ATOM     16  C   UNL     1      -6.863  12.070  18.522  0.00  0.00    +0.000 C 
ATOM     17  C   UNL     1      -5.875  11.729  17.421  0.00  0.00    +0.000 C 
ATOM     18  C   UNL     1      -4.455  11.820  18.005  0.00  0.00    +0.000 C 
ENDBRANCH   4  10
ENDBRANCH   3   4
ENDBRANCH   2   3
ENDBRANCH   1   2
BRANCH   1  19
ATOM     19  C   UNL     1       1.925  10.370  18.054  0.00  0.00    +0.000 C 
BRANCH  19  20
ATOM     20  C   UNL     1       1.513   8.909  17.853  0.00  0.00    +0.000 C 
BRANCH  20  21
ATOM     21  C   UNL     1       2.311   7.857  18.610  0.00  0.00    +0.000 C 
BRANCH  21  22
ATOM     22  N   UNL     1       3.462   7.288  17.918  0.00  0.00    +0.000 NA
ATOM     23  C   UNL     1       3.907   6.111  18.266  0.00  0.00    +0.000 A 
ATOM     24  C   UNL     1       3.295   5.125  19.303  0.00  0.00    +0.000 A 
ATOM     25  C   UNL     1       2.002   5.186  19.827  0.00  0.00    +0.000 A 
ATOM     26  C   UNL     1       1.409   4.089  20.463  0.00  0.00    +0.000 A 
ATOM     27  C   UNL     1       2.114   2.902  20.587  0.00  0.00    +0.000 A 
ATOM     28  C   UNL     1       3.439   2.837  20.160  0.00  0.00    +0.000 A 
ATOM     29  C   UNL     1       4.051   3.943  19.548  0.00  0.00    +0.000 A 
ATOM     30  N   UNL     1       5.417   3.807  19.201  0.00  0.00    +0.000 NA
ATOM     31  C   UNL     1       5.831   4.655  18.323  0.00  0.00    +0.000 A 
ATOM     32  N   UNL     1       5.051   5.587  17.678  0.00  0.00    +0.000 N 
ATOM     33  C   UNL     1       5.849   6.201  16.628  0.00  0.00    +0.000 C 
ATOM     34  C   UNL     1       7.225   6.203  17.294  0.00  0.00    +0.000 C 
ATOM     35  C   UNL     1       7.283   4.822  17.963  0.00  0.00    +0.000 C 
ENDBRANCH  21  22
ENDBRANCH  20  21
ENDBRANCH  19  20
ENDBRANCH   1  19
TORSDOF 8
ENDMDL
MODEL 8
REMARK VINA RESULT:      -8.6      3.125      5.008
REMARK  Name = 
REMARK  8 active torsions:
REMARK  status: ('A' for Active; 'I' for Inactive)
REMARK    1  A    between atoms: N_6  and  C_7
REMARK    2  A    between atoms: C_7  and  C_8
REMARK    3  A    between atoms: C_8  and  C_9
REMARK    4  A    between atoms: C_9  and  C_10
REMARK    5  A    between atoms: C_10  and  C_11
REMARK    6  A    between atoms: C_11  and  C_12
REMARK    7  A    between atoms: C_12  and  C_13
REMARK    8  A    between atoms: C_13  and  N_14
REMARK                            x       y       z     vdW  Elec       q    Type
REMARK                         _______ _______ _______ _____ _____    ______ ____
ROOT
ATOM      1  C   UNL     1       1.016   8.630  20.949  0.00  0.00    +0.000 C 
ENDROOT
BRANCH   1   2
ATOM      2  C   UNL     1       0.933   9.503  19.679  0.00  0.00    +0.000 C 
BRANCH   2   3
ATOM      3  C   UNL     1       1.745   8.931  18.478  0.00  0.00    +0.000 C 
BRANCH   3   4
ATOM      4  C   UNL     1       2.386   7.588  18.844  0.00  0.00    +0.000 C 
BRANCH   4  10
ATOM      5  C   UNL     1       1.647   2.341  19.707  0.00  0.00    +0.000 A 
ATOM      6  C   UNL     1       1.394   3.620  20.159  0.00  0.00    +0.000 A 
ATOM      7  C   UNL     1       1.880   4.740  19.484  0.00  0.00    +0.000 A 
ATOM      8  C   UNL     1       2.772   4.611  18.421  0.00  0.00    +0.000 A 
ATOM      9  C   UNL     1       3.516   5.770  17.730  0.00  0.00    +0.000 A 
ATOM     10  N   UNL     1       3.352   7.059  17.887  0.00  0.00    +0.000 NA
ATOM     11  N   UNL     1       4.494   5.299  16.859  0.00  0.00    +0.000 N 
ATOM     12  C   UNL     1       4.728   3.980  16.581  0.00  0.00    +0.000 A 
ATOM     13  N   UNL     1       4.077   2.972  17.048  0.00  0.00    +0.000 NA
ATOM     14  C   UNL     1       3.100   3.289  18.006  0.00  0.00    +0.000 A 
ATOM     15  C   UNL     1       2.492   2.180  18.625  0.00  0.00    +0.000 A 
ATOM     16  C   UNL     1       5.881   3.781  15.651  0.00  0.00    +0.000 C 
ATOM     17  C   UNL     1       6.366   5.199  15.411  0.00  0.00    +0.000 C 
ATOM     18  C   UNL     1       5.472   6.156  16.219  0.00  0.00    +0.000 C 
ENDBRANCH   4  10
ENDBRANCH   3   4
ENDBRANCH   2   3
ENDBRANCH   1   2
BRANCH   1  19
ATOM     19  C   UNL     1       1.008   9.364  22.302  0.00  0.00    +0.000 C 
BRANCH  19  20
ATOM     20  C   UNL     1      -0.293   9.342  23.111  0.00  0.00    +0.000 C 
BRANCH  20  21
ATOM     21  C   UNL     1      -1.066  10.650  23.210  0.00  0.00    +0.000 C 
BRANCH  21  22
ATOM     22  N   UNL     1      -0.425  11.830  22.641  0.00  0.00    +0.000 NA
ATOM     23  C   UNL     1      -1.136  12.899  22.404  0.00  0.00    +0.000 A 
ATOM     24  C   UNL     1      -2.633  13.148  22.750  0.00  0.00    +0.000 A 
ATOM     25  C   UNL     1      -3.403  12.398  23.640  0.00  0.00    +0.000 A 
ATOM     26  C   UNL     1      -4.607  12.882  24.166  0.00  0.00    +0.000 A 
ATOM     27  C   UNL     1      -5.062  14.139  23.800  0.00  0.00    +0.000 A 
ATOM     28  C   UNL     1      -4.366  14.873  22.841  0.00  0.00    +0.000 A 
ATOM     29  C   UNL     1      -3.173  14.381  22.286  0.00  0.00    +0.000 A 
ATOM     30  N   UNL     1      -2.567  15.167  21.276  0.00  0.00    +0.000 NA
ATOM     31  C   UNL     1      -1.322  14.902  21.071  0.00  0.00    +0.000 A 
ATOM     32  N   UNL     1      -0.564  14.004  21.786  0.00  0.00    +0.000 N 
ATOM     33  C   UNL     1       0.823  14.151  21.378  0.00  0.00    +0.000 C 
ATOM     34  C   UNL     1       0.640  14.489  19.898  0.00  0.00    +0.000 C 
ATOM     35  C   UNL     1      -0.542  15.468  19.915  0.00  0.00    +0.000 C 
ENDBRANCH  21  22
ENDBRANCH  20  21
ENDBRANCH  19  20
ENDBRANCH   1  19
TORSDOF 8
ENDMDL
MODEL 9
REMARK VINA RESULT:      -8.6      1.694      3.391
REMARK  Name = 
REMARK  8 active torsions:
REMARK  status: ('A' for Active; 'I' for Inactive)
REMARK    1  A    between atoms: N_6  and  C_7
REMARK    2  A    between atoms: C_7  and  C_8
REMARK    3  A    between atoms: C_8  and  C_9
REMARK    4  A    between atoms: C_9  and  C_10
REMARK    5  A    between atoms: C_10  and  C_11
REMARK    6  A    between atoms: C_11  and  C_12
REMARK    7  A    between atoms: C_12  and  C_13
REMARK    8  A    between atoms: C_13  and  N_14
REMARK                            x       y       z     vdW  Elec       q    Type
REMARK                         _______ _______ _______ _____ _____    ______ ____
ROOT
ATOM      1  C   UNL     1       0.482  10.807  18.817  0.00  0.00    +0.000 C 
ENDROOT
BRANCH   1   2
ATOM      2  C   UNL     1       1.829  10.262  18.297  0.00  0.00    +0.000 C 
BRANCH   2   3
ATOM      3  C   UNL     1       1.723   8.836  17.676  0.00  0.00    +0.000 C 
BRANCH   3   4
ATOM      4  C   UNL     1       2.842   7.929  18.200  0.00  0.00    +0.000 C 
BRANCH   4  10
ATOM      5  C   UNL     1       6.005   4.755  15.243  0.00  0.00    +0.000 A 
ATOM      6  C   UNL     1       5.509   6.030  15.417  0.00  0.00    +0.000 A 
ATOM      7  C   UNL     1       4.624   6.332  16.452  0.00  0.00    +0.000 A 
ATOM      8  C   UNL     1       4.081   5.329  17.252  0.00  0.00    +0.000 A 
ATOM      9  C   UNL     1       2.958   5.521  18.292  0.00  0.00    +0.000 A 
ATOM     10  N   UNL     1       2.423   6.635  18.724  0.00  0.00    +0.000 NA
ATOM     11  N   UNL     1       2.488   4.299  18.763  0.00  0.00    +0.000 N 
ATOM     12  C   UNL     1       2.995   3.077  18.418  0.00  0.00    +0.000 A 
ATOM     13  N   UNL     1       3.994   2.855  17.635  0.00  0.00    +0.000 NA
ATOM     14  C   UNL     1       4.529   3.999  17.019  0.00  0.00    +0.000 A 
ATOM     15  C   UNL     1       5.520   3.743  16.052  0.00  0.00    +0.000 A 
ATOM     16  C   UNL     1       2.247   1.943  19.041  0.00  0.00    +0.000 C 
ATOM     17  C   UNL     1       1.150   2.652  19.815  0.00  0.00    +0.000 C 
ATOM     18  C   UNL     1       1.312   4.166  19.601  0.00  0.00    +0.000 C 
ENDBRANCH   4  10
ENDBRANCH   3   4
ENDBRANCH   2   3
ENDBRANCH   1   2
BRANCH   1  19
ATOM     19  C   UNL     1      -0.796  10.161  18.254  0.00  0.00    +0.000 C 
BRANCH  19  20
ATOM     20  C   UNL     1      -1.978  11.084  17.944  0.00  0.00    +0.000 C 
BRANCH  20  21
ATOM     21  C   UNL     1      -2.439  12.012  19.060  0.00  0.00    +0.000 C 
BRANCH  21  22
ATOM     22  N   UNL     1      -3.879  12.188  19.208  0.00  0.00    +0.000 NA
ATOM     23  C   UNL     1      -4.376  12.481  20.379  0.00  0.00    +0.000 A 
ATOM     24  C   UNL     1      -3.605  12.786  21.697  0.00  0.00    +0.000 A 
ATOM     25  C   UNL     1      -2.248  13.096  21.797  0.00  0.00    +0.000 A 
ATOM     26  C   UNL     1      -1.710  13.699  22.941  0.00  0.00    +0.000 A 
ATOM     27  C   UNL     1      -2.536  13.999  24.014  0.00  0.00    +0.000 A 
ATOM     28  C   UNL     1      -3.876  13.616  23.982  0.00  0.00    +0.000 A 
ATOM     29  C   UNL     1      -4.416  12.983  22.851  0.00  0.00    +0.000 A 
ATOM     30  N   UNL     1      -5.769  12.577  22.931  0.00  0.00    +0.000 NA
ATOM     31  C   UNL     1      -6.331  12.364  21.790  0.00  0.00    +0.000 A 
ATOM     32  N   UNL     1      -5.751  12.570  20.560  0.00  0.00    +0.000 N 
ATOM     33  C   UNL     1      -6.775  12.409  19.540  0.00  0.00    +0.000 C 
ATOM     34  C   UNL     1      -7.623  11.307  20.175  0.00  0.00    +0.000 C 
ATOM     35  C   UNL     1      -7.690  11.732  21.648  0.00  0.00    +0.000 C 
ENDBRANCH  21  22
ENDBRANCH  20  21
ENDBRANCH  19  20
ENDBRANCH   1  19
TORSDOF 8
ENDMDL
