MODEL 1
REMARK VINA RESULT:      -5.1      0.000      0.000
REMARK  Name = 
REMARK  12 active torsions:
REMARK  status: ('A' for Active; 'I' for Inactive)
REMARK    1  A    between atoms: C_1  and  C_2
REMARK    2  A    between atoms: C_2  and  C_3
REMARK    3  A    between atoms: C_3  and  C_4
REMARK    4  A    between atoms: C_4  and  C_5
REMARK    5  A    between atoms: C_5  and  C_6
REMARK    6  A    between atoms: C_6  and  C_7
REMARK    7  A    between atoms: C_7  and  C_8
REMARK    8  A    between atoms: C_8  and  C_9
REMARK    9  A    between atoms: C_9  and  C_10
REMARK   10  A    between atoms: C_10  and  C_12
REMARK   11  A    between atoms: C_12  and  C_13
REMARK   12  A    between atoms: C_13  and  C_14
REMARK                            x       y       z     vdW  Elec       q    Type
REMARK                         _______ _______ _______ _____ _____    ______ ____
ROOT
ATOM      1  C   UNL     1       3.693   4.681  17.391  0.00  0.00    +0.000 C 
ENDROOT
BRANCH   1   2
ATOM      2  C   UNL     1       3.659   3.291  18.005  0.00  0.00    +0.000 C 
BRANCH   2   3
ATOM      3  C   UNL     1       2.317   2.637  17.734  0.00  0.00    +0.000 C 
BRANCH   3   4
ATOM      4  C   UNL     1       1.736   2.083  19.023  0.00  0.00    +0.000 C 
BRANCH   4   5
ATOM      5  C   UNL     1       2.210   2.911  20.205  0.00  0.00    +0.000 C 
BRANCH   5   7
ATOM      6  C   UNL     1       1.733   5.333  20.551  0.00  0.00    +0.000 C 
ATOM      7  C   UNL     1       1.153   3.934  20.594  0.00  0.00    +0.000 C 
ENDBRANCH   5   7
ENDBRANCH   4   5
ENDBRANCH   3   4
ENDBRANCH   2   3
ENDBRANCH   1   2
BRANCH   1   8
ATOM      8  C   UNL     1       4.824   5.485  18.003  0.00  0.00    +0.000 C 
BRANCH   8   9
ATOM      9  C   UNL     1       5.997   4.591  18.358  0.00  0.00    +0.000 C 
BRANCH   9  10
ATOM     10  C   UNL     1       7.091   4.740  17.319  0.00  0.00    +0.000 C 
ATOM     11  O   UNL     1       8.176   4.183  17.437  0.00  0.00    +0.000 OA
BRANCH  10  12
ATOM     12  C   UNL     1       6.794   5.620  16.130  0.00  0.00    +0.000 C 
BRANCH  12  13
ATOM     13  C   UNL     1       7.079   4.877  14.833  0.00  0.00    +0.000 C 
ATOM     14  C   UNL     1       5.953   3.921  14.489  0.00  0.00    +0.000 C 
ENDBRANCH  12  13
ENDBRANCH  10  12
ENDBRANCH   9  10
ENDBRANCH   8   9
ENDBRANCH   1   8
TORSDOF 10
ENDMDL
MODEL 2
REMARK VINA RESULT:      -5.0      1.801      2.406
REMARK  Name = 
REMARK  12 active torsions:
REMARK  status: ('A' for Active; 'I' for Inactive)
REMARK    1  A    between atoms: C_1  and  C_2
REMARK    2  A    between atoms: C_2  and  C_3
REMARK    3  A    between atoms: C_3  and  C_4
REMARK    4  A    between atoms: C_4  and  C_5
REMARK    5  A    between atoms: C_5  and  C_6
REMARK    6  A    between atoms: C_6  and  C_7
REMARK    7  A    between atoms: C_7  and  C_8
REMARK    8  A    between atoms: C_8  and  C_9
REMARK    9  A    between atoms: C_9  and  C_10
REMARK   10  A    between atoms: C_10  and  C_12
REMARK   11  A    between atoms: C_12  and  C_13
REMARK   12  A    between atoms: C_13  and  C_14
REMARK                            x       y       z     vdW  Elec       q    Type
REMARK                         _______ _______ _______ _____ _____    ______ ____
ROOT
ATOM      1  C   UNL     1       3.614   3.993  17.242  0.00  0.00    +0.000 C 
ENDROOT
BRANCH   1   2
ATOM      2  C   UNL     1       3.462   2.670  17.974  0.00  0.00    +0.000 C 
BRANCH   2   3
ATOM      3  C   UNL     1       1.997   2.276  18.035  0.00  0.00    +0.000 C 
BRANCH   3   4
ATOM      4  C   UNL     1       1.226   3.268  18.890  0.00  0.00    +0.000 C 
BRANCH   4   5
ATOM      5  C   UNL     1       1.298   2.860  20.352  0.00  0.00    +0.000 C 
BRANCH   5   7
ATOM      6  C   UNL     1       1.708   5.308  20.569  0.00  0.00    +0.000 C 
ATOM      7  C   UNL     1       1.980   3.946  21.172  0.00  0.00    +0.000 C 
ENDBRANCH   5   7
ENDBRANCH   4   5
ENDBRANCH   3   4
ENDBRANCH   2   3
ENDBRANCH   1   2
BRANCH   1   8
ATOM      8  C   UNL     1       4.371   4.977  18.112  0.00  0.00    +0.000 C 
BRANCH   8   9
ATOM      9  C   UNL     1       4.394   6.356  17.481  0.00  0.00    +0.000 C 
BRANCH   9  10
ATOM     10  C   UNL     1       5.432   6.401  16.378  0.00  0.00    +0.000 C 
ATOM     11  O   UNL     1       5.153   6.759  15.240  0.00  0.00    +0.000 OA
BRANCH  10  12
ATOM     12  C   UNL     1       6.834   5.971  16.736  0.00  0.00    +0.000 C 
BRANCH  12  13
ATOM     13  C   UNL     1       7.420   6.892  17.795  0.00  0.00    +0.000 C 
ATOM     14  C   UNL     1       7.963   6.103  18.971  0.00  0.00    +0.000 C 
ENDBRANCH  12  13
ENDBRANCH  10  12
ENDBRANCH   9  10
ENDBRANCH   8   9
ENDBRANCH   1   8
TORSDOF 10
ENDMDL
MODEL 3
REMARK VINA RESULT:      -5.0      2.115      6.019
REMARK  Name = 
REMARK  12 active torsions:
REMARK  status: ('A' for Active; 'I' for Inactive)
REMARK    1  A    between atoms: C_1  and  C_2
REMARK    2  A    between atoms: C_2  and  C_3
REMARK    3  A    between atoms: C_3  and  C_4
REMARK    4  A    between atoms: C_4  and  C_5
REMARK    5  A    between atoms: C_5  and  C_6
REMARK    6  A    between atoms: C_6  and  C_7
REMARK    7  A    between atoms: C_7  and  C_8
REMARK    8  A    between atoms: C_8  and  C_9
REMARK    9  A    between atoms: C_9  and  C_10
REMARK   10  A    between atoms: C_10  and  C_12
REMARK   11  A    between atoms: C_12  and  C_13
REMARK   12  A    between atoms: C_13  and  C_14
REMARK                            x       y       z     vdW  Elec       q    Type
REMARK                         _______ _______ _______ _____ _____    ______ ____
ROOT
ATOM      1  C   UNL     1       4.486   3.197  19.040  0.00  0.00    +0.000 C 
ENDROOT
BRANCH   1   2
ATOM      2  C   UNL     1       4.916   4.654  19.093  0.00  0.00    +0.000 C 
BRANCH   2   3
ATOM      3  C   UNL     1       4.532   5.355  17.803  0.00  0.00    +0.000 C 
BRANCH   3   4
ATOM      4  C   UNL     1       5.738   6.071  17.219  0.00  0.00    +0.000 C 
BRANCH   4   5
ATOM      5  C   UNL     1       6.913   5.114  17.120  0.00  0.00    +0.000 C 
BRANCH   5   7
ATOM      6  C   UNL     1       6.387   5.068  14.685  0.00  0.00    +0.000 C 
ATOM      7  C   UNL     1       6.778   4.233  15.887  0.00  0.00    +0.000 C 
ENDBRANCH   5   7
ENDBRANCH   4   5
ENDBRANCH   3   4
ENDBRANCH   2   3
ENDBRANCH   1   2
BRANCH   1   8
ATOM      8  C   UNL     1       3.868   2.893  17.690  0.00  0.00    +0.000 C 
BRANCH   8   9
ATOM      9  C   UNL     1       2.549   2.162  17.847  0.00  0.00    +0.000 C 
BRANCH   9  10
ATOM     10  C   UNL     1       1.453   3.147  18.203  0.00  0.00    +0.000 C 
ATOM     11  O   UNL     1       1.197   4.115  17.496  0.00  0.00    +0.000 OA
BRANCH  10  12
ATOM     12  C   UNL     1       0.692   2.897  19.483  0.00  0.00    +0.000 C 
BRANCH  12  13
ATOM     13  C   UNL     1       1.130   3.875  20.563  0.00  0.00    +0.000 C 
ATOM     14  C   UNL     1       1.907   3.172  21.659  0.00  0.00    +0.000 C 
ENDBRANCH  12  13
ENDBRANCH  10  12
ENDBRANCH   9  10
ENDBRANCH   8   9
ENDBRANCH   1   8
TORSDOF 10
ENDMDL
MODEL 4
REMARK VINA RESULT:      -5.0      2.908      5.521
REMARK  Name = 
REMARK  12 active torsions:
REMARK  status: ('A' for Active; 'I' for Inactive)
REMARK    1  A    between atoms: C_1  and  C_2
REMARK    2  A    between atoms: C_2  and  C_3
REMARK    3  A    between atoms: C_3  and  C_4
REMARK    4  A    between atoms: C_4  and  C_5
REMARK    5  A    between atoms: C_5  and  C_6
REMARK    6  A    between atoms: C_6  and  C_7
REMARK    7  A    between atoms: C_7  and  C_8
REMARK    8  A    between atoms: C_8  and  C_9
REMARK    9  A    between atoms: C_9  and  C_10
REMARK   10  A    between atoms: C_10  and  C_12
REMARK   11  A    between atoms: C_12  and  C_13
REMARK   12  A    between atoms: C_13  and  C_14
REMARK                            x       y       z     vdW  Elec       q    Type
REMARK                         _______ _______ _______ _____ _____    ______ ____
ROOT
ATOM      1  C   UNL     1       3.704   3.025  18.031  0.00  0.00    +0.000 C 
ENDROOT
BRANCH   1   2
ATOM      2  C   UNL     1       4.880   3.894  17.616  0.00  0.00    +0.000 C 
BRANCH   2   3
ATOM      3  C   UNL     1       5.373   4.701  18.803  0.00  0.00    +0.000 C 
BRANCH   3   4
ATOM      4  C   UNL     1       4.387   5.811  19.124  0.00  0.00    +0.000 C 
BRANCH   4   5
ATOM      5  C   UNL     1       4.006   6.552  17.854  0.00  0.00    +0.000 C 
BRANCH   5   7
ATOM      6  C   UNL     1       2.273   7.252  19.502  0.00  0.00    +0.000 C 
ATOM      7  C   UNL     1       2.838   7.491  18.117  0.00  0.00    +0.000 C 
ENDBRANCH   5   7
ENDBRANCH   4   5
ENDBRANCH   3   4
ENDBRANCH   2   3
ENDBRANCH   1   2
BRANCH   1   8
ATOM      8  C   UNL     1       2.543   3.244  17.080  0.00  0.00    +0.000 C 
BRANCH   8   9
ATOM      9  C   UNL     1       1.440   4.045  17.745  0.00  0.00    +0.000 C 
BRANCH   9  10
ATOM     10  C   UNL     1       0.855   3.255  18.900  0.00  0.00    +0.000 C 
ATOM     11  O   UNL     1       0.306   2.172  18.732  0.00  0.00    +0.000 OA
BRANCH  10  12
ATOM     12  C   UNL     1       0.964   3.866  20.276  0.00  0.00    +0.000 C 
BRANCH  12  13
ATOM     13  C   UNL     1       1.323   2.803  21.303  0.00  0.00    +0.000 C 
ATOM     14  C   UNL     1       2.825   2.673  21.459  0.00  0.00    +0.000 C 
ENDBRANCH  12  13
ENDBRANCH  10  12
ENDBRANCH   9  10
ENDBRANCH   8   9
ENDBRANCH   1   8
TORSDOF 10
ENDMDL
MODEL 5
REMARK VINA RESULT:      -5.0      1.356      2.176
REMARK  Name = 
REMARK  12 active torsions:
REMARK  status: ('A' for Active; 'I' for Inactive)
REMARK    1  A    between atoms: C_1  and  C_2
REMARK    2  A    between atoms: C_2  and  C_3
REMARK    3  A    between atoms: C_3  and  C_4
REMARK    4  A    between atoms: C_4  and  C_5
REMARK    5  A    between atoms: C_5  and  C_6
REMARK    6  A    between atoms: C_6  and  C_7
REMARK    7  A    between atoms: C_7  and  C_8
REMARK    8  A    between atoms: C_8  and  C_9
REMARK    9  A    between atoms: C_9  and  C_10
REMARK   10  A    between atoms: C_10  and  C_12
REMARK   11  A    between atoms: C_12  and  C_13
REMARK   12  A    between atoms: C_13  and  C_14
REMARK                            x       y       z     vdW  Elec       q    Type
REMARK                         _______ _______ _______ _____ _____    ______ ____
ROOT
ATOM      1  C   UNL     1       4.199   3.654  17.792  0.00  0.00    +0.000 C 
ENDROOT
BRANCH   1   2
ATOM      2  C   UNL     1       2.815   3.345  17.245  0.00  0.00    +0.000 C 
BRANCH   2   3
ATOM      3  C   UNL     1       2.200   2.189  18.013  0.00  0.00    +0.000 C 
BRANCH   3   4
ATOM      4  C   UNL     1       2.231   2.477  19.504  0.00  0.00    +0.000 C 
BRANCH   4   5
ATOM      5  C   UNL     1       0.880   3.001  19.960  0.00  0.00    +0.000 C 
BRANCH   5   7
ATOM      6  C   UNL     1       2.365   4.791  20.856  0.00  0.00    +0.000 C 
ATOM      7  C   UNL     1       0.979   4.473  20.331  0.00  0.00    +0.000 C 
ENDBRANCH   5   7
ENDBRANCH   4   5
ENDBRANCH   3   4
ENDBRANCH   2   3
ENDBRANCH   1   2
BRANCH   1   8
ATOM      8  C   UNL     1       4.526   5.116  17.562  0.00  0.00    +0.000 C 
BRANCH   8   9
ATOM      9  C   UNL     1       5.671   5.270  16.578  0.00  0.00    +0.000 C 
BRANCH   9  10
ATOM     10  C   UNL     1       6.994   5.097  17.297  0.00  0.00    +0.000 C 
ATOM     11  O   UNL     1       7.925   4.474  16.800  0.00  0.00    +0.000 OA
BRANCH  10  12
ATOM     12  C   UNL     1       7.118   5.717  18.668  0.00  0.00    +0.000 C 
BRANCH  12  13
ATOM     13  C   UNL     1       8.107   6.873  18.643  0.00  0.00    +0.000 C 
ATOM     14  C   UNL     1       7.725   7.899  17.594  0.00  0.00    +0.000 C 
ENDBRANCH  12  13
ENDBRANCH  10  12
ENDBRANCH   9  10
ENDBRANCH   8   9
ENDBRANCH   1   8
TORSDOF 10
ENDMDL
MODEL 6
REMARK VINA RESULT:      -4.9      1.035      1.235
REMARK  Name = 
REMARK  12 active torsions:
REMARK  status: ('A' for Active; 'I' for Inactive)
REMARK    1  A    between atoms: C_1  and  C_2
REMARK    2  A    between atoms: C_2  and  C_3
REMARK    3  A    between atoms: C_3  and  C_4
REMARK    4  A    between atoms: C_4  and  C_5
REMARK    5  A    between atoms: C_5  and  C_6
REMARK    6  A    between atoms: C_6  and  C_7
REMARK    7  A    between atoms: C_7  and  C_8
REMARK    8  A    between atoms: C_8  and  C_9
REMARK    9  A    between atoms: C_9  and  C_10
REMARK   10  A    between atoms: C_10  and  C_12
REMARK   11  A    between atoms: C_12  and  C_13
REMARK   12  A    between atoms: C_13  and  C_14
REMARK                            x       y       z     vdW  Elec       q    Type
REMARK                         _______ _______ _______ _____ _____    ______ ____
ROOT
ATOM      1  C   UNL     1       3.271   4.964  17.997  0.00  0.00    +0.000 C 
ENDROOT
BRANCH   1   2
ATOM      2  C   UNL     1       2.334   4.003  17.284  0.00  0.00    +0.000 C 
BRANCH   2   3
ATOM      3  C   UNL     1       2.343   2.655  17.984  0.00  0.00    +0.000 C 
BRANCH   3   4
ATOM      4  C   UNL     1       1.061   2.471  18.778  0.00  0.00    +0.000 C 
BRANCH   4   5
ATOM      5  C   UNL     1       0.975   3.519  19.875  0.00  0.00    +0.000 C 
BRANCH   5   7
ATOM      6  C   UNL     1       2.663   2.736  21.532  0.00  0.00    +0.000 C 
ATOM      7  C   UNL     1       1.183   2.877  21.239  0.00  0.00    +0.000 C 
ENDBRANCH   5   7
ENDBRANCH   4   5
ENDBRANCH   3   4
ENDBRANCH   2   3
ENDBRANCH   1   2
BRANCH   1   8
ATOM      8  C   UNL     1       4.568   4.258  18.338  0.00  0.00    +0.000 C 
BRANCH   8   9
ATOM      9  C   UNL     1       5.631   5.251  18.769  0.00  0.00    +0.000 C 
BRANCH   9  10
ATOM     10  C   UNL     1       6.881   5.064  17.931  0.00  0.00    +0.000 C 
ATOM     11  O   UNL     1       7.826   4.388  18.321  0.00  0.00    +0.000 OA
BRANCH  10  12
ATOM     12  C   UNL     1       6.921   5.760  16.593  0.00  0.00    +0.000 C 
BRANCH  12  13
ATOM     13  C   UNL     1       7.009   4.741  15.466  0.00  0.00    +0.000 C 
ATOM     14  C   UNL     1       5.647   4.480  14.854  0.00  0.00    +0.000 C 
ENDBRANCH  12  13
ENDBRANCH  10  12
ENDBRANCH   9  10
ENDBRANCH   8   9
ENDBRANCH   1   8
TORSDOF 10
ENDMDL
MODEL 7
REMARK VINA RESULT:      -4.9      1.933      5.648
REMARK  Name = 
REMARK  12 active torsions:
REMARK  status: ('A' for Active; 'I' for Inactive)
REMARK    1  A    between atoms: C_1  and  C_2
REMARK    2  A    between atoms: C_2  and  C_3
REMARK    3  A    between atoms: C_3  and  C_4
REMARK    4  A    between atoms: C_4  and  C_5
REMARK    5  A    between atoms: C_5  and  C_6
REMARK    6  A    between atoms: C_6  and  C_7
REMARK    7  A    between atoms: C_7  and  C_8
REMARK    8  A    between atoms: C_8  and  C_9
REMARK    9  A    between atoms: C_9  and  C_10
REMARK   10  A    between atoms: C_10  and  C_12
REMARK   11  A    between atoms: C_12  and  C_13
REMARK   12  A    between atoms: C_13  and  C_14
REMARK                            x       y       z     vdW  Elec       q    Type
REMARK                         _______ _______ _______ _____ _____    ______ ____
ROOT
ATOM      1  C   UNL     1       4.964   3.784  16.862  0.00  0.00    +0.000 C 
ENDROOT
BRANCH   1   2
ATOM      2  C   UNL     1       5.431   4.750  15.785  0.00  0.00    +0.000 C 
BRANCH   2   3
ATOM      3  C   UNL     1       6.881   5.131  16.024  0.00  0.00    +0.000 C 
BRANCH   3   4
ATOM      4  C   UNL     1       7.287   4.773  17.443  0.00  0.00    +0.000 C 
BRANCH   4   5
ATOM      5  C   UNL     1       7.568   6.037  18.238  0.00  0.00    +0.000 C 
BRANCH   5   7
ATOM      6  C   UNL     1       8.144   8.443  17.937  0.00  0.00    +0.000 C 
ATOM      7  C   UNL     1       7.381   7.268  17.362  0.00  0.00    +0.000 C 
ENDBRANCH   5   7
ENDBRANCH   4   5
ENDBRANCH   3   4
ENDBRANCH   2   3
ENDBRANCH   1   2
BRANCH   1   8
ATOM      8  C   UNL     1       3.533   4.102  17.250  0.00  0.00    +0.000 C 
BRANCH   8   9
ATOM      9  C   UNL     1       3.411   5.523  17.764  0.00  0.00    +0.000 C 
BRANCH   9  10
ATOM     10  C   UNL     1       3.545   5.538  19.274  0.00  0.00    +0.000 C 
ATOM     11  O   UNL     1       4.620   5.350  19.830  0.00  0.00    +0.000 OA
BRANCH  10  12
ATOM     12  C   UNL     1       2.287   5.781  20.073  0.00  0.00    +0.000 C 
BRANCH  12  13
ATOM     13  C   UNL     1       1.878   4.518  20.817  0.00  0.00    +0.000 C 
ATOM     14  C   UNL     1       0.957   3.658  19.974  0.00  0.00    +0.000 C 
ENDBRANCH  12  13
ENDBRANCH  10  12
ENDBRANCH   9  10
ENDBRANCH   8   9
ENDBRANCH   1   8
TORSDOF 10
ENDMDL
MODEL 8
REMARK VINA RESULT:      -4.9      1.875      2.586
REMARK  Name = 
REMARK  12 active torsions:
REMARK  status: ('A' for Active; 'I' for Inactive)
REMARK    1  A    between atoms: C_1  and  C_2
REMARK    2  A    between atoms: C_2  and  C_3
REMARK    3  A    between atoms: C_3  and  C_4
REMARK    4  A    between atoms: C_4  and  C_5
REMARK    5  A    between atoms: C_5  and  C_6
REMARK    6  A    between atoms: C_6  and  C_7
REMARK    7  A    between atoms: C_7  and  C_8
REMARK    8  A    between atoms: C_8  and  C_9
REMARK    9  A    between atoms: C_9  and  C_10
REMARK   10  A    between atoms: C_10  and  C_12
REMARK   11  A    between atoms: C_12  and  C_13
REMARK   12  A    between atoms: C_13  and  C_14
REMARK                            x       y       z     vdW  Elec       q    Type
REMARK                         _______ _______ _______ _____ _____    ______ ____
ROOT
ATOM      1  C   UNL     1       4.025   3.873  16.958  0.00  0.00    +0.000 C 
ENDROOT
BRANCH   1   2
ATOM      2  C   UNL     1       2.634   3.319  17.217  0.00  0.00    +0.000 C 
BRANCH   2   3
ATOM      3  C   UNL     1       1.792   4.350  17.947  0.00  0.00    +0.000 C 
BRANCH   3   4
ATOM      4  C   UNL     1       1.088   3.707  19.129  0.00  0.00    +0.000 C 
BRANCH   4   5
ATOM      5  C   UNL     1       1.828   2.450  19.553  0.00  0.00    +0.000 C 
BRANCH   5   7
ATOM      6  C   UNL     1       2.130   3.961  21.512  0.00  0.00    +0.000 C 
ATOM      7  C   UNL     1       2.628   2.708  20.822  0.00  0.00    +0.000 C 
ENDBRANCH   5   7
ENDBRANCH   4   5
ENDBRANCH   3   4
ENDBRANCH   2   3
ENDBRANCH   1   2
BRANCH   1   8
ATOM      8  C   UNL     1       4.549   4.550  18.209  0.00  0.00    +0.000 C 
BRANCH   8   9
ATOM      9  C   UNL     1       5.582   5.606  17.864  0.00  0.00    +0.000 C 
BRANCH   9  10
ATOM     10  C   UNL     1       6.706   5.578  18.881  0.00  0.00    +0.000 C 
ATOM     11  O   UNL     1       6.679   4.836  19.856  0.00  0.00    +0.000 OA
BRANCH  10  12
ATOM     12  C   UNL     1       7.864   6.519  18.652  0.00  0.00    +0.000 C 
BRANCH  12  13
ATOM     13  C   UNL     1       7.543   7.495  17.530  0.00  0.00    +0.000 C 
ATOM     14  C   UNL     1       8.088   8.877  17.831  0.00  0.00    +0.000 C 
ENDBRANCH  12  13
ENDBRANCH  10  12
ENDBRANCH   9  10
ENDBRANCH   8   9
ENDBRANCH   1   8
TORSDOF 10
ENDMDL
MODEL 9
REMARK VINA RESULT:      -4.9      1.378      2.266
REMARK  Name = 
REMARK  12 active torsions:
REMARK  status: ('A' for Active; 'I' for Inactive)
REMARK    1  A    between atoms: C_1  and  C_2
REMARK    2  A    between atoms: C_2  and  C_3
REMARK    3  A    between atoms: C_3  and  C_4
REMARK    4  A    between atoms: C_4  and  C_5
REMARK    5  A    between atoms: C_5  and  C_6
REMARK    6  A    between atoms: C_6  and  C_7
REMARK    7  A    between atoms: C_7  and  C_8
REMARK    8  A    between atoms: C_8  and  C_9
REMARK    9  A    between atoms: C_9  and  C_10
REMARK   10  A    between atoms: C_10  and  C_12
REMARK   11  A    between atoms: C_12  and  C_13
REMARK   12  A    between atoms: C_13  and  C_14
REMARK                            x       y       z     vdW  Elec       q    Type
REMARK                         _______ _______ _______ _____ _____    ______ ____
ROOT
ATOM      1  C   UNL     1       4.925   5.611  18.505  0.00  0.00    +0.000 C 
ENDROOT
BRANCH   1   2
ATOM      2  C   UNL     1       3.866   6.181  17.576  0.00  0.00    +0.000 C 
BRANCH   2   3
ATOM      3  C   UNL     1       2.494   6.057  18.214  0.00  0.00    +0.000 C 
BRANCH   3   4
ATOM      4  C   UNL     1       2.359   4.709  18.901  0.00  0.00    +0.000 C 
BRANCH   4   5
ATOM      5  C   UNL     1       1.500   3.781  18.059  0.00  0.00    +0.000 C 
BRANCH   5   7
ATOM      6  C   UNL     1       1.157   2.989  20.397  0.00  0.00    +0.000 C 
ATOM      7  C   UNL     1       0.819   2.743  18.941  0.00  0.00    +0.000 C 
ENDBRANCH   5   7
ENDBRANCH   4   5
ENDBRANCH   3   4
ENDBRANCH   2   3
ENDBRANCH   1   2
BRANCH   1   8
ATOM      8  C   UNL     1       5.554   4.385  17.875  0.00  0.00    +0.000 C 
BRANCH   8   9
ATOM      9  C   UNL     1       5.423   4.421  16.364  0.00  0.00    +0.000 C 
BRANCH   9  10
ATOM     10  C   UNL     1       6.798   4.499  15.730  0.00  0.00    +0.000 C 
ATOM     11  O   UNL     1       7.823   4.470  16.400  0.00  0.00    +0.000 OA
BRANCH  10  12
ATOM     12  C   UNL     1       6.855   4.630  14.227  0.00  0.00    +0.000 C 
BRANCH  12  13
ATOM     13  C   UNL     1       5.673   3.918  13.586  0.00  0.00    +0.000 C 
ATOM     14  C   UNL     1       6.061   3.295  12.259  0.00  0.00    +0.000 C 
ENDBRANCH  12  13
ENDBRANCH  10  12
ENDBRANCH   9  10
ENDBRANCH   8   9
ENDBRANCH   1   8
TORSDOF 10
ENDMDL
