MODEL 1
REMARK VINA RESULT:      -7.0      0.000      0.000
REMARK  Name = 
REMARK  15 active torsions:
REMARK  status: ('A' for Active; 'I' for Inactive)
REMARK    1  A    between atoms: C_1  and  C_2
REMARK    2  A    between atoms: C_2  and  C_3
REMARK    3  A    between atoms: C_3  and  C_4
REMARK    4  A    between atoms: C_4  and  C_5
REMARK    5  A    between atoms: C_9  and  C_10
REMARK    6  A    between atoms: C_11  and  C_12
REMARK    7  A    between atoms: N_14  and  O_15
REMARK    8  A    between atoms: N_19  and  C_20
REMARK    9  A    between atoms: C_20  and  C_21
REMARK   10  A    between atoms: C_21  and  C_22
REMARK   11  A    between atoms: C_21  and  C_23
REMARK   12  A    between atoms: C_21  and  C_24
REMARK   13  A    between atoms: C_24  and  N_25
REMARK   14  A    between atoms: N_25  and  C_26
REMARK   15  A    between atoms: N_25  and  C_27
REMARK                            x       y       z     vdW  Elec       q    Type
REMARK                         _______ _______ _______ _____ _____    ______ ____
ROOT
ATOM      1  C   UNL     1       3.053   5.025  19.532  0.00  0.00    +0.000 A 
ATOM      2  N   UNL     1       2.474   5.814  20.416  0.00  0.00    +0.000 NA
ATOM      3  C   UNL     1       2.183   6.980  19.753  0.00  0.00    +0.000 A 
ATOM      4  C   UNL     1       1.575   8.153  20.236  0.00  0.00    +0.000 A 
ATOM      5  C   UNL     1       1.362   9.234  19.368  0.00  0.00    +0.000 A 
ATOM      6  C   UNL     1       1.814   9.150  18.046  0.00  0.00    +0.000 A 
ATOM      7  C   UNL     1       2.446   7.998  17.553  0.00  0.00    +0.000 A 
ATOM      8  C   UNL     1       2.590   6.912  18.426  0.00  0.00    +0.000 A 
ATOM      9  N   UNL     1       3.104   5.636  18.294  0.00  0.00    +0.000 N 
ENDROOT
BRANCH   5  10
ATOM     10  C   UNL     1       0.711  10.483  19.812  0.00  0.00    +0.000 C 
ATOM     11  C   UNL     1      -0.295  11.080  19.158  0.00  0.00    +0.000 C 
BRANCH  11  12
ATOM     12  C   UNL     1      -0.868  12.348  19.665  0.00  0.00    +0.000 C 
ATOM     13  O   UNL     1      -1.359  12.479  20.786  0.00  0.00    +0.000 OA
ATOM     14  N   UNL     1      -0.799  13.375  18.761  0.00  0.00    +0.000 N 
ATOM     15  H   UNL     1      -0.386  13.325  17.842  0.00  0.00    +0.000 HD
BRANCH  14  16
ATOM     16  O   UNL     1      -1.311  14.632  19.171  0.00  0.00    +0.000 OA
ATOM     17  H   UNL     1      -1.910  14.383  19.907  0.00  0.00    +0.000 HD
ENDBRANCH  14  16
ENDBRANCH  11  12
ENDBRANCH   5  10
BRANCH   1  18
ATOM     18  C   UNL     1       3.574   3.651  19.818  0.00  0.00    +0.000 C 
BRANCH  18  19
ATOM     19  C   UNL     1       2.579   2.554  19.435  0.00  0.00    +0.000 C 
BRANCH  19  21
ATOM     20  C   UNL     1       1.532   2.523  21.727  0.00  0.00    +0.000 C 
ATOM     21  C   UNL     1       1.282   2.686  20.237  0.00  0.00    +0.000 C 
ENDBRANCH  19  21
ENDBRANCH  18  19
ENDBRANCH   1  18
BRANCH   9  22
ATOM     22  C   UNL     1       3.771   5.107  17.124  0.00  0.00    +0.000 C 
BRANCH  22  23
ATOM     23  C   UNL     1       5.258   5.501  16.841  0.00  0.00    +0.000 C 
ATOM     24  C   UNL     1       6.064   4.235  16.499  0.00  0.00    +0.000 C 
ATOM     25  C   UNL     1       5.164   6.444  15.617  0.00  0.00    +0.000 C 
BRANCH  23  26
ATOM     26  C   UNL     1       5.956   6.221  18.045  0.00  0.00    +0.000 C 
BRANCH  26  27
ATOM     27  N   UNL     1       7.431   6.382  17.989  0.00  0.00    +0.000 NA
ATOM     28  C   UNL     1       7.877   7.760  17.787  0.00  0.00    +0.000 C 
ATOM     29  C   UNL     1       8.048   5.860  19.214  0.00  0.00    +0.000 C 
ENDBRANCH  26  27
ENDBRANCH  23  26
ENDBRANCH  22  23
ENDBRANCH   9  22
TORSDOF 10
ENDMDL
MODEL 2
REMARK VINA RESULT:      -6.9      4.893      7.290
REMARK  Name = 
REMARK  15 active torsions:
REMARK  status: ('A' for Active; 'I' for Inactive)
REMARK    1  A    between atoms: C_1  and  C_2
REMARK    2  A    between atoms: C_2  and  C_3
REMARK    3  A    between atoms: C_3  and  C_4
REMARK    4  A    between atoms: C_4  and  C_5
REMARK    5  A    between atoms: C_9  and  C_10
REMARK    6  A    between atoms: C_11  and  C_12
REMARK    7  A    between atoms: N_14  and  O_15
REMARK    8  A    between atoms: N_19  and  C_20
REMARK    9  A    between atoms: C_20  and  C_21
REMARK   10  A    between atoms: C_21  and  C_22
REMARK   11  A    between atoms: C_21  and  C_23
REMARK   12  A    between atoms: C_21  and  C_24
REMARK   13  A    between atoms: C_24  and  N_25
REMARK   14  A    between atoms: N_25  and  C_26
REMARK   15  A    between atoms: N_25  and  C_27
REMARK                            x       y       z     vdW  Elec       q    Type
REMARK                         _______ _______ _______ _____ _____    ______ ____
ROOT
ATOM      1  C   UNL     1       5.751   4.687  15.392  0.00  0.00    +0.000 A 
ATOM      2  N   UNL     1       6.415   5.816  15.237  0.00  0.00    +0.000 NA
ATOM      3  C   UNL     1       6.846   6.178  16.489  0.00  0.00    +0.000 A 
ATOM      4  C   UNL     1       7.586   7.307  16.885  0.00  0.00    +0.000 A 
ATOM      5  C   UNL     1       7.930   7.474  18.236  0.00  0.00    +0.000 A 
ATOM      6  C   UNL     1       7.478   6.543  19.178  0.00  0.00    +0.000 A 
ATOM      7  C   UNL     1       6.716   5.425  18.804  0.00  0.00    +0.000 A 
ATOM      8  C   UNL     1       6.440   5.252  17.443  0.00  0.00    +0.000 A 
ATOM      9  N   UNL     1       5.779   4.282  16.713  0.00  0.00    +0.000 N 
ENDROOT
BRANCH   5  10
ATOM     10  C   UNL     1       8.722   8.627  18.709  0.00  0.00    +0.000 C 
ATOM     11  C   UNL     1       8.653   9.855  18.175  0.00  0.00    +0.000 C 
BRANCH  11  12
ATOM     12  C   UNL     1       9.507  10.946  18.697  0.00  0.00    +0.000 C 
ATOM     13  O   UNL     1      10.338  10.796  19.594  0.00  0.00    +0.000 OA
ATOM     14  N   UNL     1       9.287  12.151  18.084  0.00  0.00    +0.000 N 
ATOM     15  H   UNL     1       8.638  12.319  17.331  0.00  0.00    +0.000 HD
BRANCH  14  16
ATOM     16  O   UNL     1      10.075  13.248  18.513  0.00  0.00    +0.000 OA
ATOM     17  H   UNL     1      10.797  12.804  19.009  0.00  0.00    +0.000 HD
ENDBRANCH  14  16
ENDBRANCH  11  12
ENDBRANCH   5  10
BRANCH   1  18
ATOM     18  C   UNL     1       5.069   3.934  14.292  0.00  0.00    +0.000 C 
BRANCH  18  19
ATOM     19  C   UNL     1       5.990   3.678  13.098  0.00  0.00    +0.000 C 
BRANCH  19  21
ATOM     20  C   UNL     1       5.783   1.819  11.410  0.00  0.00    +0.000 C 
ATOM     21  C   UNL     1       5.202   3.133  11.903  0.00  0.00    +0.000 C 
ENDBRANCH  19  21
ENDBRANCH  18  19
ENDBRANCH   1  18
BRANCH   9  22
ATOM     22  C   UNL     1       5.059   3.152  17.259  0.00  0.00    +0.000 C 
BRANCH  22  23
ATOM     23  C   UNL     1       3.697   3.387  17.991  0.00  0.00    +0.000 C 
ATOM     24  C   UNL     1       3.038   4.665  17.442  0.00  0.00    +0.000 C 
ATOM     25  C   UNL     1       2.863   2.135  17.629  0.00  0.00    +0.000 C 
BRANCH  23  26
ATOM     26  C   UNL     1       3.837   3.532  19.545  0.00  0.00    +0.000 C 
BRANCH  26  27
ATOM     27  N   UNL     1       2.592   3.496  20.354  0.00  0.00    +0.000 NA
ATOM     28  C   UNL     1       2.642   2.577  21.491  0.00  0.00    +0.000 C 
ATOM     29  C   UNL     1       2.263   4.839  20.844  0.00  0.00    +0.000 C 
ENDBRANCH  26  27
ENDBRANCH  23  26
ENDBRANCH  22  23
ENDBRANCH   9  22
TORSDOF 10
ENDMDL
MODEL 3
REMARK VINA RESULT:      -6.9      1.670      4.538
REMARK  Name = 
REMARK  15 active torsions:
REMARK  status: ('A' for Active; 'I' for Inactive)
REMARK    1  A    between atoms: C_1  and  C_2
REMARK    2  A    between atoms: C_2  and  C_3
REMARK    3  A    between atoms: C_3  and  C_4
REMARK    4  A    between atoms: C_4  and  C_5
REMARK    5  A    between atoms: C_9  and  C_10
REMARK    6  A    between atoms: C_11  and  C_12
REMARK    7  A    between atoms: N_14  and  O_15
REMARK    8  A    between atoms: N_19  and  C_20
REMARK    9  A    between atoms: C_20  and  C_21
REMARK   10  A    between atoms: C_21  and  C_22
REMARK   11  A    between atoms: C_21  and  C_23
REMARK   12  A    between atoms: C_21  and  C_24
REMARK   13  A    between atoms: C_24  and  N_25
REMARK   14  A    between atoms: N_25  and  C_26
REMARK   15  A    between atoms: N_25  and  C_27
REMARK                            x       y       z     vdW  Elec       q    Type
REMARK                         _______ _______ _______ _____ _____    ______ ____
ROOT
ATOM      1  C   UNL     1       4.947   5.199  17.540  0.00  0.00    +0.000 A 
ATOM      2  N   UNL     1       4.439   6.214  16.870  0.00  0.00    +0.000 NA
ATOM      3  C   UNL     1       3.576   6.844  17.732  0.00  0.00    +0.000 A 
ATOM      4  C   UNL     1       2.765   7.973  17.515  0.00  0.00    +0.000 A 
ATOM      5  C   UNL     1       1.957   8.459  18.555  0.00  0.00    +0.000 A 
ATOM      6  C   UNL     1       1.925   7.774  19.775  0.00  0.00    +0.000 A 
ATOM      7  C   UNL     1       2.706   6.630  20.000  0.00  0.00    +0.000 A 
ATOM      8  C   UNL     1       3.549   6.204  18.966  0.00  0.00    +0.000 A 
ATOM      9  N   UNL     1       4.467   5.180  18.836  0.00  0.00    +0.000 N 
ENDROOT
BRANCH   5  10
ATOM     10  C   UNL     1       1.101   9.652  18.394  0.00  0.00    +0.000 C 
ATOM     11  C   UNL     1       0.299  10.136  19.353  0.00  0.00    +0.000 C 
BRANCH  11  12
ATOM     12  C   UNL     1      -0.547  11.323  19.091  0.00  0.00    +0.000 C 
ATOM     13  O   UNL     1      -1.506  11.649  19.790  0.00  0.00    +0.000 OA
ATOM     14  N   UNL     1      -0.161  12.033  17.986  0.00  0.00    +0.000 N 
ATOM     15  H   UNL     1       0.630  11.821  17.396  0.00  0.00    +0.000 HD
BRANCH  14  16
ATOM     16  O   UNL     1      -0.907  13.196  17.670  0.00  0.00    +0.000 OA
ATOM     17  H   UNL     1      -0.244  13.748  17.202  0.00  0.00    +0.000 HD
ENDBRANCH  14  16
ENDBRANCH  11  12
ENDBRANCH   5  10
BRANCH   1  18
ATOM     18  C   UNL     1       5.920   4.205  16.985  0.00  0.00    +0.000 C 
BRANCH  18  19
ATOM     19  C   UNL     1       7.151   4.871  16.368  0.00  0.00    +0.000 C 
BRANCH  19  21
ATOM     20  C   UNL     1       6.049   3.889  14.327  0.00  0.00    +0.000 C 
ATOM     21  C   UNL     1       7.047   4.912  14.842  0.00  0.00    +0.000 C 
ENDBRANCH  19  21
ENDBRANCH  18  19
ENDBRANCH   1  18
BRANCH   9  22
ATOM     22  C   UNL     1       4.725   4.143  19.811  0.00  0.00    +0.000 C 
BRANCH  22  23
ATOM     23  C   UNL     1       3.784   2.896  19.877  0.00  0.00    +0.000 C 
ATOM     24  C   UNL     1       4.630   1.630  20.095  0.00  0.00    +0.000 C 
ATOM     25  C   UNL     1       2.884   3.179  21.105  0.00  0.00    +0.000 C 
BRANCH  23  26
ATOM     26  C   UNL     1       2.917   2.695  18.588  0.00  0.00    +0.000 C 
BRANCH  26  27
ATOM     27  N   UNL     1       1.537   3.242  18.594  0.00  0.00    +0.000 NA
ATOM     28  C   UNL     1       1.223   4.094  17.448  0.00  0.00    +0.000 C 
ATOM     29  C   UNL     1       0.557   2.151  18.654  0.00  0.00    +0.000 C 
ENDBRANCH  26  27
ENDBRANCH  23  26
ENDBRANCH  22  23
ENDBRANCH   9  22
TORSDOF 10
ENDMDL
MODEL 4
REMARK VINA RESULT:      -6.9      0.741      1.078
REMARK  Name = 
REMARK  15 active torsions:
REMARK  status: ('A' for Active; 'I' for Inactive)
REMARK    1  A    between atoms: C_1  and  C_2
REMARK    2  A    between atoms: C_2  and  C_3
REMARK    3  A    between atoms: C_3  and  C_4
REMARK    4  A    between atoms: C_4  and  C_5
REMARK    5  A    between atoms: C_9  and  C_10
REMARK    6  A    between atoms: C_11  and  C_12
REMARK    7  A    between atoms: N_14  and  O_15
REMARK    8  A    between atoms: N_19  and  C_20
REMARK    9  A    between atoms: C_20  and  C_21
REMARK   10  A    between atoms: C_21  and  C_22
REMARK   11  A    between atoms: C_21  and  C_23
REMARK   12  A    between atoms: C_21  and  C_24
REMARK   13  A    between atoms: C_24  and  N_25
REMARK   14  A    between atoms: N_25  and  C_26
REMARK   15  A    between atoms: N_25  and  C_27
REMARK                            x       y       z     vdW  Elec       q    Type
REMARK                         _______ _______ _______ _____ _____    ______ ____
ROOT
ATOM      1  C   UNL     1       2.948   5.133  19.632  0.00  0.00    +0.000 A 
ATOM      2  N   UNL     1       2.380   5.938  20.507  0.00  0.00    +0.000 NA
ATOM      3  C   UNL     1       2.093   7.096  19.829  0.00  0.00    +0.000 A 
ATOM      4  C   UNL     1       1.497   8.281  20.299  0.00  0.00    +0.000 A 
ATOM      5  C   UNL     1       1.287   9.352  19.416  0.00  0.00    +0.000 A 
ATOM      6  C   UNL     1       1.732   9.246  18.094  0.00  0.00    +0.000 A 
ATOM      7  C   UNL     1       2.354   8.082  17.614  0.00  0.00    +0.000 A 
ATOM      8  C   UNL     1       2.493   7.008  18.501  0.00  0.00    +0.000 A 
ATOM      9  N   UNL     1       2.998   5.726  18.385  0.00  0.00    +0.000 N 
ENDROOT
BRANCH   5  10
ATOM     10  C   UNL     1       0.648  10.611  19.846  0.00  0.00    +0.000 C 
ATOM     11  C   UNL     1      -0.542  11.040  19.401  0.00  0.00    +0.000 C 
BRANCH  11  12
ATOM     12  C   UNL     1      -1.093  12.333  19.868  0.00  0.00    +0.000 C 
ATOM     13  O   UNL     1      -0.459  13.144  20.544  0.00  0.00    +0.000 OA
ATOM     14  N   UNL     1      -2.386  12.548  19.474  0.00  0.00    +0.000 N 
ATOM     15  H   UNL     1      -2.939  11.927  18.901  0.00  0.00    +0.000 HD
BRANCH  14  16
ATOM     16  O   UNL     1      -2.987  13.770  19.864  0.00  0.00    +0.000 OA
ATOM     17  H   UNL     1      -3.940  13.594  19.707  0.00  0.00    +0.000 HD
ENDBRANCH  14  16
ENDBRANCH  11  12
ENDBRANCH   5  10
BRANCH   1  18
ATOM     18  C   UNL     1       3.461   3.759  19.934  0.00  0.00    +0.000 C 
BRANCH  18  19
ATOM     19  C   UNL     1       2.337   2.732  20.079  0.00  0.00    +0.000 C 
BRANCH  19  21
ATOM     20  C   UNL     1       3.428   1.689  18.061  0.00  0.00    +0.000 C 
ATOM     21  C   UNL     1       2.113   1.974  18.768  0.00  0.00    +0.000 C 
ENDBRANCH  19  21
ENDBRANCH  18  19
ENDBRANCH   1  18
BRANCH   9  22
ATOM     22  C   UNL     1       3.655   5.176  17.219  0.00  0.00    +0.000 C 
BRANCH  22  23
ATOM     23  C   UNL     1       5.158   5.517  16.949  0.00  0.00    +0.000 C 
ATOM     24  C   UNL     1       5.919   4.226  16.603  0.00  0.00    +0.000 C 
ATOM     25  C   UNL     1       5.106   6.473  15.733  0.00  0.00    +0.000 C 
BRANCH  23  26
ATOM     26  C   UNL     1       5.873   6.201  18.164  0.00  0.00    +0.000 C 
BRANCH  26  27
ATOM     27  N   UNL     1       7.353   6.314  18.116  0.00  0.00    +0.000 NA
ATOM     28  C   UNL     1       7.845   7.681  17.948  0.00  0.00    +0.000 C 
ATOM     29  C   UNL     1       7.947   5.743  19.329  0.00  0.00    +0.000 C 
ENDBRANCH  26  27
ENDBRANCH  23  26
ENDBRANCH  22  23
ENDBRANCH   9  22
TORSDOF 10
ENDMDL
MODEL 5
REMARK VINA RESULT:      -6.9      1.628      1.836
REMARK  Name = 
REMARK  15 active torsions:
REMARK  status: ('A' for Active; 'I' for Inactive)
REMARK    1  A    between atoms: C_1  and  C_2
REMARK    2  A    between atoms: C_2  and  C_3
REMARK    3  A    between atoms: C_3  and  C_4
REMARK    4  A    between atoms: C_4  and  C_5
REMARK    5  A    between atoms: C_9  and  C_10
REMARK    6  A    between atoms: C_11  and  C_12
REMARK    7  A    between atoms: N_14  and  O_15
REMARK    8  A    between atoms: N_19  and  C_20
REMARK    9  A    between atoms: C_20  and  C_21
REMARK   10  A    between atoms: C_21  and  C_22
REMARK   11  A    between atoms: C_21  and  C_23
REMARK   12  A    between atoms: C_21  and  C_24
REMARK   13  A    between atoms: C_24  and  N_25
REMARK   14  A    between atoms: N_25  and  C_26
REMARK   15  A    between atoms: N_25  and  C_27
REMARK                            x       y       z     vdW  Elec       q    Type
REMARK                         _______ _______ _______ _____ _____    ______ ____
ROOT
ATOM      1  C   UNL     1       3.586   4.726  19.305  0.00  0.00    +0.000 A 
ATOM      2  N   UNL     1       2.971   5.339  20.296  0.00  0.00    +0.000 NA
ATOM      3  C   UNL     1       2.508   6.524  19.781  0.00  0.00    +0.000 A 
ATOM      4  C   UNL     1       1.796   7.557  20.419  0.00  0.00    +0.000 A 
ATOM      5  C   UNL     1       1.409   8.690  19.687  0.00  0.00    +0.000 A 
ATOM      6  C   UNL     1       1.792   8.803  18.346  0.00  0.00    +0.000 A 
ATOM      7  C   UNL     1       2.526   7.795  17.700  0.00  0.00    +0.000 A 
ATOM      8  C   UNL     1       2.844   6.649  18.438  0.00  0.00    +0.000 A 
ATOM      9  N   UNL     1       3.496   5.466  18.142  0.00  0.00    +0.000 N 
ENDROOT
BRANCH   5  10
ATOM     10  C   UNL     1       0.644   9.796  20.297  0.00  0.00    +0.000 C 
ATOM     11  C   UNL     1       0.673  10.099  21.603  0.00  0.00    +0.000 C 
BRANCH  11  12
ATOM     12  C   UNL     1      -0.152  11.211  22.130  0.00  0.00    +0.000 C 
ATOM     13  O   UNL     1       0.123  12.401  21.976  0.00  0.00    +0.000 OA
ATOM     14  N   UNL     1      -1.261  10.788  22.813  0.00  0.00    +0.000 N 
ATOM     15  H   UNL     1      -1.542   9.828  22.946  0.00  0.00    +0.000 HD
BRANCH  14  16
ATOM     16  O   UNL     1      -2.116  11.789  23.339  0.00  0.00    +0.000 OA
ATOM     17  H   UNL     1      -2.714  11.268  23.918  0.00  0.00    +0.000 HD
ENDBRANCH  14  16
ENDBRANCH  11  12
ENDBRANCH   5  10
BRANCH   1  18
ATOM     18  C   UNL     1       4.280   3.403  19.412  0.00  0.00    +0.000 C 
BRANCH  18  19
ATOM     19  C   UNL     1       3.301   2.238  19.567  0.00  0.00    +0.000 C 
BRANCH  19  21
ATOM     20  C   UNL     1       0.930   2.308  18.718  0.00  0.00    +0.000 C 
ATOM     21  C   UNL     1       2.390   2.119  18.342  0.00  0.00    +0.000 C 
ENDBRANCH  19  21
ENDBRANCH  18  19
ENDBRANCH   1  18
BRANCH   9  22
ATOM     22  C   UNL     1       4.153   5.150  16.892  0.00  0.00    +0.000 C 
BRANCH  22  23
ATOM     23  C   UNL     1       5.517   5.830  16.546  0.00  0.00    +0.000 C 
ATOM     24  C   UNL     1       6.553   4.747  16.198  0.00  0.00    +0.000 C 
ATOM     25  C   UNL     1       5.192   6.702  15.309  0.00  0.00    +0.000 C 
BRANCH  23  26
ATOM     26  C   UNL     1       6.094   6.709  17.708  0.00  0.00    +0.000 C 
BRANCH  26  27
ATOM     27  N   UNL     1       7.452   6.381  18.209  0.00  0.00    +0.000 NA
ATOM     28  C   UNL     1       8.316   7.545  18.405  0.00  0.00    +0.000 C 
ATOM     29  C   UNL     1       7.364   5.639  19.472  0.00  0.00    +0.000 C 
ENDBRANCH  26  27
ENDBRANCH  23  26
ENDBRANCH  22  23
ENDBRANCH   9  22
TORSDOF 10
ENDMDL
MODEL 6
REMARK VINA RESULT:      -6.8      1.672      4.514
REMARK  Name = 
REMARK  15 active torsions:
REMARK  status: ('A' for Active; 'I' for Inactive)
REMARK    1  A    between atoms: C_1  and  C_2
REMARK    2  A    between atoms: C_2  and  C_3
REMARK    3  A    between atoms: C_3  and  C_4
REMARK    4  A    between atoms: C_4  and  C_5
REMARK    5  A    between atoms: C_9  and  C_10
REMARK    6  A    between atoms: C_11  and  C_12
REMARK    7  A    between atoms: N_14  and  O_15
REMARK    8  A    between atoms: N_19  and  C_20
REMARK    9  A    between atoms: C_20  and  C_21
REMARK   10  A    between atoms: C_21  and  C_22
REMARK   11  A    between atoms: C_21  and  C_23
REMARK   12  A    between atoms: C_21  and  C_24
REMARK   13  A    between atoms: C_24  and  N_25
REMARK   14  A    between atoms: N_25  and  C_26
REMARK   15  A    between atoms: N_25  and  C_27
REMARK                            x       y       z     vdW  Elec       q    Type
REMARK                         _______ _______ _______ _____ _____    ______ ____
ROOT
ATOM      1  C   UNL     1       4.875   5.816  16.931  0.00  0.00    +0.000 A 
ATOM      2  N   UNL     1       4.456   7.030  16.636  0.00  0.00    +0.000 NA
ATOM      3  C   UNL     1       3.544   7.364  17.607  0.00  0.00    +0.000 A 
ATOM      4  C   UNL     1       2.790   8.543  17.754  0.00  0.00    +0.000 A 
ATOM      5  C   UNL     1       1.914   8.677  18.842  0.00  0.00    +0.000 A 
ATOM      6  C   UNL     1       1.759   7.607  19.732  0.00  0.00    +0.000 A 
ATOM      7  C   UNL     1       2.483   6.413  19.585  0.00  0.00    +0.000 A 
ATOM      8  C   UNL     1       3.394   6.332  18.525  0.00  0.00    +0.000 A 
ATOM      9  N   UNL     1       4.288   5.368  18.100  0.00  0.00    +0.000 N 
ENDROOT
BRANCH   5  10
ATOM     10  C   UNL     1       1.112   9.897  19.060  0.00  0.00    +0.000 C 
ATOM     11  C   UNL     1      -0.055  10.149  18.450  0.00  0.00    +0.000 C 
BRANCH  11  12
ATOM     12  C   UNL     1      -0.777  11.415  18.710  0.00  0.00    +0.000 C 
ATOM     13  O   UNL     1      -1.775  11.501  19.426  0.00  0.00    +0.000 OA
ATOM     14  N   UNL     1      -0.226  12.496  18.074  0.00  0.00    +0.000 N 
ATOM     15  H   UNL     1       0.603  12.482  17.499  0.00  0.00    +0.000 HD
BRANCH  14  16
ATOM     16  O   UNL     1      -0.845  13.753  18.282  0.00  0.00    +0.000 OA
ATOM     17  H   UNL     1      -1.799  13.519  18.278  0.00  0.00    +0.000 HD
ENDBRANCH  14  16
ENDBRANCH  11  12
ENDBRANCH   5  10
BRANCH   1  18
ATOM     18  C   UNL     1       5.859   5.027  16.125  0.00  0.00    +0.000 C 
BRANCH  18  19
ATOM     19  C   UNL     1       5.318   4.647  14.746  0.00  0.00    +0.000 C 
BRANCH  19  21
ATOM     20  C   UNL     1       5.882   3.530  12.559  0.00  0.00    +0.000 C 
ATOM     21  C   UNL     1       6.286   3.717  14.012  0.00  0.00    +0.000 C 
ENDBRANCH  19  21
ENDBRANCH  18  19
ENDBRANCH   1  18
BRANCH   9  22
ATOM     22  C   UNL     1       4.432   4.040  18.656  0.00  0.00    +0.000 C 
BRANCH  22  23
ATOM     23  C   UNL     1       3.435   2.914  18.226  0.00  0.00    +0.000 C 
ATOM     24  C   UNL     1       2.416   3.490  17.228  0.00  0.00    +0.000 C 
ATOM     25  C   UNL     1       4.341   1.859  17.546  0.00  0.00    +0.000 C 
BRANCH  23  26
ATOM     26  C   UNL     1       2.649   2.280  19.424  0.00  0.00    +0.000 C 
BRANCH  26  27
ATOM     27  N   UNL     1       2.055   3.204  20.423  0.00  0.00    +0.000 NA
ATOM     28  C   UNL     1       0.607   3.368  20.303  0.00  0.00    +0.000 C 
ATOM     29  C   UNL     1       2.370   2.754  21.784  0.00  0.00    +0.000 C 
ENDBRANCH  26  27
ENDBRANCH  23  26
ENDBRANCH  22  23
ENDBRANCH   9  22
TORSDOF 10
ENDMDL
MODEL 7
REMARK VINA RESULT:      -6.8      1.386      4.364
REMARK  Name = 
REMARK  15 active torsions:
REMARK  status: ('A' for Active; 'I' for Inactive)
REMARK    1  A    between atoms: C_1  and  C_2
REMARK    2  A    between atoms: C_2  and  C_3
REMARK    3  A    between atoms: C_3  and  C_4
REMARK    4  A    between atoms: C_4  and  C_5
REMARK    5  A    between atoms: C_9  and  C_10
REMARK    6  A    between atoms: C_11  and  C_12
REMARK    7  A    between atoms: N_14  and  O_15
REMARK    8  A    between atoms: N_19  and  C_20
REMARK    9  A    between atoms: C_20  and  C_21
REMARK   10  A    between atoms: C_21  and  C_22
REMARK   11  A    between atoms: C_21  and  C_23
REMARK   12  A    between atoms: C_21  and  C_24
REMARK   13  A    between atoms: C_24  and  N_25
REMARK   14  A    between atoms: N_25  and  C_26
REMARK   15  A    between atoms: N_25  and  C_27
REMARK                            x       y       z     vdW  Elec       q    Type
REMARK                         _______ _______ _______ _____ _____    ______ ____
ROOT
ATOM      1  C   UNL     1       5.052   5.358  17.165  0.00  0.00    +0.000 A 
ATOM      2  N   UNL     1       4.798   6.564  16.698  0.00  0.00    +0.000 NA
ATOM      3  C   UNL     1       3.811   7.082  17.500  0.00  0.00    +0.000 A 
ATOM      4  C   UNL     1       3.168   8.331  17.428  0.00  0.00    +0.000 A 
ATOM      5  C   UNL     1       2.181   8.661  18.370  0.00  0.00    +0.000 A 
ATOM      6  C   UNL     1       1.810   7.714  19.331  0.00  0.00    +0.000 A 
ATOM      7  C   UNL     1       2.422   6.452  19.402  0.00  0.00    +0.000 A 
ATOM      8  C   UNL     1       3.445   6.176  18.487  0.00  0.00    +0.000 A 
ATOM      9  N   UNL     1       4.283   5.096  18.283  0.00  0.00    +0.000 N 
ENDROOT
BRANCH   5  10
ATOM     10  C   UNL     1       1.486   9.963  18.357  0.00  0.00    +0.000 C 
ATOM     11  C   UNL     1       0.897  10.511  19.430  0.00  0.00    +0.000 C 
BRANCH  11  12
ATOM     12  C   UNL     1       0.197  11.811  19.316  0.00  0.00    +0.000 C 
ATOM     13  O   UNL     1       0.133  12.636  20.228  0.00  0.00    +0.000 OA
ATOM     14  N   UNL     1      -0.377  12.014  18.090  0.00  0.00    +0.000 N 
ATOM     15  H   UNL     1      -0.332  11.381  17.306  0.00  0.00    +0.000 HD
BRANCH  14  16
ATOM     16  O   UNL     1      -1.055  13.242  17.889  0.00  0.00    +0.000 OA
ATOM     17  H   UNL     1      -0.376  13.900  18.153  0.00  0.00    +0.000 HD
ENDBRANCH  14  16
ENDBRANCH  11  12
ENDBRANCH   5  10
BRANCH   1  18
ATOM     18  C   UNL     1       6.045   4.402  16.580  0.00  0.00    +0.000 C 
BRANCH  18  19
ATOM     19  C   UNL     1       7.430   4.530  17.216  0.00  0.00    +0.000 C 
BRANCH  19  21
ATOM     20  C   UNL     1       7.837   5.700  19.410  0.00  0.00    +0.000 C 
ATOM     21  C   UNL     1       7.587   5.879  17.922  0.00  0.00    +0.000 C 
ENDBRANCH  19  21
ENDBRANCH  18  19
ENDBRANCH   1  18
BRANCH   9  22
ATOM     22  C   UNL     1       4.221   3.830  18.981  0.00  0.00    +0.000 C 
BRANCH  22  23
ATOM     23  C   UNL     1       3.234   2.724  18.484  0.00  0.00    +0.000 C 
ATOM     24  C   UNL     1       2.449   3.250  17.269  0.00  0.00    +0.000 C 
ATOM     25  C   UNL     1       4.163   1.555  18.077  0.00  0.00    +0.000 C 
BRANCH  23  26
ATOM     26  C   UNL     1       2.207   2.263  19.574  0.00  0.00    +0.000 C 
BRANCH  26  27
ATOM     27  N   UNL     1       1.866   3.228  20.649  0.00  0.00    +0.000 NA
ATOM     28  C   UNL     1       0.655   4.008  20.395  0.00  0.00    +0.000 C 
ATOM     29  C   UNL     1       1.719   2.531  21.932  0.00  0.00    +0.000 C 
ENDBRANCH  26  27
ENDBRANCH  23  26
ENDBRANCH  22  23
ENDBRANCH   9  22
TORSDOF 10
ENDMDL
MODEL 8
REMARK VINA RESULT:      -6.7      1.785      4.724
REMARK  Name = 
REMARK  15 active torsions:
REMARK  status: ('A' for Active; 'I' for Inactive)
REMARK    1  A    between atoms: C_1  and  C_2
REMARK    2  A    between atoms: C_2  and  C_3
REMARK    3  A    between atoms: C_3  and  C_4
REMARK    4  A    between atoms: C_4  and  C_5
REMARK    5  A    between atoms: C_9  and  C_10
REMARK    6  A    between atoms: C_11  and  C_12
REMARK    7  A    between atoms: N_14  and  O_15
REMARK    8  A    between atoms: N_19  and  C_20
REMARK    9  A    between atoms: C_20  and  C_21
REMARK   10  A    between atoms: C_21  and  C_22
REMARK   11  A    between atoms: C_21  and  C_23
REMARK   12  A    between atoms: C_21  and  C_24
REMARK   13  A    between atoms: C_24  and  N_25
REMARK   14  A    between atoms: N_25  and  C_26
REMARK   15  A    between atoms: N_25  and  C_27
REMARK                            x       y       z     vdW  Elec       q    Type
REMARK                         _______ _______ _______ _____ _____    ______ ____
ROOT
ATOM      1  C   UNL     1       5.584   5.699  17.257  0.00  0.00    +0.000 A 
ATOM      2  N   UNL     1       5.078   6.782  16.702  0.00  0.00    +0.000 NA
ATOM      3  C   UNL     1       4.022   7.157  17.495  0.00  0.00    +0.000 A 
ATOM      4  C   UNL     1       3.134   8.238  17.345  0.00  0.00    +0.000 A 
ATOM      5  C   UNL     1       2.119   8.441  18.294  0.00  0.00    +0.000 A 
ATOM      6  C   UNL     1       1.970   7.527  19.343  0.00  0.00    +0.000 A 
ATOM      7  C   UNL     1       2.830   6.428  19.493  0.00  0.00    +0.000 A 
ATOM      8  C   UNL     1       3.870   6.285  18.567  0.00  0.00    +0.000 A 
ATOM      9  N   UNL     1       4.908   5.385  18.420  0.00  0.00    +0.000 N 
ENDROOT
BRANCH   5  10
ATOM     10  C   UNL     1       1.170   9.569  18.201  0.00  0.00    +0.000 C 
ATOM     11  C   UNL     1       1.307  10.722  18.870  0.00  0.00    +0.000 C 
BRANCH  11  12
ATOM     12  C   UNL     1       0.288  11.789  18.736  0.00  0.00    +0.000 C 
ATOM     13  O   UNL     1       0.277  12.816  19.415  0.00  0.00    +0.000 OA
ATOM     14  N   UNL     1      -0.653  11.525  17.777  0.00  0.00    +0.000 N 
ATOM     15  H   UNL     1      -0.673  10.713  17.179  0.00  0.00    +0.000 HD
BRANCH  14  16
ATOM     16  O   UNL     1      -1.658  12.503  17.570  0.00  0.00    +0.000 OA
ATOM     17  H   UNL     1      -1.275  13.046  16.848  0.00  0.00    +0.000 HD
ENDBRANCH  14  16
ENDBRANCH  11  12
ENDBRANCH   5  10
BRANCH   1  18
ATOM     18  C   UNL     1       6.740   4.917  16.715  0.00  0.00    +0.000 C 
BRANCH  18  19
ATOM     19  C   UNL     1       6.832   4.986  15.189  0.00  0.00    +0.000 C 
BRANCH  19  21
ATOM     20  C   UNL     1       6.084   3.644  13.193  0.00  0.00    +0.000 C 
ATOM     21  C   UNL     1       5.675   4.227  14.535  0.00  0.00    +0.000 C 
ENDBRANCH  19  21
ENDBRANCH  18  19
ENDBRANCH   1  18
BRANCH   9  22
ATOM     22  C   UNL     1       5.122   4.199  19.221  0.00  0.00    +0.000 C 
BRANCH  22  23
ATOM     23  C   UNL     1       4.112   3.009  19.120  0.00  0.00    +0.000 C 
ATOM     24  C   UNL     1       4.165   2.416  17.702  0.00  0.00    +0.000 C 
ATOM     25  C   UNL     1       4.634   1.993  20.165  0.00  0.00    +0.000 C 
BRANCH  23  26
ATOM     26  C   UNL     1       2.631   3.414  19.432  0.00  0.00    +0.000 C 
BRANCH  26  27
ATOM     27  N   UNL     1       1.748   2.385  20.036  0.00  0.00    +0.000 NA
ATOM     28  C   UNL     1       1.267   2.718  21.375  0.00  0.00    +0.000 C 
ATOM     29  C   UNL     1       0.593   2.131  19.167  0.00  0.00    +0.000 C 
ENDBRANCH  26  27
ENDBRANCH  23  26
ENDBRANCH  22  23
ENDBRANCH   9  22
TORSDOF 10
ENDMDL
MODEL 9
REMARK VINA RESULT:      -6.7      1.605      2.166
REMARK  Name = 
REMARK  15 active torsions:
REMARK  status: ('A' for Active; 'I' for Inactive)
REMARK    1  A    between atoms: C_1  and  C_2
REMARK    2  A    between atoms: C_2  and  C_3
REMARK    3  A    between atoms: C_3  and  C_4
REMARK    4  A    between atoms: C_4  and  C_5
REMARK    5  A    between atoms: C_9  and  C_10
REMARK    6  A    between atoms: C_11  and  C_12
REMARK    7  A    between atoms: N_14  and  O_15
REMARK    8  A    between atoms: N_19  and  C_20
REMARK    9  A    between atoms: C_20  and  C_21
REMARK   10  A    between atoms: C_21  and  C_22
REMARK   11  A    between atoms: C_21  and  C_23
REMARK   12  A    between atoms: C_21  and  C_24
REMARK   13  A    between atoms: C_24  and  N_25
REMARK   14  A    between atoms: N_25  and  C_26
REMARK   15  A    between atoms: N_25  and  C_27
REMARK                            x       y       z     vdW  Elec       q    Type
REMARK                         _______ _______ _______ _____ _____    ______ ____
ROOT
ATOM      1  C   UNL     1       2.521   5.031  20.676  0.00  0.00    +0.000 A 
ATOM      2  N   UNL     1       1.691   6.003  21.000  0.00  0.00    +0.000 NA
ATOM      3  C   UNL     1       1.830   6.961  20.027  0.00  0.00    +0.000 A 
ATOM      4  C   UNL     1       1.185   8.205  19.903  0.00  0.00    +0.000 A 
ATOM      5  C   UNL     1       1.475   9.033  18.807  0.00  0.00    +0.000 A 
ATOM      6  C   UNL     1       2.449   8.631  17.885  0.00  0.00    +0.000 A 
ATOM      7  C   UNL     1       3.121   7.405  18.007  0.00  0.00    +0.000 A 
ATOM      8  C   UNL     1       2.767   6.574  19.077  0.00  0.00    +0.000 A 
ATOM      9  N   UNL     1       3.165   5.315  19.487  0.00  0.00    +0.000 N 
ENDROOT
BRANCH   5  10
ATOM     10  C   UNL     1       0.817  10.340  18.612  0.00  0.00    +0.000 C 
ATOM     11  C   UNL     1      -0.512  10.513  18.569  0.00  0.00    +0.000 C 
BRANCH  11  12
ATOM     12  C   UNL     1      -1.084  11.860  18.341  0.00  0.00    +0.000 C 
ATOM     13  O   UNL     1      -2.292  12.094  18.301  0.00  0.00    +0.000 OA
ATOM     14  N   UNL     1      -0.134  12.832  18.177  0.00  0.00    +0.000 N 
ATOM     15  H   UNL     1       0.864  12.696  18.225  0.00  0.00    +0.000 HD
BRANCH  14  16
ATOM     16  O   UNL     1      -0.595  14.157  17.969  0.00  0.00    +0.000 OA
ATOM     17  H   UNL     1      -1.547  14.084  18.197  0.00  0.00    +0.000 HD
ENDBRANCH  14  16
ENDBRANCH  11  12
ENDBRANCH   5  10
BRANCH   1  18
ATOM     18  C   UNL     1       2.733   3.781  21.474  0.00  0.00    +0.000 C 
BRANCH  18  19
ATOM     19  C   UNL     1       1.702   2.698  21.153  0.00  0.00    +0.000 C 
BRANCH  19  21
ATOM     20  C   UNL     1       0.450   2.250  19.013  0.00  0.00    +0.000 C 
ATOM     21  C   UNL     1       0.650   3.215  20.170  0.00  0.00    +0.000 C 
ENDBRANCH  19  21
ENDBRANCH  18  19
ENDBRANCH   1  18
BRANCH   9  22
ATOM     22  C   UNL     1       4.222   4.525  18.895  0.00  0.00    +0.000 C 
BRANCH  22  23
ATOM     23  C   UNL     1       3.896   3.578  17.694  0.00  0.00    +0.000 C 
ATOM     24  C   UNL     1       3.862   2.122  18.189  0.00  0.00    +0.000 C 
ATOM     25  C   UNL     1       2.493   4.039  17.231  0.00  0.00    +0.000 C 
BRANCH  23  26
ATOM     26  C   UNL     1       4.929   3.676  16.520  0.00  0.00    +0.000 C 
BRANCH  26  27
ATOM     27  N   UNL     1       5.812   4.868  16.477  0.00  0.00    +0.000 NA
ATOM     28  C   UNL     1       7.221   4.581  16.745  0.00  0.00    +0.000 C 
ATOM     29  C   UNL     1       5.705   5.537  15.176  0.00  0.00    +0.000 C 
ENDBRANCH  26  27
ENDBRANCH  23  26
ENDBRANCH  22  23
ENDBRANCH   9  22
TORSDOF 10
ENDMDL
