MODEL 1
REMARK VINA RESULT:      -8.0      0.000      0.000
REMARK  Name = 
REMARK  5 active torsions:
REMARK  status: ('A' for Active; 'I' for Inactive)
REMARK    1  A    between atoms: N_1  and  C_2
REMARK    2  A    between atoms: C_5  and  O_6
REMARK    3  A    between atoms: C_7  and  C_8
REMARK    4  A    between atoms: C_10  and  C_11
REMARK    5  A    between atoms: C_14  and  C_15
REMARK                            x       y       z     vdW  Elec       q    Type
REMARK                         _______ _______ _______ _____ _____    ______ ____
ROOT
ATOM      1  C   UNL     1       2.326   6.771  19.860  0.00  0.00    +0.000 A 
ATOM      2  N   UNL     1       1.606   7.316  20.815  0.00  0.00    +0.000 NA
ATOM      3  C   UNL     1       1.277   8.538  20.275  0.00  0.00    +0.000 A 
ATOM      4  N   UNL     1       1.738   8.731  19.028  0.00  0.00    +0.000 NA
ATOM      5  O   UNL     1       2.432   7.558  18.752  0.00  0.00    +0.000 OA
ENDROOT
BRANCH   1  10
ATOM      6  C   UNL     1       4.899   4.106  19.231  0.00  0.00    +0.000 A 
ATOM      7  C   UNL     1       4.188   2.959  19.588  0.00  0.00    +0.000 A 
ATOM      8  C   UNL     1       2.888   3.046  20.087  0.00  0.00    +0.000 A 
ATOM      9  C   UNL     1       2.272   4.291  20.191  0.00  0.00    +0.000 A 
ATOM     10  C   UNL     1       2.942   5.456  19.801  0.00  0.00    +0.000 A 
ATOM     11  C   UNL     1       4.250   5.342  19.297  0.00  0.00    +0.000 A 
BRANCH   6  12
ATOM     12  N   UNL     1       6.138   3.995  18.592  0.00  0.00    +0.000 N 
ATOM     13  H   UNL     1       6.537   4.877  18.288  0.00  0.00    +0.000 HD
ATOM     14  H   UNL     1       6.175   3.282  17.869  0.00  0.00    +0.000 HD
ENDBRANCH   6  12
BRANCH   9  15
ATOM     15  O   UNL     1       0.981   4.362  20.636  0.00  0.00    +0.000 OA
ATOM     16  H   UNL     1       0.827   5.222  21.064  0.00  0.00    +0.000 HD
ENDBRANCH   9  15
ENDBRANCH   1  10
BRANCH   3  17
ATOM     17  C   UNL     1       0.490   9.521  21.001  0.00  0.00    +0.000 A 
ATOM     18  C   UNL     1       0.142  10.737  20.402  0.00  0.00    +0.000 A 
ATOM     19  C   UNL     1      -0.626  11.676  21.097  0.00  0.00    +0.000 A 
ATOM     20  C   UNL     1      -1.054  11.419  22.405  0.00  0.00    +0.000 A 
ATOM     21  C   UNL     1      -0.705  10.201  23.003  0.00  0.00    +0.000 A 
ATOM     22  C   UNL     1       0.058   9.261  22.309  0.00  0.00    +0.000 A 
BRANCH  20  23
ATOM     23  C   UNL     1      -1.868  12.398  23.123  0.00  0.00    +0.000 A 
ATOM     24  C   UNL     1      -3.212  12.231  23.593  0.00  0.00    +0.000 A 
ATOM     25  C   UNL     1      -3.687  13.346  24.249  0.00  0.00    +0.000 A 
ATOM     26  S   UNL     1      -2.532  14.603  24.297  0.00  0.00    +0.000 S 
ATOM     27  C   UNL     1      -1.394  13.659  23.436  0.00  0.00    +0.000 A 
ENDBRANCH  20  23
ENDBRANCH   3  17
TORSDOF 5
ENDMDL
MODEL 2
REMARK VINA RESULT:      -7.8      4.173      6.052
REMARK  Name = 
REMARK  5 active torsions:
REMARK  status: ('A' for Active; 'I' for Inactive)
REMARK    1  A    between atoms: N_1  and  C_2
REMARK    2  A    between atoms: C_5  and  O_6
REMARK    3  A    between atoms: C_7  and  C_8
REMARK    4  A    between atoms: C_10  and  C_11
REMARK    5  A    between atoms: C_14  and  C_15
REMARK                            x       y       z     vdW  Elec       q    Type
REMARK                         _______ _______ _______ _____ _____    ______ ____
ROOT
ATOM      1  C   UNL     1       5.037   4.736  15.838  0.00  0.00    +0.000 A 
ATOM      2  N   UNL     1       4.459   5.832  16.277  0.00  0.00    +0.000 NA
ATOM      3  C   UNL     1       3.938   5.427  17.484  0.00  0.00    +0.000 A 
ATOM      4  N   UNL     1       4.211   4.151  17.802  0.00  0.00    +0.000 NA
ATOM      5  O   UNL     1       4.942   3.693  16.711  0.00  0.00    +0.000 OA
ENDROOT
BRANCH   1  10
ATOM      6  C   UNL     1       5.960   3.422  12.441  0.00  0.00    +0.000 A 
ATOM      7  C   UNL     1       7.229   3.978  12.276  0.00  0.00    +0.000 A 
ATOM      8  C   UNL     1       7.774   4.827  13.241  0.00  0.00    +0.000 A 
ATOM      9  C   UNL     1       7.060   5.090  14.408  0.00  0.00    +0.000 A 
ATOM     10  C   UNL     1       5.802   4.515  14.622  0.00  0.00    +0.000 A 
ATOM     11  C   UNL     1       5.277   3.660  13.637  0.00  0.00    +0.000 A 
BRANCH   6  12
ATOM     12  N   UNL     1       5.492   2.458  11.543  0.00  0.00    +0.000 N 
ATOM     13  H   UNL     1       4.491   2.483  11.379  0.00  0.00    +0.000 HD
ATOM     14  H   UNL     1       5.832   1.517  11.723  0.00  0.00    +0.000 HD
ENDBRANCH   6  12
BRANCH   9  15
ATOM     15  O   UNL     1       7.620   5.885  15.369  0.00  0.00    +0.000 OA
ATOM     16  H   UNL     1       7.473   5.494  16.247  0.00  0.00    +0.000 HD
ENDBRANCH   9  15
ENDBRANCH   1  10
BRANCH   3  17
ATOM     17  C   UNL     1       3.169   6.320  18.336  0.00  0.00    +0.000 A 
ATOM     18  C   UNL     1       2.758   5.909  19.609  0.00  0.00    +0.000 A 
ATOM     19  C   UNL     1       2.029   6.773  20.432  0.00  0.00    +0.000 A 
ATOM     20  C   UNL     1       1.693   8.060  19.995  0.00  0.00    +0.000 A 
ATOM     21  C   UNL     1       2.107   8.469  18.719  0.00  0.00    +0.000 A 
ATOM     22  C   UNL     1       2.837   7.609  17.899  0.00  0.00    +0.000 A 
BRANCH  20  23
ATOM     23  C   UNL     1       0.943   8.965  20.863  0.00  0.00    +0.000 A 
ATOM     24  C   UNL     1       0.699   8.816  22.268  0.00  0.00    +0.000 A 
ATOM     25  C   UNL     1      -0.034   9.859  22.793  0.00  0.00    +0.000 A 
ATOM     26  S   UNL     1      -0.444  11.016  21.606  0.00  0.00    +0.000 S 
ATOM     27  C   UNL     1       0.355  10.123  20.386  0.00  0.00    +0.000 A 
ENDBRANCH  20  23
ENDBRANCH   3  17
TORSDOF 5
ENDMDL
MODEL 3
REMARK VINA RESULT:      -7.8      4.168      5.945
REMARK  Name = 
REMARK  5 active torsions:
REMARK  status: ('A' for Active; 'I' for Inactive)
REMARK    1  A    between atoms: N_1  and  C_2
REMARK    2  A    between atoms: C_5  and  O_6
REMARK    3  A    between atoms: C_7  and  C_8
REMARK    4  A    between atoms: C_10  and  C_11
REMARK    5  A    between atoms: C_14  and  C_15
REMARK                            x       y       z     vdW  Elec       q    Type
REMARK                         _______ _______ _______ _____ _____    ______ ____
ROOT
ATOM      1  C   UNL     1       5.056   4.783  15.885  0.00  0.00    +0.000 A 
ATOM      2  N   UNL     1       4.460   5.877  16.306  0.00  0.00    +0.000 NA
ATOM      3  C   UNL     1       3.956   5.488  17.525  0.00  0.00    +0.000 A 
ATOM      4  N   UNL     1       4.256   4.224  17.867  0.00  0.00    +0.000 NA
ATOM      5  O   UNL     1       4.988   3.758  16.781  0.00  0.00    +0.000 OA
ENDROOT
BRANCH   1  10
ATOM      6  C   UNL     1       5.958   3.451  12.490  0.00  0.00    +0.000 A 
ATOM      7  C   UNL     1       7.233   3.994  12.320  0.00  0.00    +0.000 A 
ATOM      8  C   UNL     1       7.788   4.840  13.282  0.00  0.00    +0.000 A 
ATOM      9  C   UNL     1       7.079   5.114  14.449  0.00  0.00    +0.000 A 
ATOM     10  C   UNL     1       5.816   4.552  14.668  0.00  0.00    +0.000 A 
ATOM     11  C   UNL     1       5.281   3.698  13.686  0.00  0.00    +0.000 A 
BRANCH   6  12
ATOM     12  N   UNL     1       5.480   2.489  11.595  0.00  0.00    +0.000 N 
ATOM     13  H   UNL     1       5.806   1.545  11.776  0.00  0.00    +0.000 HD
ATOM     14  H   UNL     1       5.564   2.747  10.616  0.00  0.00    +0.000 HD
ENDBRANCH   6  12
BRANCH   9  15
ATOM     15  O   UNL     1       7.649   5.906  15.407  0.00  0.00    +0.000 OA
ATOM     16  H   UNL     1       8.100   6.658  14.987  0.00  0.00    +0.000 HD
ENDBRANCH   9  15
ENDBRANCH   1  10
BRANCH   3  17
ATOM     17  C   UNL     1       3.177   6.384  18.364  0.00  0.00    +0.000 A 
ATOM     18  C   UNL     1       2.827   7.660  17.908  0.00  0.00    +0.000 A 
ATOM     19  C   UNL     1       2.067   8.516  18.710  0.00  0.00    +0.000 A 
ATOM     20  C   UNL     1       1.648   8.114  19.984  0.00  0.00    +0.000 A 
ATOM     21  C   UNL     1       1.999   6.835  20.438  0.00  0.00    +0.000 A 
ATOM     22  C   UNL     1       2.755   5.979  19.637  0.00  0.00    +0.000 A 
BRANCH  20  23
ATOM     23  C   UNL     1       0.842   9.007  20.815  0.00  0.00    +0.000 A 
ATOM     24  C   UNL     1       0.177  10.208  20.404  0.00  0.00    +0.000 A 
ATOM     25  C   UNL     1      -0.515  10.810  21.434  0.00  0.00    +0.000 A 
ATOM     26  S   UNL     1      -0.362   9.947  22.899  0.00  0.00    +0.000 S 
ATOM     27  C   UNL     1       0.632   8.768  22.161  0.00  0.00    +0.000 A 
ENDBRANCH  20  23
ENDBRANCH   3  17
TORSDOF 5
ENDMDL
MODEL 4
REMARK VINA RESULT:      -7.6      1.552      2.020
REMARK  Name = 
REMARK  5 active torsions:
REMARK  status: ('A' for Active; 'I' for Inactive)
REMARK    1  A    between atoms: N_1  and  C_2
REMARK    2  A    between atoms: C_5  and  O_6
REMARK    3  A    between atoms: C_7  and  C_8
REMARK    4  A    between atoms: C_10  and  C_11
REMARK    5  A    between atoms: C_14  and  C_15
REMARK                            x       y       z     vdW  Elec       q    Type
REMARK                         _______ _______ _______ _____ _____    ______ ____
ROOT
ATOM      1  C   UNL     1       2.543   5.752  19.083  0.00  0.00    +0.000 A 
ATOM      2  N   UNL     1       1.727   6.359  19.917  0.00  0.00    +0.000 NA
ATOM      3  C   UNL     1       1.888   7.682  19.578  0.00  0.00    +0.000 A 
ATOM      4  N   UNL     1       2.735   7.889  18.556  0.00  0.00    +0.000 NA
ATOM      5  O   UNL     1       3.168   6.609  18.227  0.00  0.00    +0.000 OA
ENDROOT
BRANCH   1  10
ATOM      6  C   UNL     1       4.074   2.359  19.592  0.00  0.00    +0.000 A 
ATOM      7  C   UNL     1       3.423   1.621  18.602  0.00  0.00    +0.000 A 
ATOM      8  C   UNL     1       2.442   2.206  17.798  0.00  0.00    +0.000 A 
ATOM      9  C   UNL     1       2.139   3.556  17.954  0.00  0.00    +0.000 A 
ATOM     10  C   UNL     1       2.804   4.333  18.909  0.00  0.00    +0.000 A 
ATOM     11  C   UNL     1       3.791   3.723  19.704  0.00  0.00    +0.000 A 
BRANCH   6  12
ATOM     12  N   UNL     1       5.155   1.805  20.284  0.00  0.00    +0.000 N 
ATOM     13  H   UNL     1       6.060   2.187  20.029  0.00  0.00    +0.000 HD
ATOM     14  H   UNL     1       5.158   0.790  20.315  0.00  0.00    +0.000 HD
ENDBRANCH   6  12
BRANCH   9  15
ATOM     15  O   UNL     1       1.212   4.132  17.130  0.00  0.00    +0.000 OA
ATOM     16  H   UNL     1       1.340   3.817  16.219  0.00  0.00    +0.000 HD
ENDBRANCH   9  15
ENDBRANCH   1  10
BRANCH   3  17
ATOM     17  C   UNL     1       1.187   8.751  20.269  0.00  0.00    +0.000 A 
ATOM     18  C   UNL     1       0.974   8.684  21.651  0.00  0.00    +0.000 A 
ATOM     19  C   UNL     1       0.310   9.719  22.318  0.00  0.00    +0.000 A 
ATOM     20  C   UNL     1      -0.158  10.834  21.613  0.00  0.00    +0.000 A 
ATOM     21  C   UNL     1       0.056  10.899  20.230  0.00  0.00    +0.000 A 
ATOM     22  C   UNL     1       0.721   9.869  19.565  0.00  0.00    +0.000 A 
BRANCH  20  23
ATOM     23  C   UNL     1      -0.840  11.920  22.316  0.00  0.00    +0.000 A 
ATOM     24  C   UNL     1      -2.023  11.825  23.120  0.00  0.00    +0.000 A 
ATOM     25  C   UNL     1      -2.399  13.038  23.655  0.00  0.00    +0.000 A 
ATOM     26  S   UNL     1      -1.347  14.299  23.190  0.00  0.00    +0.000 S 
ATOM     27  C   UNL     1      -0.386  13.225  22.268  0.00  0.00    +0.000 A 
ENDBRANCH  20  23
ENDBRANCH   3  17
TORSDOF 5
ENDMDL
MODEL 5
REMARK VINA RESULT:      -7.5      1.418      1.753
REMARK  Name = 
REMARK  5 active torsions:
REMARK  status: ('A' for Active; 'I' for Inactive)
REMARK    1  A    between atoms: N_1  and  C_2
REMARK    2  A    between atoms: C_5  and  O_6
REMARK    3  A    between atoms: C_7  and  C_8
REMARK    4  A    between atoms: C_10  and  C_11
REMARK    5  A    between atoms: C_14  and  C_15
REMARK                            x       y       z     vdW  Elec       q    Type
REMARK                         _______ _______ _______ _____ _____    ______ ____
ROOT
ATOM      1  C   UNL     1       2.133   6.721  20.126  0.00  0.00    +0.000 A 
ATOM      2  N   UNL     1       1.385   7.298  21.041  0.00  0.00    +0.000 NA
ATOM      3  C   UNL     1       1.157   8.540  20.495  0.00  0.00    +0.000 A 
ATOM      4  N   UNL     1       1.703   8.716  19.281  0.00  0.00    +0.000 NA
ATOM      5  O   UNL     1       2.348   7.509  19.035  0.00  0.00    +0.000 OA
ENDROOT
BRANCH   1  10
ATOM      6  C   UNL     1       2.631   3.093  20.965  0.00  0.00    +0.000 A 
ATOM      7  C   UNL     1       3.711   2.774  20.140  0.00  0.00    +0.000 A 
ATOM      8  C   UNL     1       4.251   3.718  19.265  0.00  0.00    +0.000 A 
ATOM      9  C   UNL     1       3.735   5.012  19.245  0.00  0.00    +0.000 A 
ATOM     10  C   UNL     1       2.680   5.375  20.090  0.00  0.00    +0.000 A 
ATOM     11  C   UNL     1       2.156   4.406  20.965  0.00  0.00    +0.000 A 
BRANCH   6  12
ATOM     12  N   UNL     1       2.201   2.188  21.940  0.00  0.00    +0.000 N 
ATOM     13  H   UNL     1       2.660   1.283  21.909  0.00  0.00    +0.000 HD
ATOM     14  H   UNL     1       1.191   2.107  22.021  0.00  0.00    +0.000 HD
ENDBRANCH   6  12
BRANCH   9  15
ATOM     15  O   UNL     1       4.300   5.944  18.419  0.00  0.00    +0.000 OA
ATOM     16  H   UNL     1       3.865   6.804  18.546  0.00  0.00    +0.000 HD
ENDBRANCH   9  15
ENDBRANCH   1  10
BRANCH   3  17
ATOM     17  C   UNL     1       0.381   9.558  21.183  0.00  0.00    +0.000 A 
ATOM     18  C   UNL     1      -0.001  10.730  20.520  0.00  0.00    +0.000 A 
ATOM     19  C   UNL     1      -0.758  11.704  21.178  0.00  0.00    +0.000 A 
ATOM     20  C   UNL     1      -1.141  11.526  22.513  0.00  0.00    +0.000 A 
ATOM     21  C   UNL     1      -0.758  10.351  23.175  0.00  0.00    +0.000 A 
ATOM     22  C   UNL     1      -0.006   9.378  22.518  0.00  0.00    +0.000 A 
BRANCH  20  23
ATOM     23  C   UNL     1      -1.944  12.540  23.194  0.00  0.00    +0.000 A 
ATOM     24  C   UNL     1      -3.302  12.417  23.638  0.00  0.00    +0.000 A 
ATOM     25  C   UNL     1      -3.761  13.558  24.261  0.00  0.00    +0.000 A 
ATOM     26  S   UNL     1      -2.575  14.784  24.309  0.00  0.00    +0.000 S 
ATOM     27  C   UNL     1      -1.444  13.794  23.492  0.00  0.00    +0.000 A 
ENDBRANCH  20  23
ENDBRANCH   3  17
TORSDOF 5
ENDMDL
MODEL 6
REMARK VINA RESULT:      -7.5      4.468      9.433
REMARK  Name = 
REMARK  5 active torsions:
REMARK  status: ('A' for Active; 'I' for Inactive)
REMARK    1  A    between atoms: N_1  and  C_2
REMARK    2  A    between atoms: C_5  and  O_6
REMARK    3  A    between atoms: C_7  and  C_8
REMARK    4  A    between atoms: C_10  and  C_11
REMARK    5  A    between atoms: C_14  and  C_15
REMARK                            x       y       z     vdW  Elec       q    Type
REMARK                         _______ _______ _______ _____ _____    ______ ____
ROOT
ATOM      1  C   UNL     1      -1.110  11.627  21.449  0.00  0.00    +0.000 A 
ATOM      2  N   UNL     1      -0.905  10.533  20.748  0.00  0.00    +0.000 NA
ATOM      3  C   UNL     1       0.467  10.446  20.731  0.00  0.00    +0.000 A 
ATOM      4  N   UNL     1       1.089  11.417  21.419  0.00  0.00    +0.000 NA
ATOM      5  O   UNL     1       0.043  12.199  21.898  0.00  0.00    +0.000 OA
ENDROOT
BRANCH   1  10
ATOM      6  C   UNL     1      -3.926  12.762  23.662  0.00  0.00    +0.000 A 
ATOM      7  C   UNL     1      -4.779  13.349  22.727  0.00  0.00    +0.000 A 
ATOM      8  C   UNL     1      -4.424  13.430  21.379  0.00  0.00    +0.000 A 
ATOM      9  C   UNL     1      -3.219  12.878  20.952  0.00  0.00    +0.000 A 
ATOM     10  C   UNL     1      -2.360  12.245  21.857  0.00  0.00    +0.000 A 
ATOM     11  C   UNL     1      -2.743  12.173  23.208  0.00  0.00    +0.000 A 
BRANCH   6  12
ATOM     12  N   UNL     1      -4.359  12.552  24.975  0.00  0.00    +0.000 N 
ATOM     13  H   UNL     1      -4.482  13.400  25.519  0.00  0.00    +0.000 HD
ATOM     14  H   UNL     1      -3.839  11.840  25.480  0.00  0.00    +0.000 HD
ENDBRANCH   6  12
BRANCH   9  15
ATOM     15  O   UNL     1      -2.900  12.920  19.622  0.00  0.00    +0.000 OA
ATOM     16  H   UNL     1      -3.305  12.166  19.162  0.00  0.00    +0.000 HD
ENDBRANCH   9  15
ENDBRANCH   1  10
BRANCH   3  17
ATOM     17  C   UNL     1       1.169   9.382  20.031  0.00  0.00    +0.000 A 
ATOM     18  C   UNL     1       1.492   8.191  20.689  0.00  0.00    +0.000 A 
ATOM     19  C   UNL     1       2.155   7.163  20.011  0.00  0.00    +0.000 A 
ATOM     20  C   UNL     1       2.513   7.312  18.666  0.00  0.00    +0.000 A 
ATOM     21  C   UNL     1       2.188   8.507  18.009  0.00  0.00    +0.000 A 
ATOM     22  C   UNL     1       1.523   9.531  18.683  0.00  0.00    +0.000 A 
BRANCH  20  23
ATOM     23  C   UNL     1       3.195   6.230  17.957  0.00  0.00    +0.000 A 
ATOM     24  C   UNL     1       4.354   6.337  17.121  0.00  0.00    +0.000 A 
ATOM     25  C   UNL     1       4.755   5.120  16.613  0.00  0.00    +0.000 A 
ATOM     26  S   UNL     1       3.742   3.846  17.125  0.00  0.00    +0.000 S 
ATOM     27  C   UNL     1       2.760   4.919  18.025  0.00  0.00    +0.000 A 
ENDBRANCH  20  23
ENDBRANCH   3  17
TORSDOF 5
ENDMDL
MODEL 7
REMARK VINA RESULT:      -7.5      1.557      1.850
REMARK  Name = 
REMARK  5 active torsions:
REMARK  status: ('A' for Active; 'I' for Inactive)
REMARK    1  A    between atoms: N_1  and  C_2
REMARK    2  A    between atoms: C_5  and  O_6
REMARK    3  A    between atoms: C_7  and  C_8
REMARK    4  A    between atoms: C_10  and  C_11
REMARK    5  A    between atoms: C_14  and  C_15
REMARK                            x       y       z     vdW  Elec       q    Type
REMARK                         _______ _______ _______ _____ _____    ______ ____
ROOT
ATOM      1  C   UNL     1       2.505   6.347  19.344  0.00  0.00    +0.000 A 
ATOM      2  N   UNL     1       1.744   6.888  20.269  0.00  0.00    +0.000 NA
ATOM      3  C   UNL     1       1.630   8.188  19.833  0.00  0.00    +0.000 A 
ATOM      4  N   UNL     1       2.257   8.437  18.672  0.00  0.00    +0.000 NA
ATOM      5  O   UNL     1       2.836   7.215  18.346  0.00  0.00    +0.000 OA
ENDROOT
BRANCH   1  10
ATOM      6  C   UNL     1       2.402   2.630  18.802  0.00  0.00    +0.000 A 
ATOM      7  C   UNL     1       3.743   2.295  18.996  0.00  0.00    +0.000 A 
ATOM      8  C   UNL     1       4.701   3.279  19.250  0.00  0.00    +0.000 A 
ATOM      9  C   UNL     1       4.308   4.611  19.356  0.00  0.00    +0.000 A 
ATOM     10  C   UNL     1       2.964   4.974  19.208  0.00  0.00    +0.000 A 
ATOM     11  C   UNL     1       2.018   3.964  18.958  0.00  0.00    +0.000 A 
BRANCH   6  12
ATOM     12  N   UNL     1       1.435   1.626  18.701  0.00  0.00    +0.000 N 
ATOM     13  H   UNL     1       1.797   0.681  18.781  0.00  0.00    +0.000 HD
ATOM     14  H   UNL     1       0.801   1.732  17.914  0.00  0.00    +0.000 HD
ENDBRANCH   6  12
BRANCH   9  15
ATOM     15  O   UNL     1       5.244   5.562  19.651  0.00  0.00    +0.000 OA
ATOM     16  H   UNL     1       6.128   5.244  19.399  0.00  0.00    +0.000 HD
ENDBRANCH   9  15
ENDBRANCH   1  10
BRANCH   3  17
ATOM     17  C   UNL     1       0.882   9.191  20.573  0.00  0.00    +0.000 A 
ATOM     18  C   UNL     1       0.652  10.457  20.021  0.00  0.00    +0.000 A 
ATOM     19  C   UNL     1      -0.078  11.417  20.728  0.00  0.00    +0.000 A 
ATOM     20  C   UNL     1      -0.585  11.131  22.001  0.00  0.00    +0.000 A 
ATOM     21  C   UNL     1      -0.354   9.863  22.552  0.00  0.00    +0.000 A 
ATOM     22  C   UNL     1       0.371   8.903  21.846  0.00  0.00    +0.000 A 
BRANCH  20  23
ATOM     23  C   UNL     1      -1.360  12.133  22.733  0.00  0.00    +0.000 A 
ATOM     24  C   UNL     1      -2.670  11.978  23.293  0.00  0.00    +0.000 A 
ATOM     25  C   UNL     1      -3.110  13.115  23.935  0.00  0.00    +0.000 A 
ATOM     26  S   UNL     1      -1.964  14.378  23.861  0.00  0.00    +0.000 S 
ATOM     27  C   UNL     1      -0.876  13.408  22.967  0.00  0.00    +0.000 A 
ENDBRANCH  20  23
ENDBRANCH   3  17
TORSDOF 5
ENDMDL
MODEL 8
REMARK VINA RESULT:      -7.4      4.441      9.372
REMARK  Name = 
REMARK  5 active torsions:
REMARK  status: ('A' for Active; 'I' for Inactive)
REMARK    1  A    between atoms: N_1  and  C_2
REMARK    2  A    between atoms: C_5  and  O_6
REMARK    3  A    between atoms: C_7  and  C_8
REMARK    4  A    between atoms: C_10  and  C_11
REMARK    5  A    between atoms: C_14  and  C_15
REMARK                            x       y       z     vdW  Elec       q    Type
REMARK                         _______ _______ _______ _____ _____    ______ ____
ROOT
ATOM      1  C   UNL     1      -1.053  11.555  21.356  0.00  0.00    +0.000 A 
ATOM      2  N   UNL     1      -0.851  10.519  20.572  0.00  0.00    +0.000 NA
ATOM      3  C   UNL     1       0.501  10.306  20.707  0.00  0.00    +0.000 A 
ATOM      4  N   UNL     1       1.108  11.143  21.564  0.00  0.00    +0.000 NA
ATOM      5  O   UNL     1       0.077  11.970  21.996  0.00  0.00    +0.000 OA
ENDROOT
BRANCH   1  10
ATOM      6  C   UNL     1      -3.882  12.960  23.391  0.00  0.00    +0.000 A 
ATOM      7  C   UNL     1      -4.690  13.499  22.388  0.00  0.00    +0.000 A 
ATOM      8  C   UNL     1      -4.297  13.459  21.049  0.00  0.00    +0.000 A 
ATOM      9  C   UNL     1      -3.102  12.833  20.701  0.00  0.00    +0.000 A 
ATOM     10  C   UNL     1      -2.290  12.247  21.678  0.00  0.00    +0.000 A 
ATOM     11  C   UNL     1      -2.710  12.296  23.020  0.00  0.00    +0.000 A 
BRANCH   6  12
ATOM     12  N   UNL     1      -4.356  12.872  24.703  0.00  0.00    +0.000 N 
ATOM     13  H   UNL     1      -3.869  13.464  25.369  0.00  0.00    +0.000 HD
ATOM     14  H   UNL     1      -4.474  11.922  25.044  0.00  0.00    +0.000 HD
ENDBRANCH   6  12
BRANCH   9  15
ATOM     15  O   UNL     1      -2.748  12.757  19.382  0.00  0.00    +0.000 OA
ATOM     16  H   UNL     1      -2.012  13.367  19.203  0.00  0.00    +0.000 HD
ENDBRANCH   9  15
ENDBRANCH   1  10
BRANCH   3  17
ATOM     17  C   UNL     1       1.196   9.253  19.985  0.00  0.00    +0.000 A 
ATOM     18  C   UNL     1       1.509   9.408  18.630  0.00  0.00    +0.000 A 
ATOM     19  C   UNL     1       2.189   8.400  17.939  0.00  0.00    +0.000 A 
ATOM     20  C   UNL     1       2.560   7.217  18.589  0.00  0.00    +0.000 A 
ATOM     21  C   UNL     1       2.245   7.064  19.946  0.00  0.00    +0.000 A 
ATOM     22  C   UNL     1       1.571   8.070  20.637  0.00  0.00    +0.000 A 
BRANCH  20  23
ATOM     23  C   UNL     1       3.282   6.170  17.867  0.00  0.00    +0.000 A 
ATOM     24  C   UNL     1       2.971   4.772  17.827  0.00  0.00    +0.000 A 
ATOM     25  C   UNL     1       3.846   4.056  17.037  0.00  0.00    +0.000 A 
ATOM     26  S   UNL     1       5.050   5.052  16.349  0.00  0.00    +0.000 S 
ATOM     27  C   UNL     1       4.406   6.443  17.109  0.00  0.00    +0.000 A 
ENDBRANCH  20  23
ENDBRANCH   3  17
TORSDOF 5
ENDMDL
MODEL 9
REMARK VINA RESULT:      -7.4      2.029      2.728
REMARK  Name = 
REMARK  5 active torsions:
REMARK  status: ('A' for Active; 'I' for Inactive)
REMARK    1  A    between atoms: N_1  and  C_2
REMARK    2  A    between atoms: C_5  and  O_6
REMARK    3  A    between atoms: C_7  and  C_8
REMARK    4  A    between atoms: C_10  and  C_11
REMARK    5  A    between atoms: C_14  and  C_15
REMARK                            x       y       z     vdW  Elec       q    Type
REMARK                         _______ _______ _______ _____ _____    ______ ____
ROOT
ATOM      1  C   UNL     1       3.246   6.116  18.766  0.00  0.00    +0.000 A 
ATOM      2  N   UNL     1       2.890   7.368  18.955  0.00  0.00    +0.000 NA
ATOM      3  C   UNL     1       1.999   7.267  19.998  0.00  0.00    +0.000 A 
ATOM      4  N   UNL     1       1.835   6.018  20.464  0.00  0.00    +0.000 NA
ATOM      5  O   UNL     1       2.664   5.255  19.649  0.00  0.00    +0.000 OA
ENDROOT
BRANCH   1  10
ATOM      6  C   UNL     1       6.366   5.746  16.707  0.00  0.00    +0.000 A 
ATOM      7  C   UNL     1       6.071   4.592  15.980  0.00  0.00    +0.000 A 
ATOM      8  C   UNL     1       4.881   3.893  16.192  0.00  0.00    +0.000 A 
ATOM      9  C   UNL     1       3.953   4.378  17.110  0.00  0.00    +0.000 A 
ATOM     10  C   UNL     1       4.200   5.556  17.824  0.00  0.00    +0.000 A 
ATOM     11  C   UNL     1       5.404   6.244  17.589  0.00  0.00    +0.000 A 
BRANCH   6  12
ATOM     12  N   UNL     1       7.486   6.516  16.378  0.00  0.00    +0.000 N 
ATOM     13  H   UNL     1       7.496   6.862  15.424  0.00  0.00    +0.000 HD
ATOM     14  H   UNL     1       8.374   6.103  16.650  0.00  0.00    +0.000 HD
ENDBRANCH   6  12
BRANCH   9  15
ATOM     15  O   UNL     1       2.769   3.714  17.277  0.00  0.00    +0.000 OA
ATOM     16  H   UNL     1       2.933   2.846  17.685  0.00  0.00    +0.000 HD
ENDBRANCH   9  15
ENDBRANCH   1  10
BRANCH   3  17
ATOM     17  C   UNL     1       1.309   8.424  20.544  0.00  0.00    +0.000 A 
ATOM     18  C   UNL     1       1.055   8.518  21.917  0.00  0.00    +0.000 A 
ATOM     19  C   UNL     1       0.402   9.637  22.443  0.00  0.00    +0.000 A 
ATOM     20  C   UNL     1      -0.012  10.679  21.605  0.00  0.00    +0.000 A 
ATOM     21  C   UNL     1       0.244  10.583  20.230  0.00  0.00    +0.000 A 
ATOM     22  C   UNL     1       0.898   9.468  19.705  0.00  0.00    +0.000 A 
BRANCH  20  23
ATOM     23  C   UNL     1      -0.682  11.854  22.160  0.00  0.00    +0.000 A 
ATOM     24  C   UNL     1      -1.859  11.876  22.977  0.00  0.00    +0.000 A 
ATOM     25  C   UNL     1      -2.224  13.153  23.348  0.00  0.00    +0.000 A 
ATOM     26  S   UNL     1      -1.167  14.332  22.712  0.00  0.00    +0.000 S 
ATOM     27  C   UNL     1      -0.220  13.138  21.935  0.00  0.00    +0.000 A 
ENDBRANCH  20  23
ENDBRANCH   3  17
TORSDOF 5
ENDMDL
