MODEL 1
REMARK VINA RESULT:      -7.6      0.000      0.000
REMARK  Name = 
REMARK  9 active torsions:
REMARK  status: ('A' for Active; 'I' for Inactive)
REMARK    1  A    between atoms: C_1  and  C_2
REMARK    2  A    between atoms: C_5  and  C_6
REMARK    3  A    between atoms: N_13  and  C_14
REMARK    4  A    between atoms: C_14  and  C_15
REMARK    5  A    between atoms: C_14  and  C_16
REMARK    6  A    between atoms: C_16  and  O_17
REMARK    7  A    between atoms: C_16  and  C_18
REMARK    8  A    between atoms: C_16  and  C_24
REMARK    9  A    between atoms: C_18  and  N_19
REMARK                            x       y       z     vdW  Elec       q    Type
REMARK                         _______ _______ _______ _____ _____    ______ ____
ROOT
ATOM      1  C   UNL     1      -1.292  11.698  20.376  0.00  0.00    +0.000 C 
ATOM      2  C   UNL     1      -1.776  11.078  19.049  0.00  0.00    +0.000 C 
ENDROOT
BRANCH   1  10
ATOM      3  C   UNL     1       1.875   7.413  19.817  0.00  0.00    +0.000 A 
ATOM      4  N   UNL     1       1.319   8.028  20.937  0.00  0.00    +0.000 NA
ATOM      5  C   UNL     1       1.201   9.295  20.577  0.00  0.00    +0.000 A 
ATOM      6  N   UNL     1       1.635   9.411  19.299  0.00  0.00    +0.000 N 
ATOM      7  N   UNL     1       2.092   8.266  18.803  0.00  0.00    +0.000 NA
ATOM      8  C   UNL     1       1.429  10.543  18.450  0.00  0.00    +0.000 C 
ATOM      9  C   UNL     1       1.007  11.777  19.242  0.00  0.00    +0.000 C 
ATOM     10  N   UNL     1       0.195  11.620  20.464  0.00  0.00    +0.000 NA
ATOM     11  C   UNL     1       0.701  10.500  21.321  0.00  0.00    +0.000 C 
BRANCH   3  16
ATOM     12  C   UNL     1       2.341   1.738  18.837  0.00  0.00    +0.000 C 
ATOM     13  C   UNL     1       2.322   3.201  19.171  0.00  0.00    +0.000 A 
ATOM     14  C   UNL     1       1.770   3.675  20.368  0.00  0.00    +0.000 A 
ATOM     15  C   UNL     1       1.669   5.053  20.617  0.00  0.00    +0.000 A 
ATOM     16  C   UNL     1       2.109   5.978  19.665  0.00  0.00    +0.000 A 
ATOM     17  C   UNL     1       2.717   5.491  18.493  0.00  0.00    +0.000 A 
ATOM     18  C   UNL     1       2.825   4.120  18.247  0.00  0.00    +0.000 A 
ENDBRANCH   3  16
ENDBRANCH   1  10
BRANCH   1  19
ATOM     19  C   UNL     1      -2.056  13.108  20.739  0.00  0.00    +0.000 C 
BRANCH  19  20
ATOM     20  C   UNL     1      -3.104  12.910  21.856  0.00  0.00    +0.000 A 
ATOM     21  C   UNL     1      -4.477  13.145  21.593  0.00  0.00    +0.000 A 
ATOM     22  C   UNL     1      -5.461  13.012  22.581  0.00  0.00    +0.000 A 
ATOM     23  C   UNL     1      -5.091  12.607  23.855  0.00  0.00    +0.000 A 
ATOM     24  F   UNL     1      -6.026  12.485  24.812  0.00  0.00    +0.000 F 
ATOM     25  C   UNL     1      -3.764  12.354  24.153  0.00  0.00    +0.000 A 
ATOM     26  C   UNL     1      -2.785  12.500  23.159  0.00  0.00    +0.000 A 
ATOM     27  F   UNL     1      -1.515  12.247  23.497  0.00  0.00    +0.000 F 
ENDBRANCH  19  20
BRANCH  19  28
ATOM     28  O   UNL     1      -2.830  13.488  19.568  0.00  0.00    +0.000 OA
ATOM     29  H   UNL     1      -3.668  13.901  19.844  0.00  0.00    +0.000 HD
ENDBRANCH  19  28
BRANCH  19  30
ATOM     30  C   UNL     1      -1.043  14.250  20.969  0.00  0.00    +0.000 C 
BRANCH  30  31
ATOM     31  N   UNL     1      -0.839  15.335  20.040  0.00  0.00    +0.000 N 
ATOM     32  C   UNL     1      -0.014  15.470  18.975  0.00  0.00    +0.000 A 
ATOM     33  N   UNL     1      -0.285  16.596  18.349  0.00  0.00    +0.000 NA
ATOM     34  C   UNL     1      -1.312  17.121  19.079  0.00  0.00    +0.000 A 
ATOM     35  N   UNL     1      -1.674  16.396  20.138  0.00  0.00    +0.000 NA
ENDBRANCH  30  31
ENDBRANCH  19  30
ENDBRANCH   1  19
TORSDOF 7
ENDMDL
MODEL 2
REMARK VINA RESULT:      -7.5      1.193      1.384
REMARK  Name = 
REMARK  9 active torsions:
REMARK  status: ('A' for Active; 'I' for Inactive)
REMARK    1  A    between atoms: C_1  and  C_2
REMARK    2  A    between atoms: C_5  and  C_6
REMARK    3  A    between atoms: N_13  and  C_14
REMARK    4  A    between atoms: C_14  and  C_15
REMARK    5  A    between atoms: C_14  and  C_16
REMARK    6  A    between atoms: C_16  and  O_17
REMARK    7  A    between atoms: C_16  and  C_18
REMARK    8  A    between atoms: C_16  and  C_24
REMARK    9  A    between atoms: C_18  and  N_19
REMARK                            x       y       z     vdW  Elec       q    Type
REMARK                         _______ _______ _______ _____ _____    ______ ____
ROOT
ATOM      1  C   UNL     1      -1.153  11.199  19.938  0.00  0.00    +0.000 C 
ATOM      2  C   UNL     1      -1.576  10.387  18.696  0.00  0.00    +0.000 C 
ENDROOT
BRANCH   1  10
ATOM      3  C   UNL     1       2.238   7.072  19.526  0.00  0.00    +0.000 A 
ATOM      4  N   UNL     1       1.622   7.673  20.622  0.00  0.00    +0.000 NA
ATOM      5  C   UNL     1       1.451   8.927  20.240  0.00  0.00    +0.000 A 
ATOM      6  N   UNL     1       1.913   9.048  18.973  0.00  0.00    +0.000 N 
ATOM      7  N   UNL     1       2.440   7.921  18.506  0.00  0.00    +0.000 NA
ATOM      8  C   UNL     1       1.674  10.157  18.103  0.00  0.00    +0.000 C 
ATOM      9  C   UNL     1       1.169  11.378  18.864  0.00  0.00    +0.000 C 
ATOM     10  N   UNL     1       0.333  11.197  20.066  0.00  0.00    +0.000 NA
ATOM     11  C   UNL     1       0.871  10.116  20.953  0.00  0.00    +0.000 C 
BRANCH   3  16
ATOM     12  C   UNL     1       3.250   1.480  18.479  0.00  0.00    +0.000 C 
ATOM     13  C   UNL     1       3.037   2.914  18.869  0.00  0.00    +0.000 A 
ATOM     14  C   UNL     1       1.959   3.305  19.672  0.00  0.00    +0.000 A 
ATOM     15  C   UNL     1       1.717   4.662  19.942  0.00  0.00    +0.000 A 
ATOM     16  C   UNL     1       2.548   5.648  19.402  0.00  0.00    +0.000 A 
ATOM     17  C   UNL     1       3.664   5.241  18.647  0.00  0.00    +0.000 A 
ATOM     18  C   UNL     1       3.909   3.892  18.384  0.00  0.00    +0.000 A 
ENDBRANCH   3  16
ENDBRANCH   1  10
BRANCH   1  19
ATOM     19  C   UNL     1      -1.982  12.611  20.092  0.00  0.00    +0.000 C 
BRANCH  19  20
ATOM     20  C   UNL     1      -2.890  12.598  21.341  0.00  0.00    +0.000 A 
ATOM     21  C   UNL     1      -4.260  12.942  21.228  0.00  0.00    +0.000 A 
ATOM     22  C   UNL     1      -5.117  12.978  22.336  0.00  0.00    +0.000 A 
ATOM     23  C   UNL     1      -4.622  12.636  23.585  0.00  0.00    +0.000 A 
ATOM     24  F   UNL     1      -5.433  12.676  24.655  0.00  0.00    +0.000 F 
ATOM     25  C   UNL     1      -3.294  12.281  23.740  0.00  0.00    +0.000 A 
ATOM     26  C   UNL     1      -2.442  12.259  22.626  0.00  0.00    +0.000 A 
ATOM     27  F   UNL     1      -1.165  11.912  22.828  0.00  0.00    +0.000 F 
ENDBRANCH  19  20
BRANCH  19  28
ATOM     28  O   UNL     1      -2.900  12.692  18.967  0.00  0.00    +0.000 OA
ATOM     29  H   UNL     1      -3.247  11.807  18.758  0.00  0.00    +0.000 HD
ENDBRANCH  19  28
BRANCH  19  30
ATOM     30  C   UNL     1      -1.042  13.828  19.964  0.00  0.00    +0.000 C 
BRANCH  30  31
ATOM     31  N   UNL     1      -0.461  14.512  21.095  0.00  0.00    +0.000 N 
ATOM     32  C   UNL     1       0.709  14.337  21.754  0.00  0.00    +0.000 A 
ATOM     33  N   UNL     1       0.862  15.298  22.640  0.00  0.00    +0.000 NA
ATOM     34  C   UNL     1      -0.261  16.058  22.476  0.00  0.00    +0.000 A 
ATOM     35  N   UNL     1      -1.113  15.605  21.555  0.00  0.00    +0.000 NA
ENDBRANCH  30  31
ENDBRANCH  19  30
ENDBRANCH   1  19
TORSDOF 7
ENDMDL
MODEL 3
REMARK VINA RESULT:      -7.5      2.465      3.008
REMARK  Name = 
REMARK  9 active torsions:
REMARK  status: ('A' for Active; 'I' for Inactive)
REMARK    1  A    between atoms: C_1  and  C_2
REMARK    2  A    between atoms: C_5  and  C_6
REMARK    3  A    between atoms: N_13  and  C_14
REMARK    4  A    between atoms: C_14  and  C_15
REMARK    5  A    between atoms: C_14  and  C_16
REMARK    6  A    between atoms: C_16  and  O_17
REMARK    7  A    between atoms: C_16  and  C_18
REMARK    8  A    between atoms: C_16  and  C_24
REMARK    9  A    between atoms: C_18  and  N_19
REMARK                            x       y       z     vdW  Elec       q    Type
REMARK                         _______ _______ _______ _____ _____    ______ ____
ROOT
ATOM      1  C   UNL     1      -0.953  10.799  18.991  0.00  0.00    +0.000 C 
ATOM      2  C   UNL     1      -1.160   9.825  17.813  0.00  0.00    +0.000 C 
ENDROOT
BRANCH   1  10
ATOM      3  C   UNL     1       2.384   6.616  19.258  0.00  0.00    +0.000 A 
ATOM      4  N   UNL     1       1.559   7.219  20.206  0.00  0.00    +0.000 NA
ATOM      5  C   UNL     1       1.492   8.479  19.812  0.00  0.00    +0.000 A 
ATOM      6  N   UNL     1       2.215   8.602  18.673  0.00  0.00    +0.000 N 
ATOM      7  N   UNL     1       2.812   7.470  18.315  0.00  0.00    +0.000 NA
ATOM      8  C   UNL     1       2.183   9.722  17.785  0.00  0.00    +0.000 C 
ATOM      9  C   UNL     1       1.548  10.946  18.437  0.00  0.00    +0.000 C 
ATOM     10  N   UNL     1       0.473  10.769  19.432  0.00  0.00    +0.000 NA
ATOM     11  C   UNL     1       0.793   9.671  20.399  0.00  0.00    +0.000 C 
BRANCH   3  16
ATOM     12  C   UNL     1       3.916   1.099  18.481  0.00  0.00    +0.000 C 
ATOM     13  C   UNL     1       3.454   2.494  18.789  0.00  0.00    +0.000 A 
ATOM     14  C   UNL     1       2.159   2.925  18.474  0.00  0.00    +0.000 A 
ATOM     15  C   UNL     1       1.777   4.261  18.675  0.00  0.00    +0.000 A 
ATOM     16  C   UNL     1       2.691   5.188  19.186  0.00  0.00    +0.000 A 
ATOM     17  C   UNL     1       3.970   4.730  19.555  0.00  0.00    +0.000 A 
ATOM     18  C   UNL     1       4.348   3.400  19.362  0.00  0.00    +0.000 A 
ENDBRANCH   3  16
ENDBRANCH   1  10
BRANCH   1  19
ATOM     19  C   UNL     1      -1.705  12.244  18.768  0.00  0.00    +0.000 C 
BRANCH  19  20
ATOM     20  C   UNL     1      -3.238  12.074  18.687  0.00  0.00    +0.000 A 
ATOM     21  C   UNL     1      -4.045  12.343  19.821  0.00  0.00    +0.000 A 
ATOM     22  C   UNL     1      -5.435  12.173  19.807  0.00  0.00    +0.000 A 
ATOM     23  C   UNL     1      -6.055  11.757  18.638  0.00  0.00    +0.000 A 
ATOM     24  F   UNL     1      -7.386  11.581  18.617  0.00  0.00    +0.000 F 
ATOM     25  C   UNL     1      -5.308  11.495  17.504  0.00  0.00    +0.000 A 
ATOM     26  C   UNL     1      -3.915  11.659  17.531  0.00  0.00    +0.000 A 
ATOM     27  F   UNL     1      -3.236  11.390  16.409  0.00  0.00    +0.000 F 
ENDBRANCH  19  20
BRANCH  19  28
ATOM     28  O   UNL     1      -1.316  12.729  17.453  0.00  0.00    +0.000 OA
ATOM     29  H   UNL     1      -0.551  12.223  17.126  0.00  0.00    +0.000 HD
ENDBRANCH  19  28
BRANCH  19  30
ATOM     30  C   UNL     1      -1.204  13.298  19.777  0.00  0.00    +0.000 C 
BRANCH  30  31
ATOM     31  N   UNL     1      -0.493  14.495  19.395  0.00  0.00    +0.000 N 
ATOM     32  C   UNL     1      -0.792  15.808  19.534  0.00  0.00    +0.000 A 
ATOM     33  N   UNL     1       0.235  16.536  19.152  0.00  0.00    +0.000 NA
ATOM     34  C   UNL     1       1.163  15.603  18.787  0.00  0.00    +0.000 A 
ATOM     35  N   UNL     1       0.757  14.337  18.898  0.00  0.00    +0.000 NA
ENDBRANCH  30  31
ENDBRANCH  19  30
ENDBRANCH   1  19
TORSDOF 7
ENDMDL
MODEL 4
REMARK VINA RESULT:      -7.4      1.725      2.231
REMARK  Name = 
REMARK  9 active torsions:
REMARK  status: ('A' for Active; 'I' for Inactive)
REMARK    1  A    between atoms: C_1  and  C_2
REMARK    2  A    between atoms: C_5  and  C_6
REMARK    3  A    between atoms: N_13  and  C_14
REMARK    4  A    between atoms: C_14  and  C_15
REMARK    5  A    between atoms: C_14  and  C_16
REMARK    6  A    between atoms: C_16  and  O_17
REMARK    7  A    between atoms: C_16  and  C_18
REMARK    8  A    between atoms: C_16  and  C_24
REMARK    9  A    between atoms: C_18  and  N_19
REMARK                            x       y       z     vdW  Elec       q    Type
REMARK                         _______ _______ _______ _____ _____    ______ ____
ROOT
ATOM      1  C   UNL     1      -0.883  11.132  19.591  0.00  0.00    +0.000 C 
ATOM      2  C   UNL     1      -1.290  10.253  18.391  0.00  0.00    +0.000 C 
ENDROOT
BRANCH   1  10
ATOM      3  C   UNL     1       2.312   6.881  18.945  0.00  0.00    +0.000 A 
ATOM      4  N   UNL     1       1.643   7.390  20.056  0.00  0.00    +0.000 NA
ATOM      5  C   UNL     1       1.568   8.687  19.813  0.00  0.00    +0.000 A 
ATOM      6  N   UNL     1       2.134   8.922  18.605  0.00  0.00    +0.000 N 
ATOM      7  N   UNL     1       2.638   7.825  18.049  0.00  0.00    +0.000 NA
ATOM      8  C   UNL     1       2.023  10.135  17.856  0.00  0.00    +0.000 C 
ATOM      9  C   UNL     1       1.524  11.291  18.717  0.00  0.00    +0.000 C 
ATOM     10  N   UNL     1       0.587  11.026  19.826  0.00  0.00    +0.000 NA
ATOM     11  C   UNL     1       0.996   9.821  20.616  0.00  0.00    +0.000 C 
BRANCH   3  16
ATOM     12  C   UNL     1       3.645   1.289  18.362  0.00  0.00    +0.000 C 
ATOM     13  C   UNL     1       3.221   2.727  18.410  0.00  0.00    +0.000 A 
ATOM     14  C   UNL     1       3.765   3.684  17.544  0.00  0.00    +0.000 A 
ATOM     15  C   UNL     1       3.432   5.042  17.673  0.00  0.00    +0.000 A 
ATOM     16  C   UNL     1       2.557   5.464  18.678  0.00  0.00    +0.000 A 
ATOM     17  C   UNL     1       1.969   4.487  19.503  0.00  0.00    +0.000 A 
ATOM     18  C   UNL     1       2.294   3.135  19.372  0.00  0.00    +0.000 A 
ENDBRANCH   3  16
ENDBRANCH   1  10
BRANCH   1  19
ATOM     19  C   UNL     1      -1.599  12.612  19.574  0.00  0.00    +0.000 C 
BRANCH  19  20
ATOM     20  C   UNL     1      -3.080  12.527  19.999  0.00  0.00    +0.000 A 
ATOM     21  C   UNL     1      -3.457  12.834  21.331  0.00  0.00    +0.000 A 
ATOM     22  C   UNL     1      -4.783  12.740  21.774  0.00  0.00    +0.000 A 
ATOM     23  C   UNL     1      -5.771  12.364  20.877  0.00  0.00    +0.000 A 
ATOM     24  F   UNL     1      -7.044  12.262  21.294  0.00  0.00    +0.000 F 
ATOM     25  C   UNL     1      -5.451  12.068  19.564  0.00  0.00    +0.000 A 
ATOM     26  C   UNL     1      -4.119  12.156  19.133  0.00  0.00    +0.000 A 
ATOM     27  F   UNL     1      -3.860  11.856  17.855  0.00  0.00    +0.000 F 
ENDBRANCH  19  20
BRANCH  19  28
ATOM     28  O   UNL     1      -1.636  13.051  18.187  0.00  0.00    +0.000 OA
ATOM     29  H   UNL     1      -2.421  12.683  17.744  0.00  0.00    +0.000 HD
ENDBRANCH  19  28
BRANCH  19  30
ATOM     30  C   UNL     1      -0.747  13.655  20.328  0.00  0.00    +0.000 C 
BRANCH  30  31
ATOM     31  N   UNL     1      -0.102  14.775  19.685  0.00  0.00    +0.000 N 
ATOM     32  C   UNL     1       1.156  14.945  19.214  0.00  0.00    +0.000 A 
ATOM     33  N   UNL     1       1.237  16.097  18.582  0.00  0.00    +0.000 NA
ATOM     34  C   UNL     1      -0.027  16.602  18.688  0.00  0.00    +0.000 A 
ATOM     35  N   UNL     1      -0.879  15.838  19.373  0.00  0.00    +0.000 NA
ENDBRANCH  30  31
ENDBRANCH  19  30
ENDBRANCH   1  19
TORSDOF 7
ENDMDL
MODEL 5
REMARK VINA RESULT:      -7.3      1.943      2.816
REMARK  Name = 
REMARK  9 active torsions:
REMARK  status: ('A' for Active; 'I' for Inactive)
REMARK    1  A    between atoms: C_1  and  C_2
REMARK    2  A    between atoms: C_5  and  C_6
REMARK    3  A    between atoms: N_13  and  C_14
REMARK    4  A    between atoms: C_14  and  C_15
REMARK    5  A    between atoms: C_14  and  C_16
REMARK    6  A    between atoms: C_16  and  O_17
REMARK    7  A    between atoms: C_16  and  C_18
REMARK    8  A    between atoms: C_16  and  C_24
REMARK    9  A    between atoms: C_18  and  N_19
REMARK                            x       y       z     vdW  Elec       q    Type
REMARK                         _______ _______ _______ _____ _____    ______ ____
ROOT
ATOM      1  C   UNL     1       0.596  12.144  19.763  0.00  0.00    +0.000 C 
ATOM      2  C   UNL     1       1.826  12.133  20.692  0.00  0.00    +0.000 C 
ENDROOT
BRANCH   1  10
ATOM      3  C   UNL     1       2.565   7.359  18.376  0.00  0.00    +0.000 A 
ATOM      4  N   UNL     1       1.819   8.304  17.675  0.00  0.00    +0.000 NA
ATOM      5  C   UNL     1       1.115   8.912  18.615  0.00  0.00    +0.000 A 
ATOM      6  N   UNL     1       1.457   8.373  19.810  0.00  0.00    +0.000 N 
ATOM      7  N   UNL     1       2.333   7.381  19.698  0.00  0.00    +0.000 NA
ATOM      8  C   UNL     1       1.133   8.920  21.091  0.00  0.00    +0.000 C 
ATOM      9  C   UNL     1       0.030   9.969  20.999  0.00  0.00    +0.000 C 
ATOM     10  N   UNL     1      -0.079  10.813  19.794  0.00  0.00    +0.000 NA
ATOM     11  C   UNL     1       0.093  10.009  18.542  0.00  0.00    +0.000 C 
BRANCH   3  16
ATOM     12  C   UNL     1       6.344   4.006  15.571  0.00  0.00    +0.000 C 
ATOM     13  C   UNL     1       5.430   4.853  16.408  0.00  0.00    +0.000 A 
ATOM     14  C   UNL     1       4.436   4.286  17.216  0.00  0.00    +0.000 A 
ATOM     15  C   UNL     1       3.525   5.097  17.911  0.00  0.00    +0.000 A 
ATOM     16  C   UNL     1       3.590   6.489  17.800  0.00  0.00    +0.000 A 
ATOM     17  C   UNL     1       4.630   7.050  17.034  0.00  0.00    +0.000 A 
ATOM     18  C   UNL     1       5.540   6.244  16.348  0.00  0.00    +0.000 A 
ENDBRANCH   3  16
ENDBRANCH   1  10
BRANCH   1  19
ATOM     19  C   UNL     1      -0.302  13.514  19.904  0.00  0.00    +0.000 C 
BRANCH  19  20
ATOM     20  C   UNL     1      -1.575  13.270  20.743  0.00  0.00    +0.000 A 
ATOM     21  C   UNL     1      -2.840  13.181  20.108  0.00  0.00    +0.000 A 
ATOM     22  C   UNL     1      -4.027  12.994  20.828  0.00  0.00    +0.000 A 
ATOM     23  C   UNL     1      -3.968  12.859  22.207  0.00  0.00    +0.000 A 
ATOM     24  F   UNL     1      -5.101  12.689  22.907  0.00  0.00    +0.000 F 
ATOM     25  C   UNL     1      -2.754  12.927  22.867  0.00  0.00    +0.000 A 
ATOM     26  C   UNL     1      -1.572  13.125  22.137  0.00  0.00    +0.000 A 
ATOM     27  F   UNL     1      -0.424  13.186  22.822  0.00  0.00    +0.000 F 
ENDBRANCH  19  20
BRANCH  19  28
ATOM     28  O   UNL     1      -0.792  13.842  18.574  0.00  0.00    +0.000 OA
ATOM     29  H   UNL     1      -0.252  13.390  17.901  0.00  0.00    +0.000 HD
ENDBRANCH  19  28
BRANCH  19  30
ATOM     30  C   UNL     1       0.568  14.710  20.345  0.00  0.00    +0.000 C 
BRANCH  30  31
ATOM     31  N   UNL     1       1.173  15.641  19.422  0.00  0.00    +0.000 N 
ATOM     32  C   UNL     1       1.018  16.976  19.253  0.00  0.00    +0.000 A 
ATOM     33  N   UNL     1       1.892  17.411  18.370  0.00  0.00    +0.000 NA
ATOM     34  C   UNL     1       2.579  16.283  18.026  0.00  0.00    +0.000 A 
ATOM     35  N   UNL     1       2.162  15.168  18.629  0.00  0.00    +0.000 NA
ENDBRANCH  30  31
ENDBRANCH  19  30
ENDBRANCH   1  19
TORSDOF 7
ENDMDL
MODEL 6
REMARK VINA RESULT:      -7.3      1.229      1.639
REMARK  Name = 
REMARK  9 active torsions:
REMARK  status: ('A' for Active; 'I' for Inactive)
REMARK    1  A    between atoms: C_1  and  C_2
REMARK    2  A    between atoms: C_5  and  C_6
REMARK    3  A    between atoms: N_13  and  C_14
REMARK    4  A    between atoms: C_14  and  C_15
REMARK    5  A    between atoms: C_14  and  C_16
REMARK    6  A    between atoms: C_16  and  O_17
REMARK    7  A    between atoms: C_16  and  C_18
REMARK    8  A    between atoms: C_16  and  C_24
REMARK    9  A    between atoms: C_18  and  N_19
REMARK                            x       y       z     vdW  Elec       q    Type
REMARK                         _______ _______ _______ _____ _____    ______ ____
ROOT
ATOM      1  C   UNL     1      -1.092  11.835  20.428  0.00  0.00    +0.000 C 
ATOM      2  C   UNL     1      -1.642  11.310  19.085  0.00  0.00    +0.000 C 
ENDROOT
BRANCH   1  10
ATOM      3  C   UNL     1       1.833   7.393  19.785  0.00  0.00    +0.000 A 
ATOM      4  N   UNL     1       1.348   8.039  20.919  0.00  0.00    +0.000 NA
ATOM      5  C   UNL     1       1.282   9.309  20.557  0.00  0.00    +0.000 A 
ATOM      6  N   UNL     1       1.678   9.398  19.265  0.00  0.00    +0.000 N 
ATOM      7  N   UNL     1       2.060   8.229  18.759  0.00  0.00    +0.000 NA
ATOM      8  C   UNL     1       1.501  10.536  18.418  0.00  0.00    +0.000 C 
ATOM      9  C   UNL     1       1.169  11.792  19.216  0.00  0.00    +0.000 C 
ATOM     10  N   UNL     1       0.392  11.681  20.466  0.00  0.00    +0.000 NA
ATOM     11  C   UNL     1       0.869  10.540  21.311  0.00  0.00    +0.000 C 
BRANCH   3  16
ATOM     12  C   UNL     1       1.915   1.680  18.919  0.00  0.00    +0.000 C 
ATOM     13  C   UNL     1       2.011   3.152  19.198  0.00  0.00    +0.000 A 
ATOM     14  C   UNL     1       1.761   3.676  20.473  0.00  0.00    +0.000 A 
ATOM     15  C   UNL     1       1.755   5.064  20.691  0.00  0.00    +0.000 A 
ATOM     16  C   UNL     1       1.990   5.947  19.633  0.00  0.00    +0.000 A 
ATOM     17  C   UNL     1       2.300   5.408  18.370  0.00  0.00    +0.000 A 
ATOM     18  C   UNL     1       2.313   4.028  18.154  0.00  0.00    +0.000 A 
ENDBRANCH   3  16
ENDBRANCH   1  10
BRANCH   1  19
ATOM     19  C   UNL     1      -1.775  13.258  20.887  0.00  0.00    +0.000 C 
BRANCH  19  20
ATOM     20  C   UNL     1      -2.903  13.035  21.917  0.00  0.00    +0.000 A 
ATOM     21  C   UNL     1      -4.232  13.423  21.612  0.00  0.00    +0.000 A 
ATOM     22  C   UNL     1      -5.284  13.272  22.525  0.00  0.00    +0.000 A 
ATOM     23  C   UNL     1      -5.030  12.696  23.761  0.00  0.00    +0.000 A 
ATOM     24  F   UNL     1      -6.030  12.556  24.647  0.00  0.00    +0.000 F 
ATOM     25  C   UNL     1      -3.751  12.292  24.097  0.00  0.00    +0.000 A 
ATOM     26  C   UNL     1      -2.703  12.456  23.179  0.00  0.00    +0.000 A 
ATOM     27  F   UNL     1      -1.482  12.052  23.552  0.00  0.00    +0.000 F 
ENDBRANCH  19  20
BRANCH  19  28
ATOM     28  O   UNL     1      -2.443  13.808  19.718  0.00  0.00    +0.000 OA
ATOM     29  H   UNL     1      -2.554  14.769  19.821  0.00  0.00    +0.000 HD
ENDBRANCH  19  28
BRANCH  19  30
ATOM     30  C   UNL     1      -0.700  14.291  21.289  0.00  0.00    +0.000 C 
BRANCH  30  31
ATOM     31  N   UNL     1      -0.915  15.327  22.271  0.00  0.00    +0.000 N 
ATOM     32  C   UNL     1      -1.723  16.414  22.276  0.00  0.00    +0.000 A 
ATOM     33  N   UNL     1      -1.676  16.991  23.458  0.00  0.00    +0.000 NA
ATOM     34  C   UNL     1      -0.814  16.197  24.160  0.00  0.00    +0.000 A 
ATOM     35  N   UNL     1      -0.305  15.176  23.469  0.00  0.00    +0.000 NA
ENDBRANCH  30  31
ENDBRANCH  19  30
ENDBRANCH   1  19
TORSDOF 7
ENDMDL
MODEL 7
REMARK VINA RESULT:      -7.3      5.379     10.952
REMARK  Name = 
REMARK  9 active torsions:
REMARK  status: ('A' for Active; 'I' for Inactive)
REMARK    1  A    between atoms: C_1  and  C_2
REMARK    2  A    between atoms: C_5  and  C_6
REMARK    3  A    between atoms: N_13  and  C_14
REMARK    4  A    between atoms: C_14  and  C_15
REMARK    5  A    between atoms: C_14  and  C_16
REMARK    6  A    between atoms: C_16  and  O_17
REMARK    7  A    between atoms: C_16  and  C_18
REMARK    8  A    between atoms: C_16  and  C_24
REMARK    9  A    between atoms: C_18  and  N_19
REMARK                            x       y       z     vdW  Elec       q    Type
REMARK                         _______ _______ _______ _____ _____    ______ ____
ROOT
ATOM      1  C   UNL     1       3.978   4.740  17.174  0.00  0.00    +0.000 C 
ATOM      2  C   UNL     1       3.309   3.444  16.671  0.00  0.00    +0.000 C 
ENDROOT
BRANCH   1  10
ATOM      3  C   UNL     1       1.339   7.669  20.800  0.00  0.00    +0.000 A 
ATOM      4  N   UNL     1       2.578   7.834  20.184  0.00  0.00    +0.000 NA
ATOM      5  C   UNL     1       2.968   6.598  19.923  0.00  0.00    +0.000 A 
ATOM      6  N   UNL     1       1.993   5.754  20.334  0.00  0.00    +0.000 N 
ATOM      7  N   UNL     1       0.976   6.382  20.915  0.00  0.00    +0.000 NA
ATOM      8  C   UNL     1       1.897   4.367  19.998  0.00  0.00    +0.000 C 
ATOM      9  C   UNL     1       3.210   3.825  19.444  0.00  0.00    +0.000 C 
ATOM     10  N   UNL     1       4.095   4.709  18.661  0.00  0.00    +0.000 NA
ATOM     11  C   UNL     1       4.222   6.061  19.294  0.00  0.00    +0.000 C 
BRANCH   3  16
ATOM     12  C   UNL     1      -1.749  12.303  22.342  0.00  0.00    +0.000 C 
ATOM     13  C   UNL     1      -1.057  11.032  21.946  0.00  0.00    +0.000 A 
ATOM     14  C   UNL     1      -0.717  10.055  22.891  0.00  0.00    +0.000 A 
ATOM     15  C   UNL     1       0.020   8.920  22.518  0.00  0.00    +0.000 A 
ATOM     16  C   UNL     1       0.437   8.751  21.194  0.00  0.00    +0.000 A 
ATOM     17  C   UNL     1       0.038   9.708  20.242  0.00  0.00    +0.000 A 
ATOM     18  C   UNL     1      -0.701  10.833  20.610  0.00  0.00    +0.000 A 
ENDBRANCH   3  16
ENDBRANCH   1  10
BRANCH   1  19
ATOM     19  C   UNL     1       5.274   5.185  16.265  0.00  0.00    +0.000 C 
BRANCH  19  20
ATOM     20  C   UNL     1       6.303   5.978  17.101  0.00  0.00    +0.000 A 
ATOM     21  C   UNL     1       6.439   7.377  16.921  0.00  0.00    +0.000 A 
ATOM     22  C   UNL     1       7.380   8.135  17.630  0.00  0.00    +0.000 A 
ATOM     23  C   UNL     1       8.189   7.506  18.565  0.00  0.00    +0.000 A 
ATOM     24  F   UNL     1       9.100   8.222  19.244  0.00  0.00    +0.000 F 
ATOM     25  C   UNL     1       8.082   6.144  18.783  0.00  0.00    +0.000 A 
ATOM     26  C   UNL     1       7.143   5.393  18.060  0.00  0.00    +0.000 A 
ATOM     27  F   UNL     1       7.080   4.079  18.304  0.00  0.00    +0.000 F 
ENDBRANCH  19  20
BRANCH  19  28
ATOM     28  O   UNL     1       4.794   6.134  15.272  0.00  0.00    +0.000 OA
ATOM     29  H   UNL     1       3.918   6.471  15.533  0.00  0.00    +0.000 HD
ENDBRANCH  19  28
BRANCH  19  30
ATOM     30  C   UNL     1       5.840   3.988  15.472  0.00  0.00    +0.000 C 
BRANCH  30  31
ATOM     31  N   UNL     1       6.477   4.114  14.183  0.00  0.00    +0.000 N 
ATOM     32  C   UNL     1       6.234   3.516  12.992  0.00  0.00    +0.000 A 
ATOM     33  N   UNL     1       6.995   4.058  12.065  0.00  0.00    +0.000 NA
ATOM     34  C   UNL     1       7.695   5.009  12.750  0.00  0.00    +0.000 A 
ATOM     35  N   UNL     1       7.428   5.069  14.056  0.00  0.00    +0.000 NA
ENDBRANCH  30  31
ENDBRANCH  19  30
ENDBRANCH   1  19
TORSDOF 7
ENDMDL
MODEL 8
REMARK VINA RESULT:      -7.3      2.179      2.846
REMARK  Name = 
REMARK  9 active torsions:
REMARK  status: ('A' for Active; 'I' for Inactive)
REMARK    1  A    between atoms: C_1  and  C_2
REMARK    2  A    between atoms: C_5  and  C_6
REMARK    3  A    between atoms: N_13  and  C_14
REMARK    4  A    between atoms: C_14  and  C_15
REMARK    5  A    between atoms: C_14  and  C_16
REMARK    6  A    between atoms: C_16  and  O_17
REMARK    7  A    between atoms: C_16  and  C_18
REMARK    8  A    between atoms: C_16  and  C_24
REMARK    9  A    between atoms: C_18  and  N_19
REMARK                            x       y       z     vdW  Elec       q    Type
REMARK                         _______ _______ _______ _____ _____    ______ ____
ROOT
ATOM      1  C   UNL     1      -0.952  10.789  18.999  0.00  0.00    +0.000 C 
ATOM      2  C   UNL     1      -1.145   9.764  17.863  0.00  0.00    +0.000 C 
ENDROOT
BRANCH   1  10
ATOM      3  C   UNL     1       2.434   6.657  19.401  0.00  0.00    +0.000 A 
ATOM      4  N   UNL     1       1.596   7.275  20.326  0.00  0.00    +0.000 NA
ATOM      5  C   UNL     1       1.516   8.523  19.898  0.00  0.00    +0.000 A 
ATOM      6  N   UNL     1       2.244   8.624  18.760  0.00  0.00    +0.000 N 
ATOM      7  N   UNL     1       2.857   7.490  18.437  0.00  0.00    +0.000 NA
ATOM      8  C   UNL     1       2.204   9.719  17.841  0.00  0.00    +0.000 C 
ATOM      9  C   UNL     1       1.550  10.952  18.455  0.00  0.00    +0.000 C 
ATOM     10  N   UNL     1       0.471  10.789  19.449  0.00  0.00    +0.000 NA
ATOM     11  C   UNL     1       0.798   9.722  20.448  0.00  0.00    +0.000 C 
BRANCH   3  16
ATOM     12  C   UNL     1       3.779   1.083  18.685  0.00  0.00    +0.000 C 
ATOM     13  C   UNL     1       3.421   2.507  18.998  0.00  0.00    +0.000 A 
ATOM     14  C   UNL     1       2.099   2.895  19.247  0.00  0.00    +0.000 A 
ATOM     15  C   UNL     1       1.769   4.247  19.436  0.00  0.00    +0.000 A 
ATOM     16  C   UNL     1       2.759   5.231  19.370  0.00  0.00    +0.000 A 
ATOM     17  C   UNL     1       4.093   4.825  19.180  0.00  0.00    +0.000 A 
ATOM     18  C   UNL     1       4.423   3.480  18.998  0.00  0.00    +0.000 A 
ENDBRANCH   3  16
ENDBRANCH   1  10
BRANCH   1  19
ATOM     19  C   UNL     1      -1.714  12.217  18.709  0.00  0.00    +0.000 C 
BRANCH  19  20
ATOM     20  C   UNL     1      -3.240  12.024  18.574  0.00  0.00    +0.000 A 
ATOM     21  C   UNL     1      -3.801  11.631  17.333  0.00  0.00    +0.000 A 
ATOM     22  C   UNL     1      -5.181  11.476  17.151  0.00  0.00    +0.000 A 
ATOM     23  C   UNL     1      -6.033  11.682  18.226  0.00  0.00    +0.000 A 
ATOM     24  F   UNL     1      -7.359  11.544  18.060  0.00  0.00    +0.000 F 
ATOM     25  C   UNL     1      -5.528  12.054  19.459  0.00  0.00    +0.000 A 
ATOM     26  C   UNL     1      -4.145  12.217  19.628  0.00  0.00    +0.000 A 
ATOM     27  F   UNL     1      -3.706  12.581  20.839  0.00  0.00    +0.000 F 
ENDBRANCH  19  20
BRANCH  19  28
ATOM     28  O   UNL     1      -1.281  12.673  17.397  0.00  0.00    +0.000 OA
ATOM     29  H   UNL     1      -1.133  13.636  17.413  0.00  0.00    +0.000 HD
ENDBRANCH  19  28
BRANCH  19  30
ATOM     30  C   UNL     1      -1.265  13.304  19.708  0.00  0.00    +0.000 C 
BRANCH  30  31
ATOM     31  N   UNL     1      -0.257  14.294  19.412  0.00  0.00    +0.000 N 
ATOM     32  C   UNL     1      -0.313  15.467  18.738  0.00  0.00    +0.000 A 
ATOM     33  N   UNL     1       0.839  16.093  18.849  0.00  0.00    +0.000 NA
ATOM     34  C   UNL     1       1.581  15.249  19.624  0.00  0.00    +0.000 A 
ATOM     35  N   UNL     1       0.960  14.123  19.978  0.00  0.00    +0.000 NA
ENDBRANCH  30  31
ENDBRANCH  19  30
ENDBRANCH   1  19
TORSDOF 7
ENDMDL
MODEL 9
REMARK VINA RESULT:      -7.3      3.907      9.625
REMARK  Name = 
REMARK  9 active torsions:
REMARK  status: ('A' for Active; 'I' for Inactive)
REMARK    1  A    between atoms: C_1  and  C_2
REMARK    2  A    between atoms: C_5  and  C_6
REMARK    3  A    between atoms: N_13  and  C_14
REMARK    4  A    between atoms: C_14  and  C_15
REMARK    5  A    between atoms: C_14  and  C_16
REMARK    6  A    between atoms: C_16  and  O_17
REMARK    7  A    between atoms: C_16  and  C_18
REMARK    8  A    between atoms: C_16  and  C_24
REMARK    9  A    between atoms: C_18  and  N_19
REMARK                            x       y       z     vdW  Elec       q    Type
REMARK                         _______ _______ _______ _____ _____    ______ ____
ROOT
ATOM      1  C   UNL     1       1.743   7.936  19.095  0.00  0.00    +0.000 C 
ATOM      2  C   UNL     1       1.780   8.403  20.564  0.00  0.00    +0.000 C 
ENDROOT
BRANCH   1  10
ATOM      3  C   UNL     1      -2.409  11.227  18.300  0.00  0.00    +0.000 A 
ATOM      4  N   UNL     1      -1.975  10.087  17.628  0.00  0.00    +0.000 NA
ATOM      5  C   UNL     1      -0.668  10.082  17.823  0.00  0.00    +0.000 A 
ATOM      6  N   UNL     1      -0.355  11.148  18.598  0.00  0.00    +0.000 N 
ATOM      7  N   UNL     1      -1.409  11.903  18.889  0.00  0.00    +0.000 NA
ATOM      8  C   UNL     1       0.896  11.357  19.257  0.00  0.00    +0.000 C 
ATOM      9  C   UNL     1       1.992  10.458  18.696  0.00  0.00    +0.000 C 
ATOM     10  N   UNL     1       1.648   9.117  18.186  0.00  0.00    +0.000 NA
ATOM     11  C   UNL     1       0.408   9.147  17.348  0.00  0.00    +0.000 C 
BRANCH   3  16
ATOM     12  C   UNL     1      -7.801  13.278  18.626  0.00  0.00    +0.000 C 
ATOM     13  C   UNL     1      -6.438  12.650  18.620  0.00  0.00    +0.000 A 
ATOM     14  C   UNL     1      -5.544  12.822  19.684  0.00  0.00    +0.000 A 
ATOM     15  C   UNL     1      -4.238  12.313  19.616  0.00  0.00    +0.000 A 
ATOM     16  C   UNL     1      -3.804  11.631  18.475  0.00  0.00    +0.000 A 
ATOM     17  C   UNL     1      -4.729  11.410  17.437  0.00  0.00    +0.000 A 
ATOM     18  C   UNL     1      -6.031  11.910  17.507  0.00  0.00    +0.000 A 
ENDBRANCH   3  16
ENDBRANCH   1  10
BRANCH   1  19
ATOM     19  C   UNL     1       2.832   6.747  18.773  0.00  0.00    +0.000 C 
BRANCH  19  20
ATOM     20  C   UNL     1       2.178   5.350  18.843  0.00  0.00    +0.000 A 
ATOM     21  C   UNL     1       2.031   4.573  17.666  0.00  0.00    +0.000 A 
ATOM     22  C   UNL     1       1.416   3.315  17.672  0.00  0.00    +0.000 A 
ATOM     23  C   UNL     1       0.959   2.790  18.872  0.00  0.00    +0.000 A 
ATOM     24  F   UNL     1       0.359   1.589  18.887  0.00  0.00    +0.000 F 
ATOM     25  C   UNL     1       1.093   3.508  20.047  0.00  0.00    +0.000 A 
ATOM     26  C   UNL     1       1.702   4.772  20.028  0.00  0.00    +0.000 A 
ATOM     27  F   UNL     1       1.805   5.428  21.190  0.00  0.00    +0.000 F 
ENDBRANCH  19  20
BRANCH  19  28
ATOM     28  O   UNL     1       3.804   6.755  19.855  0.00  0.00    +0.000 OA
ATOM     29  H   UNL     1       3.354   6.614  20.707  0.00  0.00    +0.000 HD
ENDBRANCH  19  28
BRANCH  19  30
ATOM     30  C   UNL     1       3.626   7.048  17.484  0.00  0.00    +0.000 C 
BRANCH  30  31
ATOM     31  N   UNL     1       4.902   6.449  17.174  0.00  0.00    +0.000 N 
ATOM     32  C   UNL     1       5.245   5.424  16.359  0.00  0.00    +0.000 A 
ATOM     33  N   UNL     1       6.556   5.331  16.297  0.00  0.00    +0.000 NA
ATOM     34  C   UNL     1       6.981   6.349  17.102  0.00  0.00    +0.000 A 
ATOM     35  N   UNL     1       6.004   7.051  17.679  0.00  0.00    +0.000 NA
ENDBRANCH  30  31
ENDBRANCH  19  30
ENDBRANCH   1  19
TORSDOF 7
ENDMDL
