MODEL 1
REMARK VINA RESULT:      -7.2      0.000      0.000
REMARK  Name = 
REMARK  12 active torsions:
REMARK  status: ('A' for Active; 'I' for Inactive)
REMARK    1  A    between atoms: C_1  and  C_2
REMARK    2  A    between atoms: C_2  and  C_3
REMARK    3  A    between atoms: C_2  and  C_4
REMARK    4  A    between atoms: C_7  and  N_8
REMARK    5  A    between atoms: N_8  and  C_21
REMARK    6  A    between atoms: C_9  and  C_11
REMARK    7  A    between atoms: C_21  and  C_22
REMARK    8  A    between atoms: C_21  and  C_29
REMARK    9  A    between atoms: N_24  and  C_25
REMARK   10  A    between atoms: C_25  and  C_26
REMARK   11  A    between atoms: C_25  and  C_27
REMARK   12  A    between atoms: C_25  and  C_28
REMARK                            x       y       z     vdW  Elec       q    Type
REMARK                         _______ _______ _______ _____ _____    ______ ____
ROOT
ATOM      1  N   UNL     1      -1.371  13.135  20.956  0.00  0.00    +0.000 N 
ATOM      2  C   UNL     1      -1.943  13.807  22.088  0.00  0.00    +0.000 C 
ATOM      3  O   UNL     1      -1.426  14.778  22.639  0.00  0.00    +0.000 OA
ENDROOT
BRANCH   2   4
ATOM      4  C   UNL     1      -3.266  13.344  22.604  0.00  0.00    +0.000 A 
ATOM      5  C   UNL     1      -3.213  12.686  23.838  0.00  0.00    +0.000 A 
ATOM      6  C   UNL     1      -4.364  12.434  24.555  0.00  0.00    +0.000 A 
ATOM      7  C   UNL     1      -5.586  12.770  23.996  0.00  0.00    +0.000 A 
ATOM      8  C   UNL     1      -5.679  13.280  22.685  0.00  0.00    +0.000 A 
ATOM      9  C   UNL     1      -4.512  13.541  21.950  0.00  0.00    +0.000 A 
ATOM     10  C   UNL     1      -4.610  13.939  20.499  0.00  0.00    +0.000 C 
ATOM     11  C   UNL     1      -6.002  14.188  19.894  0.00  0.00    +0.000 C 
ATOM     12  C   UNL     1      -7.238  14.051  20.768  0.00  0.00    +0.000 C 
ATOM     13  C   UNL     1      -7.064  13.555  22.188  0.00  0.00    +0.000 C 
ENDBRANCH   2   4
BRANCH   1  17
ATOM     14  C   UNL     1       2.044  14.708  18.887  0.00  0.00    +0.000 A 
ATOM     15  C   UNL     1       0.752  15.186  18.628  0.00  0.00    +0.000 A 
ATOM     16  C   UNL     1      -0.363  14.711  19.341  0.00  0.00    +0.000 A 
ATOM     17  C   UNL     1      -0.215  13.754  20.347  0.00  0.00    +0.000 A 
ATOM     18  C   UNL     1       1.081  13.310  20.636  0.00  0.00    +0.000 A 
ATOM     19  C   UNL     1       2.197  13.782  19.922  0.00  0.00    +0.000 A 
BRANCH  14  21
ATOM     20  C   UNL     1       3.049  16.593  17.523  0.00  0.00    +0.000 C 
ATOM     21  C   UNL     1       3.204  15.150  18.007  0.00  0.00    +0.000 C 
ATOM     22  C   UNL     1       4.560  14.959  18.698  0.00  0.00    +0.000 C 
ENDBRANCH  14  21
ENDBRANCH   1  17
BRANCH   1  23
ATOM     23  C   UNL     1      -1.562  11.647  20.699  0.00  0.00    +0.000 C 
BRANCH  23  24
ATOM     24  C   UNL     1      -0.641  10.609  21.383  0.00  0.00    +0.000 A 
ATOM     25  C   UNL     1       0.230   9.761  20.683  0.00  0.00    +0.000 A 
ATOM     26  C   UNL     1       1.164   8.961  21.356  0.00  0.00    +0.000 A 
ATOM     27  C   UNL     1       1.209   9.001  22.725  0.00  0.00    +0.000 A 
ATOM     28  N   UNL     1       0.396   9.783  23.456  0.00  0.00    +0.000 NA
ATOM     29  C   UNL     1      -0.489  10.558  22.775  0.00  0.00    +0.000 A 
ENDBRANCH  23  24
BRANCH  23  30
ATOM     30  C   UNL     1      -1.793  11.377  19.166  0.00  0.00    +0.000 C 
ATOM     31  O   UNL     1      -0.881  11.087  18.395  0.00  0.00    +0.000 OA
ATOM     32  N   UNL     1      -3.102  11.425  18.724  0.00  0.00    +0.000 N 
ATOM     33  H   UNL     1      -3.757  11.961  19.278  0.00  0.00    +0.000 HD
BRANCH  32  34
ATOM     34  C   UNL     1      -3.503  11.023  17.359  0.00  0.00    +0.000 C 
ATOM     35  C   UNL     1      -3.573   9.488  17.242  0.00  0.00    +0.000 C 
ATOM     36  C   UNL     1      -4.906  11.585  17.077  0.00  0.00    +0.000 C 
ATOM     37  C   UNL     1      -2.546  11.576  16.291  0.00  0.00    +0.000 C 
ENDBRANCH  32  34
ENDBRANCH  23  30
ENDBRANCH   1  23
TORSDOF 7
ENDMDL
MODEL 2
REMARK VINA RESULT:      -7.1      0.271      1.026
REMARK  Name = 
REMARK  12 active torsions:
REMARK  status: ('A' for Active; 'I' for Inactive)
REMARK    1  A    between atoms: C_1  and  C_2
REMARK    2  A    between atoms: C_2  and  C_3
REMARK    3  A    between atoms: C_2  and  C_4
REMARK    4  A    between atoms: C_7  and  N_8
REMARK    5  A    between atoms: N_8  and  C_21
REMARK    6  A    between atoms: C_9  and  C_11
REMARK    7  A    between atoms: C_21  and  C_22
REMARK    8  A    between atoms: C_21  and  C_29
REMARK    9  A    between atoms: N_24  and  C_25
REMARK   10  A    between atoms: C_25  and  C_26
REMARK   11  A    between atoms: C_25  and  C_27
REMARK   12  A    between atoms: C_25  and  C_28
REMARK                            x       y       z     vdW  Elec       q    Type
REMARK                         _______ _______ _______ _____ _____    ______ ____
ROOT
ATOM      1  N   UNL     1      -1.330  13.114  20.777  0.00  0.00    +0.000 N 
ATOM      2  C   UNL     1      -1.853  13.844  21.896  0.00  0.00    +0.000 C 
ATOM      3  O   UNL     1      -1.311  14.836  22.378  0.00  0.00    +0.000 OA
ENDROOT
BRANCH   2   4
ATOM      4  C   UNL     1      -3.158  13.415  22.485  0.00  0.00    +0.000 A 
ATOM      5  C   UNL     1      -3.052  12.739  23.705  0.00  0.00    +0.000 A 
ATOM      6  C   UNL     1      -4.166  12.514  24.488  0.00  0.00    +0.000 A 
ATOM      7  C   UNL     1      -5.408  12.894  24.006  0.00  0.00    +0.000 A 
ATOM      8  C   UNL     1      -5.563  13.425  22.710  0.00  0.00    +0.000 A 
ATOM      9  C   UNL     1      -4.433  13.659  21.908  0.00  0.00    +0.000 A 
ATOM     10  C   UNL     1      -4.605  14.081  20.471  0.00  0.00    +0.000 C 
ATOM     11  C   UNL     1      -6.022  14.381  19.954  0.00  0.00    +0.000 C 
ATOM     12  C   UNL     1      -7.207  14.270  20.899  0.00  0.00    +0.000 C 
ATOM     13  C   UNL     1      -6.965  13.750  22.300  0.00  0.00    +0.000 C 
ENDBRANCH   2   4
BRANCH   1  17
ATOM     14  C   UNL     1       2.028  15.110  19.000  0.00  0.00    +0.000 A 
ATOM     15  C   UNL     1       2.203  14.092  19.947  0.00  0.00    +0.000 A 
ATOM     16  C   UNL     1       1.108  13.400  20.492  0.00  0.00    +0.000 A 
ATOM     17  C   UNL     1      -0.196  13.695  20.093  0.00  0.00    +0.000 A 
ATOM     18  C   UNL     1      -0.369  14.681  19.114  0.00  0.00    +0.000 A 
ATOM     19  C   UNL     1       0.726  15.377  18.568  0.00  0.00    +0.000 A 
BRANCH  14  21
ATOM     20  C   UNL     1       4.395  15.037  18.098  0.00  0.00    +0.000 C 
ATOM     21  C   UNL     1       3.226  15.923  18.532  0.00  0.00    +0.000 C 
ATOM     22  C   UNL     1       2.857  16.908  17.415  0.00  0.00    +0.000 C 
ENDBRANCH  14  21
ENDBRANCH   1  17
BRANCH   1  23
ATOM     23  C   UNL     1      -1.538  11.616  20.599  0.00  0.00    +0.000 C 
BRANCH  23  24
ATOM     24  C   UNL     1      -0.612  10.607  21.317  0.00  0.00    +0.000 A 
ATOM     25  C   UNL     1       0.314   9.790  20.650  0.00  0.00    +0.000 A 
ATOM     26  C   UNL     1       1.245   9.019  21.359  0.00  0.00    +0.000 A 
ATOM     27  C   UNL     1       1.235   9.055  22.728  0.00  0.00    +0.000 A 
ATOM     28  N   UNL     1       0.368   9.806  23.428  0.00  0.00    +0.000 NA
ATOM     29  C   UNL     1      -0.514  10.555  22.714  0.00  0.00    +0.000 A 
ENDBRANCH  23  24
BRANCH  23  30
ATOM     30  C   UNL     1      -1.803  11.272  19.087  0.00  0.00    +0.000 C 
ATOM     31  O   UNL     1      -0.926  10.846  18.337  0.00  0.00    +0.000 OA
ATOM     32  N   UNL     1      -3.103  11.415  18.641  0.00  0.00    +0.000 N 
ATOM     33  H   UNL     1      -3.701  12.046  19.160  0.00  0.00    +0.000 HD
BRANCH  32  34
ATOM     34  C   UNL     1      -3.548  10.966  17.306  0.00  0.00    +0.000 C 
ATOM     35  C   UNL     1      -3.617   9.427  17.244  0.00  0.00    +0.000 C 
ATOM     36  C   UNL     1      -4.961  11.515  17.051  0.00  0.00    +0.000 C 
ATOM     37  C   UNL     1      -2.629  11.484  16.188  0.00  0.00    +0.000 C 
ENDBRANCH  32  34
ENDBRANCH  23  30
ENDBRANCH   1  23
TORSDOF 7
ENDMDL
MODEL 3
REMARK VINA RESULT:      -7.1      2.277      5.242
REMARK  Name = 
REMARK  12 active torsions:
REMARK  status: ('A' for Active; 'I' for Inactive)
REMARK    1  A    between atoms: C_1  and  C_2
REMARK    2  A    between atoms: C_2  and  C_3
REMARK    3  A    between atoms: C_2  and  C_4
REMARK    4  A    between atoms: C_7  and  N_8
REMARK    5  A    between atoms: N_8  and  C_21
REMARK    6  A    between atoms: C_9  and  C_11
REMARK    7  A    between atoms: C_21  and  C_22
REMARK    8  A    between atoms: C_21  and  C_29
REMARK    9  A    between atoms: N_24  and  C_25
REMARK   10  A    between atoms: C_25  and  C_26
REMARK   11  A    between atoms: C_25  and  C_27
REMARK   12  A    between atoms: C_25  and  C_28
REMARK                            x       y       z     vdW  Elec       q    Type
REMARK                         _______ _______ _______ _____ _____    ______ ____
ROOT
ATOM      1  N   UNL     1       0.362  12.252  19.497  0.00  0.00    +0.000 N 
ATOM      2  C   UNL     1       1.172  13.325  19.999  0.00  0.00    +0.000 C 
ATOM      3  O   UNL     1       2.321  13.177  20.412  0.00  0.00    +0.000 OA
ENDROOT
BRANCH   2   4
ATOM      4  C   UNL     1       0.619  14.712  19.976  0.00  0.00    +0.000 A 
ATOM      5  C   UNL     1       0.790  15.387  18.762  0.00  0.00    +0.000 A 
ATOM      6  C   UNL     1       0.113  16.562  18.505  0.00  0.00    +0.000 A 
ATOM      7  C   UNL     1      -0.676  17.110  19.503  0.00  0.00    +0.000 A 
ATOM      8  C   UNL     1      -0.732  16.541  20.791  0.00  0.00    +0.000 A 
ATOM      9  C   UNL     1      -0.048  15.344  21.059  0.00  0.00    +0.000 A 
ATOM     10  C   UNL     1       0.019  14.816  22.470  0.00  0.00    +0.000 C 
ATOM     11  C   UNL     1      -0.786  15.532  23.566  0.00  0.00    +0.000 C 
ATOM     12  C   UNL     1      -1.645  16.734  23.206  0.00  0.00    +0.000 C 
ATOM     13  C   UNL     1      -1.586  17.261  21.787  0.00  0.00    +0.000 C 
ENDBRANCH   2   4
BRANCH   1  17
ATOM     14  C   UNL     1       1.969   8.327  18.840  0.00  0.00    +0.000 A 
ATOM     15  C   UNL     1       2.086   9.333  17.872  0.00  0.00    +0.000 A 
ATOM     16  C   UNL     1       1.608  10.635  18.104  0.00  0.00    +0.000 A 
ATOM     17  C   UNL     1       1.012  10.972  19.320  0.00  0.00    +0.000 A 
ATOM     18  C   UNL     1       0.936   9.980  20.305  0.00  0.00    +0.000 A 
ATOM     19  C   UNL     1       1.412   8.676  20.073  0.00  0.00    +0.000 A 
BRANCH  14  21
ATOM     20  C   UNL     1       3.712   6.842  17.753  0.00  0.00    +0.000 C 
ATOM     21  C   UNL     1       2.381   6.901  18.503  0.00  0.00    +0.000 C 
ATOM     22  C   UNL     1       2.425   6.003  19.746  0.00  0.00    +0.000 C 
ENDBRANCH  14  21
ENDBRANCH   1  17
BRANCH   1  23
ATOM     23  C   UNL     1      -1.154  12.233  19.629  0.00  0.00    +0.000 C 
BRANCH  23  24
ATOM     24  C   UNL     1      -1.817  12.122  21.023  0.00  0.00    +0.000 A 
ATOM     25  C   UNL     1      -1.220  11.482  22.120  0.00  0.00    +0.000 A 
ATOM     26  C   UNL     1      -1.784  11.557  23.401  0.00  0.00    +0.000 A 
ATOM     27  C   UNL     1      -2.949  12.256  23.574  0.00  0.00    +0.000 A 
ATOM     28  N   UNL     1      -3.578  12.882  22.565  0.00  0.00    +0.000 NA
ATOM     29  C   UNL     1      -3.000  12.804  21.337  0.00  0.00    +0.000 A 
ENDBRANCH  23  24
BRANCH  23  30
ATOM     30  C   UNL     1      -1.791  11.285  18.547  0.00  0.00    +0.000 C 
ATOM     31  O   UNL     1      -1.525  10.087  18.470  0.00  0.00    +0.000 OA
ATOM     32  N   UNL     1      -2.726  11.855  17.704  0.00  0.00    +0.000 N 
ATOM     33  H   UNL     1      -2.684  12.858  17.580  0.00  0.00    +0.000 HD
BRANCH  32  34
ATOM     34  C   UNL     1      -3.541  11.065  16.757  0.00  0.00    +0.000 C 
ATOM     35  C   UNL     1      -2.785  10.857  15.430  0.00  0.00    +0.000 C 
ATOM     36  C   UNL     1      -3.804   9.682  17.376  0.00  0.00    +0.000 C 
ATOM     37  C   UNL     1      -4.900  11.725  16.475  0.00  0.00    +0.000 C 
ENDBRANCH  32  34
ENDBRANCH  23  30
ENDBRANCH   1  23
TORSDOF 7
ENDMDL
MODEL 4
REMARK VINA RESULT:      -7.1      2.277      5.291
REMARK  Name = 
REMARK  12 active torsions:
REMARK  status: ('A' for Active; 'I' for Inactive)
REMARK    1  A    between atoms: C_1  and  C_2
REMARK    2  A    between atoms: C_2  and  C_3
REMARK    3  A    between atoms: C_2  and  C_4
REMARK    4  A    between atoms: C_7  and  N_8
REMARK    5  A    between atoms: N_8  and  C_21
REMARK    6  A    between atoms: C_9  and  C_11
REMARK    7  A    between atoms: C_21  and  C_22
REMARK    8  A    between atoms: C_21  and  C_29
REMARK    9  A    between atoms: N_24  and  C_25
REMARK   10  A    between atoms: C_25  and  C_26
REMARK   11  A    between atoms: C_25  and  C_27
REMARK   12  A    between atoms: C_25  and  C_28
REMARK                            x       y       z     vdW  Elec       q    Type
REMARK                         _______ _______ _______ _____ _____    ______ ____
ROOT
ATOM      1  N   UNL     1       0.358  12.416  19.531  0.00  0.00    +0.000 N 
ATOM      2  C   UNL     1       1.191  13.482  20.009  0.00  0.00    +0.000 C 
ATOM      3  O   UNL     1       2.346  13.322  20.403  0.00  0.00    +0.000 OA
ENDROOT
BRANCH   2   4
ATOM      4  C   UNL     1       0.657  14.877  19.984  0.00  0.00    +0.000 A 
ATOM      5  C   UNL     1       0.801  15.534  18.757  0.00  0.00    +0.000 A 
ATOM      6  C   UNL     1       0.133  16.715  18.505  0.00  0.00    +0.000 A 
ATOM      7  C   UNL     1      -0.618  17.287  19.519  0.00  0.00    +0.000 A 
ATOM      8  C   UNL     1      -0.644  16.735  20.815  0.00  0.00    +0.000 A 
ATOM      9  C   UNL     1       0.031  15.531  21.078  0.00  0.00    +0.000 A 
ATOM     10  C   UNL     1       0.133  15.021  22.493  0.00  0.00    +0.000 C 
ATOM     11  C   UNL     1      -0.630  15.763  23.603  0.00  0.00    +0.000 C 
ATOM     12  C   UNL     1      -1.482  16.971  23.252  0.00  0.00    +0.000 C 
ATOM     13  C   UNL     1      -1.458  17.480  21.826  0.00  0.00    +0.000 C 
ENDBRANCH   2   4
BRANCH   1  17
ATOM     14  C   UNL     1       1.897   8.463  18.887  0.00  0.00    +0.000 A 
ATOM     15  C   UNL     1       1.988   9.450  17.896  0.00  0.00    +0.000 A 
ATOM     16  C   UNL     1       1.533  10.760  18.122  0.00  0.00    +0.000 A 
ATOM     17  C   UNL     1       0.987  11.127  19.353  0.00  0.00    +0.000 A 
ATOM     18  C   UNL     1       0.938  10.153  20.358  0.00  0.00    +0.000 A 
ATOM     19  C   UNL     1       1.391   8.840  20.133  0.00  0.00    +0.000 A 
BRANCH  14  21
ATOM     20  C   UNL     1       3.607   6.935  17.807  0.00  0.00    +0.000 C 
ATOM     21  C   UNL     1       2.280   7.026  18.561  0.00  0.00    +0.000 C 
ATOM     22  C   UNL     1       2.312   6.138  19.811  0.00  0.00    +0.000 C 
ENDBRANCH  14  21
ENDBRANCH   1  17
BRANCH   1  23
ATOM     23  C   UNL     1      -1.156  12.420  19.690  0.00  0.00    +0.000 C 
BRANCH  23  24
ATOM     24  C   UNL     1      -1.795  12.450  21.099  0.00  0.00    +0.000 A 
ATOM     25  C   UNL     1      -2.943  13.191  21.417  0.00  0.00    +0.000 A 
ATOM     26  C   UNL     1      -3.578  13.051  22.659  0.00  0.00    +0.000 A 
ATOM     27  C   UNL     1      -3.051  12.186  23.581  0.00  0.00    +0.000 A 
ATOM     28  N   UNL     1      -1.948  11.455  23.344  0.00  0.00    +0.000 NA
ATOM     29  C   UNL     1      -1.363  11.601  22.126  0.00  0.00    +0.000 A 
ENDBRANCH  23  24
BRANCH  23  30
ATOM     30  C   UNL     1      -1.815  11.375  18.716  0.00  0.00    +0.000 C 
ATOM     31  O   UNL     1      -1.661  10.160  18.837  0.00  0.00    +0.000 OA
ATOM     32  N   UNL     1      -2.640  11.886  17.732  0.00  0.00    +0.000 N 
ATOM     33  H   UNL     1      -2.495  12.851  17.464  0.00  0.00    +0.000 HD
BRANCH  32  34
ATOM     34  C   UNL     1      -3.470  11.032  16.856  0.00  0.00    +0.000 C 
ATOM     35  C   UNL     1      -4.841  11.685  16.598  0.00  0.00    +0.000 C 
ATOM     36  C   UNL     1      -2.754  10.879  15.504  0.00  0.00    +0.000 C 
ATOM     37  C   UNL     1      -3.673   9.627  17.446  0.00  0.00    +0.000 C 
ENDBRANCH  32  34
ENDBRANCH  23  30
ENDBRANCH   1  23
TORSDOF 7
ENDMDL
MODEL 5
REMARK VINA RESULT:      -7.0      2.216      5.633
REMARK  Name = 
REMARK  12 active torsions:
REMARK  status: ('A' for Active; 'I' for Inactive)
REMARK    1  A    between atoms: C_1  and  C_2
REMARK    2  A    between atoms: C_2  and  C_3
REMARK    3  A    between atoms: C_2  and  C_4
REMARK    4  A    between atoms: C_7  and  N_8
REMARK    5  A    between atoms: N_8  and  C_21
REMARK    6  A    between atoms: C_9  and  C_11
REMARK    7  A    between atoms: C_21  and  C_22
REMARK    8  A    between atoms: C_21  and  C_29
REMARK    9  A    between atoms: N_24  and  C_25
REMARK   10  A    between atoms: C_25  and  C_26
REMARK   11  A    between atoms: C_25  and  C_27
REMARK   12  A    between atoms: C_25  and  C_28
REMARK                            x       y       z     vdW  Elec       q    Type
REMARK                         _______ _______ _______ _____ _____    ______ ____
ROOT
ATOM      1  N   UNL     1       0.457  12.369  19.839  0.00  0.00    +0.000 N 
ATOM      2  C   UNL     1       1.423  13.206  20.491  0.00  0.00    +0.000 C 
ATOM      3  O   UNL     1       2.416  12.776  21.075  0.00  0.00    +0.000 OA
ENDROOT
BRANCH   2   4
ATOM      4  C   UNL     1       1.252  14.688  20.419  0.00  0.00    +0.000 A 
ATOM      5  C   UNL     1       1.893  15.297  19.334  0.00  0.00    +0.000 A 
ATOM      6  C   UNL     1       1.616  16.604  18.992  0.00  0.00    +0.000 A 
ATOM      7  C   UNL     1       0.754  17.336  19.792  0.00  0.00    +0.000 A 
ATOM      8  C   UNL     1       0.226  16.801  20.984  0.00  0.00    +0.000 A 
ATOM      9  C   UNL     1       0.501  15.469  21.338  0.00  0.00    +0.000 A 
ATOM     10  C   UNL     1       0.066  14.943  22.682  0.00  0.00    +0.000 C 
ATOM     11  C   UNL     1      -0.796  15.842  23.583  0.00  0.00    +0.000 C 
ATOM     12  C   UNL     1      -1.210  17.221  23.097  0.00  0.00    +0.000 C 
ATOM     13  C   UNL     1      -0.655  17.715  21.777  0.00  0.00    +0.000 C 
ENDBRANCH   2   4
BRANCH   1  17
ATOM     14  C   UNL     1       1.760   8.286  19.621  0.00  0.00    +0.000 A 
ATOM     15  C   UNL     1       1.171   8.802  20.784  0.00  0.00    +0.000 A 
ATOM     16  C   UNL     1       0.695  10.123  20.842  0.00  0.00    +0.000 A 
ATOM     17  C   UNL     1       0.779  10.964  19.731  0.00  0.00    +0.000 A 
ATOM     18  C   UNL     1       1.326  10.435  18.555  0.00  0.00    +0.000 A 
ATOM     19  C   UNL     1       1.805   9.113  18.496  0.00  0.00    +0.000 A 
BRANCH  14  21
ATOM     20  C   UNL     1       1.633   5.940  20.571  0.00  0.00    +0.000 C 
ATOM     21  C   UNL     1       2.379   6.896  19.640  0.00  0.00    +0.000 C 
ATOM     22  C   UNL     1       2.493   6.295  18.233  0.00  0.00    +0.000 C 
ENDBRANCH  14  21
ENDBRANCH   1  17
BRANCH   1  23
ATOM     23  C   UNL     1      -1.016  12.740  19.731  0.00  0.00    +0.000 C 
BRANCH  23  24
ATOM     24  C   UNL     1      -1.938  12.653  20.970  0.00  0.00    +0.000 A 
ATOM     25  C   UNL     1      -1.661  11.856  22.091  0.00  0.00    +0.000 A 
ATOM     26  C   UNL     1      -2.438  11.942  23.254  0.00  0.00    +0.000 A 
ATOM     27  C   UNL     1      -3.498  12.810  23.283  0.00  0.00    +0.000 A 
ATOM     28  N   UNL     1      -3.824  13.593  22.240  0.00  0.00    +0.000 NA
ATOM     29  C   UNL     1      -3.044  13.498  21.131  0.00  0.00    +0.000 A 
ENDBRANCH  23  24
BRANCH  23  30
ATOM     30  C   UNL     1      -1.645  12.126  18.426  0.00  0.00    +0.000 C 
ATOM     31  O   UNL     1      -1.288  12.452  17.295  0.00  0.00    +0.000 OA
ATOM     32  N   UNL     1      -2.598  11.141  18.607  0.00  0.00    +0.000 N 
ATOM     33  H   UNL     1      -3.084  11.128  19.495  0.00  0.00    +0.000 HD
BRANCH  32  34
ATOM     34  C   UNL     1      -3.151  10.345  17.492  0.00  0.00    +0.000 C 
ATOM     35  C   UNL     1      -3.963  11.239  16.535  0.00  0.00    +0.000 C 
ATOM     36  C   UNL     1      -1.983   9.737  16.699  0.00  0.00    +0.000 C 
ATOM     37  C   UNL     1      -4.036   9.192  17.992  0.00  0.00    +0.000 C 
ENDBRANCH  32  34
ENDBRANCH  23  30
ENDBRANCH   1  23
TORSDOF 7
ENDMDL
MODEL 6
REMARK VINA RESULT:      -6.9      2.168      5.577
REMARK  Name = 
REMARK  12 active torsions:
REMARK  status: ('A' for Active; 'I' for Inactive)
REMARK    1  A    between atoms: C_1  and  C_2
REMARK    2  A    between atoms: C_2  and  C_3
REMARK    3  A    between atoms: C_2  and  C_4
REMARK    4  A    between atoms: C_7  and  N_8
REMARK    5  A    between atoms: N_8  and  C_21
REMARK    6  A    between atoms: C_9  and  C_11
REMARK    7  A    between atoms: C_21  and  C_22
REMARK    8  A    between atoms: C_21  and  C_29
REMARK    9  A    between atoms: N_24  and  C_25
REMARK   10  A    between atoms: C_25  and  C_26
REMARK   11  A    between atoms: C_25  and  C_27
REMARK   12  A    between atoms: C_25  and  C_28
REMARK                            x       y       z     vdW  Elec       q    Type
REMARK                         _______ _______ _______ _____ _____    ______ ____
ROOT
ATOM      1  N   UNL     1       0.233  12.208  19.710  0.00  0.00    +0.000 N 
ATOM      2  C   UNL     1       1.183  13.130  20.264  0.00  0.00    +0.000 C 
ATOM      3  O   UNL     1       2.238  12.787  20.795  0.00  0.00    +0.000 OA
ENDROOT
BRANCH   2   4
ATOM      4  C   UNL     1       0.913  14.595  20.147  0.00  0.00    +0.000 A 
ATOM      5  C   UNL     1       1.273  15.158  18.918  0.00  0.00    +0.000 A 
ATOM      6  C   UNL     1       0.852  16.425  18.571  0.00  0.00    +0.000 A 
ATOM      7  C   UNL     1       0.135  17.167  19.495  0.00  0.00    +0.000 A 
ATOM      8  C   UNL     1      -0.097  16.689  20.800  0.00  0.00    +0.000 A 
ATOM      9  C   UNL     1       0.326  15.399  21.161  0.00  0.00    +0.000 A 
ATOM     10  C   UNL     1       0.217  14.945  22.594  0.00  0.00    +0.000 C 
ATOM     11  C   UNL     1      -0.489  15.861  23.607  0.00  0.00    +0.000 C 
ATOM     12  C   UNL     1      -1.078  17.183  23.145  0.00  0.00    +0.000 C 
ATOM     13  C   UNL     1      -0.844  17.613  21.711  0.00  0.00    +0.000 C 
ENDBRANCH   2   4
BRANCH   1  17
ATOM     14  C   UNL     1       1.777   8.206  19.580  0.00  0.00    +0.000 A 
ATOM     15  C   UNL     1       1.172   8.716  20.736  0.00  0.00    +0.000 A 
ATOM     16  C   UNL     1       0.618  10.007  20.767  0.00  0.00    +0.000 A 
ATOM     17  C   UNL     1       0.638  10.822  19.634  0.00  0.00    +0.000 A 
ATOM     18  C   UNL     1       1.202  10.296  18.465  0.00  0.00    +0.000 A 
ATOM     19  C   UNL     1       1.759   9.004  18.433  0.00  0.00    +0.000 A 
BRANCH  14  21
ATOM     20  C   UNL     1       1.783   5.871  20.565  0.00  0.00    +0.000 C 
ATOM     21  C   UNL     1       2.479   6.856  19.625  0.00  0.00    +0.000 C 
ATOM     22  C   UNL     1       2.642   6.242  18.229  0.00  0.00    +0.000 C 
ENDBRANCH  14  21
ENDBRANCH   1  17
BRANCH   1  23
ATOM     23  C   UNL     1      -1.264  12.482  19.687  0.00  0.00    +0.000 C 
BRANCH  23  24
ATOM     24  C   UNL     1      -2.013  12.845  20.992  0.00  0.00    +0.000 A 
ATOM     25  C   UNL     1      -2.954  13.882  21.085  0.00  0.00    +0.000 A 
ATOM     26  C   UNL     1      -3.727  14.060  22.241  0.00  0.00    +0.000 A 
ATOM     27  C   UNL     1      -3.542  13.213  23.302  0.00  0.00    +0.000 A 
ATOM     28  N   UNL     1      -2.650  12.208  23.281  0.00  0.00    +0.000 NA
ATOM     29  C   UNL     1      -1.925  12.050  22.142  0.00  0.00    +0.000 A 
ENDBRANCH  23  24
BRANCH  23  30
ATOM     30  C   UNL     1      -2.008  11.412  18.805  0.00  0.00    +0.000 C 
ATOM     31  O   UNL     1      -2.191  10.254  19.175  0.00  0.00    +0.000 OA
ATOM     32  N   UNL     1      -2.508  11.853  17.595  0.00  0.00    +0.000 N 
ATOM     33  H   UNL     1      -2.080  12.677  17.192  0.00  0.00    +0.000 HD
BRANCH  32  34
ATOM     34  C   UNL     1      -3.380  11.024  16.736  0.00  0.00    +0.000 C 
ATOM     35  C   UNL     1      -3.477   9.587  17.285  0.00  0.00    +0.000 C 
ATOM     36  C   UNL     1      -4.793  11.631  16.743  0.00  0.00    +0.000 C 
ATOM     37  C   UNL     1      -2.887  10.986  15.281  0.00  0.00    +0.000 C 
ENDBRANCH  32  34
ENDBRANCH  23  30
ENDBRANCH   1  23
TORSDOF 7
ENDMDL
MODEL 7
REMARK VINA RESULT:      -6.8      0.646      1.155
REMARK  Name = 
REMARK  12 active torsions:
REMARK  status: ('A' for Active; 'I' for Inactive)
REMARK    1  A    between atoms: C_1  and  C_2
REMARK    2  A    between atoms: C_2  and  C_3
REMARK    3  A    between atoms: C_2  and  C_4
REMARK    4  A    between atoms: C_7  and  N_8
REMARK    5  A    between atoms: N_8  and  C_21
REMARK    6  A    between atoms: C_9  and  C_11
REMARK    7  A    between atoms: C_21  and  C_22
REMARK    8  A    between atoms: C_21  and  C_29
REMARK    9  A    between atoms: N_24  and  C_25
REMARK   10  A    between atoms: C_25  and  C_26
REMARK   11  A    between atoms: C_25  and  C_27
REMARK   12  A    between atoms: C_25  and  C_28
REMARK                            x       y       z     vdW  Elec       q    Type
REMARK                         _______ _______ _______ _____ _____    ______ ____
ROOT
ATOM      1  N   UNL     1      -1.528  13.414  21.102  0.00  0.00    +0.000 N 
ATOM      2  C   UNL     1      -2.195  14.065  22.193  0.00  0.00    +0.000 C 
ATOM      3  O   UNL     1      -1.770  15.078  22.746  0.00  0.00    +0.000 OA
ENDROOT
BRANCH   2   4
ATOM      4  C   UNL     1      -3.506  13.523  22.659  0.00  0.00    +0.000 A 
ATOM      5  C   UNL     1      -3.451  12.824  23.870  0.00  0.00    +0.000 A 
ATOM      6  C   UNL     1      -4.606  12.494  24.549  0.00  0.00    +0.000 A 
ATOM      7  C   UNL     1      -5.829  12.791  23.970  0.00  0.00    +0.000 A 
ATOM      8  C   UNL     1      -5.915  13.343  22.677  0.00  0.00    +0.000 A 
ATOM      9  C   UNL     1      -4.744  13.684  21.980  0.00  0.00    +0.000 A 
ATOM     10  C   UNL     1      -4.827  14.130  20.542  0.00  0.00    +0.000 C 
ATOM     11  C   UNL     1      -6.214  14.335  19.911  0.00  0.00    +0.000 C 
ATOM     12  C   UNL     1      -7.462  14.109  20.748  0.00  0.00    +0.000 C 
ATOM     13  C   UNL     1      -7.299  13.571  22.154  0.00  0.00    +0.000 C 
ENDBRANCH   2   4
BRANCH   1  17
ATOM     14  C   UNL     1       1.893  15.156  19.184  0.00  0.00    +0.000 A 
ATOM     15  C   UNL     1       0.591  15.441  18.750  0.00  0.00    +0.000 A 
ATOM     16  C   UNL     1      -0.534  14.914  19.408  0.00  0.00    +0.000 A 
ATOM     17  C   UNL     1      -0.389  14.099  20.532  0.00  0.00    +0.000 A 
ATOM     18  C   UNL     1       0.909  13.852  20.993  0.00  0.00    +0.000 A 
ATOM     19  C   UNL     1       2.037  14.376  20.334  0.00  0.00    +0.000 A 
BRANCH  14  21
ATOM     20  C   UNL     1       3.768  16.852  19.000  0.00  0.00    +0.000 C 
ATOM     21  C   UNL     1       3.084  15.638  18.369  0.00  0.00    +0.000 C 
ATOM     22  C   UNL     1       4.103  14.519  18.116  0.00  0.00    +0.000 C 
ENDBRANCH  14  21
ENDBRANCH   1  17
BRANCH   1  23
ATOM     23  C   UNL     1      -1.607  11.912  20.867  0.00  0.00    +0.000 C 
BRANCH  23  24
ATOM     24  C   UNL     1      -0.614  10.956  21.570  0.00  0.00    +0.000 A 
ATOM     25  C   UNL     1      -0.770  10.505  22.889  0.00  0.00    +0.000 A 
ATOM     26  C   UNL     1       0.062   9.510  23.421  0.00  0.00    +0.000 A 
ATOM     27  C   UNL     1       1.055   8.986  22.637  0.00  0.00    +0.000 A 
ATOM     28  N   UNL     1       1.266   9.381  21.370  0.00  0.00    +0.000 NA
ATOM     29  C   UNL     1       0.434  10.337  20.877  0.00  0.00    +0.000 A 
ENDBRANCH  23  24
BRANCH  23  30
ATOM     30  C   UNL     1      -1.811  11.603  19.338  0.00  0.00    +0.000 C 
ATOM     31  O   UNL     1      -0.875  11.382  18.571  0.00  0.00    +0.000 OA
ATOM     32  N   UNL     1      -3.118  11.531  18.894  0.00  0.00    +0.000 N 
ATOM     33  H   UNL     1      -3.818  12.016  19.441  0.00  0.00    +0.000 HD
BRANCH  32  34
ATOM     34  C   UNL     1      -3.480  11.078  17.535  0.00  0.00    +0.000 C 
ATOM     35  C   UNL     1      -4.869  11.613  17.134  0.00  0.00    +0.000 C 
ATOM     36  C   UNL     1      -2.450  11.639  16.542  0.00  0.00    +0.000 C 
ATOM     37  C   UNL     1      -3.467   9.545  17.416  0.00  0.00    +0.000 C 
ENDBRANCH  32  34
ENDBRANCH  23  30
ENDBRANCH   1  23
TORSDOF 7
ENDMDL
MODEL 8
REMARK VINA RESULT:      -6.8      1.906      5.309
REMARK  Name = 
REMARK  12 active torsions:
REMARK  status: ('A' for Active; 'I' for Inactive)
REMARK    1  A    between atoms: C_1  and  C_2
REMARK    2  A    between atoms: C_2  and  C_3
REMARK    3  A    between atoms: C_2  and  C_4
REMARK    4  A    between atoms: C_7  and  N_8
REMARK    5  A    between atoms: N_8  and  C_21
REMARK    6  A    between atoms: C_9  and  C_11
REMARK    7  A    between atoms: C_21  and  C_22
REMARK    8  A    between atoms: C_21  and  C_29
REMARK    9  A    between atoms: N_24  and  C_25
REMARK   10  A    between atoms: C_25  and  C_26
REMARK   11  A    between atoms: C_25  and  C_27
REMARK   12  A    between atoms: C_25  and  C_28
REMARK                            x       y       z     vdW  Elec       q    Type
REMARK                         _______ _______ _______ _____ _____    ______ ____
ROOT
ATOM      1  N   UNL     1      -0.908  11.913  21.158  0.00  0.00    +0.000 N 
ATOM      2  C   UNL     1      -1.204  12.023  22.558  0.00  0.00    +0.000 C 
ATOM      3  O   UNL     1      -1.048  11.107  23.363  0.00  0.00    +0.000 OA
ENDROOT
BRANCH   2   4
ATOM      4  C   UNL     1      -1.680  13.336  23.089  0.00  0.00    +0.000 A 
ATOM      5  C   UNL     1      -0.665  14.268  23.333  0.00  0.00    +0.000 A 
ATOM      6  C   UNL     1      -0.964  15.593  23.573  0.00  0.00    +0.000 A 
ATOM      7  C   UNL     1      -2.294  15.973  23.655  0.00  0.00    +0.000 A 
ATOM      8  C   UNL     1      -3.335  15.025  23.580  0.00  0.00    +0.000 A 
ATOM      9  C   UNL     1      -3.038  13.675  23.332  0.00  0.00    +0.000 A 
ATOM     10  C   UNL     1      -4.130  12.639  23.404  0.00  0.00    +0.000 C 
ATOM     11  C   UNL     1      -5.580  13.108  23.612  0.00  0.00    +0.000 C 
ATOM     12  C   UNL     1      -5.883  14.593  23.716  0.00  0.00    +0.000 C 
ATOM     13  C   UNL     1      -4.723  15.566  23.729  0.00  0.00    +0.000 C 
ENDBRANCH   2   4
BRANCH   1  17
ATOM     14  C   UNL     1       1.372   8.433  20.105  0.00  0.00    +0.000 A 
ATOM     15  C   UNL     1       0.421   8.397  21.134  0.00  0.00    +0.000 A 
ATOM     16  C   UNL     1      -0.365   9.519  21.447  0.00  0.00    +0.000 A 
ATOM     17  C   UNL     1      -0.234  10.708  20.728  0.00  0.00    +0.000 A 
ATOM     18  C   UNL     1       0.683  10.731  19.670  0.00  0.00    +0.000 A 
ATOM     19  C   UNL     1       1.473   9.609  19.357  0.00  0.00    +0.000 A 
BRANCH  14  21
ATOM     20  C   UNL     1       1.742   5.958  20.508  0.00  0.00    +0.000 C 
ATOM     21  C   UNL     1       2.292   7.241  19.883  0.00  0.00    +0.000 C 
ATOM     22  C   UNL     1       2.607   7.023  18.398  0.00  0.00    +0.000 C 
ENDBRANCH  14  21
ENDBRANCH   1  17
BRANCH   1  23
ATOM     23  C   UNL     1      -1.673  12.684  20.091  0.00  0.00    +0.000 C 
BRANCH  23  24
ATOM     24  C   UNL     1      -2.710  11.964  19.197  0.00  0.00    +0.000 A 
ATOM     25  C   UNL     1      -2.386  10.925  18.312  0.00  0.00    +0.000 A 
ATOM     26  C   UNL     1      -3.384  10.193  17.653  0.00  0.00    +0.000 A 
ATOM     27  C   UNL     1      -4.697  10.517  17.868  0.00  0.00    +0.000 A 
ATOM     28  N   UNL     1      -5.075  11.507  18.694  0.00  0.00    +0.000 NA
ATOM     29  C   UNL     1      -4.087  12.190  19.331  0.00  0.00    +0.000 A 
ENDBRANCH  23  24
BRANCH  23  30
ATOM     30  C   UNL     1      -0.703  13.636  19.298  0.00  0.00    +0.000 C 
ATOM     31  O   UNL     1      -0.525  13.546  18.084  0.00  0.00    +0.000 OA
ATOM     32  N   UNL     1      -0.092  14.638  20.028  0.00  0.00    +0.000 N 
ATOM     33  H   UNL     1      -0.003  14.493  21.025  0.00  0.00    +0.000 HD
BRANCH  32  34
ATOM     34  C   UNL     1       0.703  15.716  19.403  0.00  0.00    +0.000 C 
ATOM     35  C   UNL     1      -0.165  16.536  18.427  0.00  0.00    +0.000 C 
ATOM     36  C   UNL     1       1.197  16.663  20.509  0.00  0.00    +0.000 C 
ATOM     37  C   UNL     1       1.933  15.170  18.661  0.00  0.00    +0.000 C 
ENDBRANCH  32  34
ENDBRANCH  23  30
ENDBRANCH   1  23
TORSDOF 7
ENDMDL
MODEL 9
REMARK VINA RESULT:      -6.7      2.314      5.625
REMARK  Name = 
REMARK  12 active torsions:
REMARK  status: ('A' for Active; 'I' for Inactive)
REMARK    1  A    between atoms: C_1  and  C_2
REMARK    2  A    between atoms: C_2  and  C_3
REMARK    3  A    between atoms: C_2  and  C_4
REMARK    4  A    between atoms: C_7  and  N_8
REMARK    5  A    between atoms: N_8  and  C_21
REMARK    6  A    between atoms: C_9  and  C_11
REMARK    7  A    between atoms: C_21  and  C_22
REMARK    8  A    between atoms: C_21  and  C_29
REMARK    9  A    between atoms: N_24  and  C_25
REMARK   10  A    between atoms: C_25  and  C_26
REMARK   11  A    between atoms: C_25  and  C_27
REMARK   12  A    between atoms: C_25  and  C_28
REMARK                            x       y       z     vdW  Elec       q    Type
REMARK                         _______ _______ _______ _____ _____    ______ ____
ROOT
ATOM      1  N   UNL     1      -0.217  12.869  19.720  0.00  0.00    +0.000 N 
ATOM      2  C   UNL     1       0.769  13.850  20.074  0.00  0.00    +0.000 C 
ATOM      3  O   UNL     1       1.894  13.570  20.483  0.00  0.00    +0.000 OA
ENDROOT
BRANCH   2   4
ATOM      4  C   UNL     1       0.441  15.296  19.891  0.00  0.00    +0.000 A 
ATOM      5  C   UNL     1       0.502  15.744  18.566  0.00  0.00    +0.000 A 
ATOM      6  C   UNL     1      -0.019  16.971  18.210  0.00  0.00    +0.000 A 
ATOM      7  C   UNL     1      -0.531  17.792  19.201  0.00  0.00    +0.000 A 
ATOM      8  C   UNL     1      -0.453  17.437  20.563  0.00  0.00    +0.000 A 
ATOM      9  C   UNL     1       0.074  16.189  20.933  0.00  0.00    +0.000 A 
ATOM     10  C   UNL     1       0.300  15.870  22.389  0.00  0.00    +0.000 C 
ATOM     11  C   UNL     1      -0.185  16.873  23.449  0.00  0.00    +0.000 C 
ATOM     12  C   UNL     1      -0.897  18.143  23.013  0.00  0.00    +0.000 C 
ATOM     13  C   UNL     1      -1.002  18.437  21.532  0.00  0.00    +0.000 C 
ENDBRANCH   2   4
BRANCH   1  17
ATOM     14  C   UNL     1       1.413   8.900  19.709  0.00  0.00    +0.000 A 
ATOM     15  C   UNL     1       0.836   9.447  20.864  0.00  0.00    +0.000 A 
ATOM     16  C   UNL     1       0.254  10.726  20.857  0.00  0.00    +0.000 A 
ATOM     17  C   UNL     1       0.217  11.491  19.690  0.00  0.00    +0.000 A 
ATOM     18  C   UNL     1       0.752  10.926  18.526  0.00  0.00    +0.000 A 
ATOM     19  C   UNL     1       1.337   9.646  18.530  0.00  0.00    +0.000 A 
BRANCH  14  21
ATOM     20  C   UNL     1       1.386   6.534  20.618  0.00  0.00    +0.000 C 
ATOM     21  C   UNL     1       2.146   7.569  19.788  0.00  0.00    +0.000 C 
ATOM     22  C   UNL     1       2.476   7.006  18.400  0.00  0.00    +0.000 C 
ENDBRANCH  14  21
ENDBRANCH   1  17
BRANCH   1  23
ATOM     23  C   UNL     1      -1.712  13.110  19.878  0.00  0.00    +0.000 C 
BRANCH  23  24
ATOM     24  C   UNL     1      -2.297  13.530  21.248  0.00  0.00    +0.000 A 
ATOM     25  C   UNL     1      -1.894  12.970  22.470  0.00  0.00    +0.000 A 
ATOM     26  C   UNL     1      -2.329  13.503  23.691  0.00  0.00    +0.000 A 
ATOM     27  C   UNL     1      -3.177  14.578  23.684  0.00  0.00    +0.000 A 
ATOM     28  N   UNL     1      -3.609  15.154  22.549  0.00  0.00    +0.000 NA
ATOM     29  C   UNL     1      -3.160  14.626  21.380  0.00  0.00    +0.000 A 
ENDBRANCH  23  24
BRANCH  23  30
ATOM     30  C   UNL     1      -2.532  11.977  19.158  0.00  0.00    +0.000 C 
ATOM     31  O   UNL     1      -3.228  11.166  19.768  0.00  0.00    +0.000 OA
ATOM     32  N   UNL     1      -2.483  11.964  17.777  0.00  0.00    +0.000 N 
ATOM     33  H   UNL     1      -1.687  12.409  17.340  0.00  0.00    +0.000 HD
BRANCH  32  34
ATOM     34  C   UNL     1      -3.334  11.081  16.952  0.00  0.00    +0.000 C 
ATOM     35  C   UNL     1      -4.782  11.608  16.905  0.00  0.00    +0.000 C 
ATOM     36  C   UNL     1      -2.784  11.076  15.516  0.00  0.00    +0.000 C 
ATOM     37  C   UNL     1      -3.331   9.633  17.466  0.00  0.00    +0.000 C 
ENDBRANCH  32  34
ENDBRANCH  23  30
ENDBRANCH   1  23
TORSDOF 7
ENDMDL
