MODEL 1
REMARK VINA RESULT:      -8.2      0.000      0.000
REMARK  Name = 
REMARK  7 active torsions:
REMARK  status: ('A' for Active; 'I' for Inactive)
REMARK    1  A    between atoms: C_1  and  C_2
REMARK    2  A    between atoms: C_4  and  C_5
REMARK    3  A    between atoms: C_9  and  O_10
REMARK    4  A    between atoms: C_16  and  O_17
REMARK    5  A    between atoms: C_18  and  C_19
REMARK    6  A    between atoms: C_20  and  O_21
REMARK    7  A    between atoms: C_22  and  O_23
REMARK                            x       y       z     vdW  Elec       q    Type
REMARK                         _______ _______ _______ _____ _____    ______ ____
ROOT
ATOM      1  C   UNL     1       4.977   4.300  16.890  0.00  0.00    +0.000 A 
ATOM      2  O   UNL     1       4.430   4.321  15.614  0.00  0.00    +0.000 OA
ATOM      3  C   UNL     1       5.371   4.339  14.606  0.00  0.00    +0.000 A 
ATOM      4  C   UNL     1       5.241   3.496  13.509  0.00  0.00    +0.000 A 
ATOM      5  C   UNL     1       6.302   3.454  12.603  0.00  0.00    +0.000 A 
ATOM      6  C   UNL     1       7.376   4.355  12.663  0.00  0.00    +0.000 A 
ATOM      7  C   UNL     1       7.485   5.216  13.743  0.00  0.00    +0.000 A 
ATOM      8  C   UNL     1       6.536   5.103  14.753  0.00  0.00    +0.000 A 
ATOM      9  C   UNL     1       6.942   5.421  16.124  0.00  0.00    +0.000 A 
ATOM     10  O   UNL     1       7.817   6.237  16.378  0.00  0.00    +0.000 OA
ATOM     11  C   UNL     1       6.263   4.594  17.155  0.00  0.00    +0.000 A 
ENDROOT
BRANCH   1  15
ATOM     12  C   UNL     1       2.119   7.036  19.959  0.00  0.00    +0.000 C 
ATOM     13  C   UNL     1       2.598   5.704  19.465  0.00  0.00    +0.000 A 
ATOM     14  C   UNL     1       3.653   5.613  18.557  0.00  0.00    +0.000 A 
ATOM     15  C   UNL     1       4.033   4.357  18.013  0.00  0.00    +0.000 A 
ATOM     16  C   UNL     1       3.356   3.173  18.422  0.00  0.00    +0.000 A 
ATOM     17  C   UNL     1       3.684   1.812  17.851  0.00  0.00    +0.000 C 
ATOM     18  C   UNL     1       2.326   3.287  19.358  0.00  0.00    +0.000 A 
ATOM     19  C   UNL     1       1.949   4.533  19.860  0.00  0.00    +0.000 A 
BRANCH  18  20
ATOM     20  O   UNL     1       1.583   2.222  19.810  0.00  0.00    +0.000 OA
ATOM     21  H   UNL     1       1.725   2.132  20.763  0.00  0.00    +0.000 HD
ENDBRANCH  18  20
BRANCH  19  22
ATOM     22  O   UNL     1       0.890   4.600  20.727  0.00  0.00    +0.000 OA
ATOM     23  H   UNL     1       0.099   4.529  20.153  0.00  0.00    +0.000 HD
ENDBRANCH  19  22
ENDBRANCH   1  15
BRANCH   5  24
ATOM     24  O   UNL     1       6.391   2.455  11.679  0.00  0.00    +0.000 OA
ATOM     25  H   UNL     1       5.485   2.227  11.406  0.00  0.00    +0.000 HD
ENDBRANCH   5  24
BRANCH  11  26
ATOM     26  O   UNL     1       6.920   4.259  18.316  0.00  0.00    +0.000 OA
ATOM     27  H   UNL     1       7.872   4.302  18.101  0.00  0.00    +0.000 HD
ENDBRANCH  11  26
TORSDOF 5
ENDMDL
MODEL 2
REMARK VINA RESULT:      -7.9      0.985      2.129
REMARK  Name = 
REMARK  7 active torsions:
REMARK  status: ('A' for Active; 'I' for Inactive)
REMARK    1  A    between atoms: C_1  and  C_2
REMARK    2  A    between atoms: C_4  and  C_5
REMARK    3  A    between atoms: C_9  and  O_10
REMARK    4  A    between atoms: C_16  and  O_17
REMARK    5  A    between atoms: C_18  and  C_19
REMARK    6  A    between atoms: C_20  and  O_21
REMARK    7  A    between atoms: C_22  and  O_23
REMARK                            x       y       z     vdW  Elec       q    Type
REMARK                         _______ _______ _______ _____ _____    ______ ____
ROOT
ATOM      1  C   UNL     1       5.082   4.338  16.772  0.00  0.00    +0.000 A 
ATOM      2  O   UNL     1       4.483   4.305  15.520  0.00  0.00    +0.000 OA
ATOM      3  C   UNL     1       5.382   4.280  14.474  0.00  0.00    +0.000 A 
ATOM      4  C   UNL     1       5.208   3.391  13.420  0.00  0.00    +0.000 A 
ATOM      5  C   UNL     1       6.231   3.310  12.474  0.00  0.00    +0.000 A 
ATOM      6  C   UNL     1       7.305   4.212  12.451  0.00  0.00    +0.000 A 
ATOM      7  C   UNL     1       7.457   5.119  13.489  0.00  0.00    +0.000 A 
ATOM      8  C   UNL     1       6.551   5.049  14.541  0.00  0.00    +0.000 A 
ATOM      9  C   UNL     1       7.012   5.426  15.879  0.00  0.00    +0.000 A 
ATOM     10  O   UNL     1       7.895   6.252  16.062  0.00  0.00    +0.000 OA
ATOM     11  C   UNL     1       6.377   4.643  16.971  0.00  0.00    +0.000 A 
ENDROOT
BRANCH   1  15
ATOM     12  C   UNL     1       3.155   2.278  20.909  0.00  0.00    +0.000 C 
ATOM     13  C   UNL     1       3.298   3.444  19.979  0.00  0.00    +0.000 A 
ATOM     14  C   UNL     1       3.961   3.311  18.758  0.00  0.00    +0.000 A 
ATOM     15  C   UNL     1       4.184   4.443  17.929  0.00  0.00    +0.000 A 
ATOM     16  C   UNL     1       3.699   5.721  18.328  0.00  0.00    +0.000 A 
ATOM     17  C   UNL     1       3.940   6.971  17.512  0.00  0.00    +0.000 C 
ATOM     18  C   UNL     1       3.009   5.821  19.537  0.00  0.00    +0.000 A 
ATOM     19  C   UNL     1       2.824   4.703  20.351  0.00  0.00    +0.000 A 
BRANCH  18  20
ATOM     20  O   UNL     1       2.517   7.002  20.041  0.00  0.00    +0.000 OA
ATOM     21  H   UNL     1       2.665   7.700  19.387  0.00  0.00    +0.000 HD
ENDBRANCH  18  20
BRANCH  19  22
ATOM     22  O   UNL     1       2.197   4.865  21.559  0.00  0.00    +0.000 OA
ATOM     23  H   UNL     1       2.339   5.808  21.784  0.00  0.00    +0.000 HD
ENDBRANCH  19  22
ENDBRANCH   1  15
BRANCH   5  24
ATOM     24  O   UNL     1       6.284   2.273  11.591  0.00  0.00    +0.000 OA
ATOM     25  H   UNL     1       7.184   1.904  11.624  0.00  0.00    +0.000 HD
ENDBRANCH   5  24
BRANCH  11  26
ATOM     26  O   UNL     1       7.082   4.359  18.117  0.00  0.00    +0.000 OA
ATOM     27  H   UNL     1       7.517   3.500  17.952  0.00  0.00    +0.000 HD
ENDBRANCH  11  26
TORSDOF 5
ENDMDL
MODEL 3
REMARK VINA RESULT:      -7.3      1.531      6.921
REMARK  Name = 
REMARK  7 active torsions:
REMARK  status: ('A' for Active; 'I' for Inactive)
REMARK    1  A    between atoms: C_1  and  C_2
REMARK    2  A    between atoms: C_4  and  C_5
REMARK    3  A    between atoms: C_9  and  O_10
REMARK    4  A    between atoms: C_16  and  O_17
REMARK    5  A    between atoms: C_18  and  C_19
REMARK    6  A    between atoms: C_20  and  O_21
REMARK    7  A    between atoms: C_22  and  O_23
REMARK                            x       y       z     vdW  Elec       q    Type
REMARK                         _______ _______ _______ _____ _____    ______ ____
ROOT
ATOM      1  C   UNL     1       4.780   4.998  17.218  0.00  0.00    +0.000 A 
ATOM      2  O   UNL     1       3.651   5.794  17.095  0.00  0.00    +0.000 OA
ATOM      3  C   UNL     1       2.943   5.942  18.270  0.00  0.00    +0.000 A 
ATOM      4  C   UNL     1       2.500   7.197  18.670  0.00  0.00    +0.000 A 
ATOM      5  C   UNL     1       1.927   7.300  19.939  0.00  0.00    +0.000 A 
ATOM      6  C   UNL     1       1.618   6.174  20.716  0.00  0.00    +0.000 A 
ATOM      7  C   UNL     1       2.036   4.921  20.298  0.00  0.00    +0.000 A 
ATOM      8  C   UNL     1       2.796   4.851  19.136  0.00  0.00    +0.000 A 
ATOM      9  C   UNL     1       3.795   3.785  19.024  0.00  0.00    +0.000 A 
ATOM     10  O   UNL     1       3.665   2.702  19.577  0.00  0.00    +0.000 OA
ATOM     11  C   UNL     1       5.008   4.182  18.263  0.00  0.00    +0.000 A 
ENDROOT
BRANCH   1  15
ATOM     12  C   UNL     1       4.894   3.194  12.547  0.00  0.00    +0.000 C 
ATOM     13  C   UNL     1       5.560   3.903  13.688  0.00  0.00    +0.000 A 
ATOM     14  C   UNL     1       4.952   3.974  14.942  0.00  0.00    +0.000 A 
ATOM     15  C   UNL     1       5.539   4.735  15.988  0.00  0.00    +0.000 A 
ATOM     16  C   UNL     1       6.776   5.405  15.769  0.00  0.00    +0.000 A 
ATOM     17  C   UNL     1       7.432   6.263  16.828  0.00  0.00    +0.000 C 
ATOM     18  C   UNL     1       7.382   5.289  14.517  0.00  0.00    +0.000 A 
ATOM     19  C   UNL     1       6.776   4.560  13.493  0.00  0.00    +0.000 A 
BRANCH  18  20
ATOM     20  O   UNL     1       8.561   5.909  14.178  0.00  0.00    +0.000 OA
ATOM     21  H   UNL     1       9.150   5.252  13.780  0.00  0.00    +0.000 HD
ENDBRANCH  18  20
BRANCH  19  22
ATOM     22  O   UNL     1       7.377   4.531  12.262  0.00  0.00    +0.000 OA
ATOM     23  H   UNL     1       6.732   4.962  11.664  0.00  0.00    +0.000 HD
ENDBRANCH  19  22
ENDBRANCH   1  15
BRANCH   5  24
ATOM     24  O   UNL     1       1.741   8.518  20.522  0.00  0.00    +0.000 OA
ATOM     25  H   UNL     1       2.305   8.553  21.315  0.00  0.00    +0.000 HD
ENDBRANCH   5  24
BRANCH  11  26
ATOM     26  O   UNL     1       6.234   3.653  18.593  0.00  0.00    +0.000 OA
ATOM     27  H   UNL     1       6.866   4.032  17.952  0.00  0.00    +0.000 HD
ENDBRANCH  11  26
TORSDOF 5
ENDMDL
MODEL 4
REMARK VINA RESULT:      -7.1      1.551      6.994
REMARK  Name = 
REMARK  7 active torsions:
REMARK  status: ('A' for Active; 'I' for Inactive)
REMARK    1  A    between atoms: C_1  and  C_2
REMARK    2  A    between atoms: C_4  and  C_5
REMARK    3  A    between atoms: C_9  and  O_10
REMARK    4  A    between atoms: C_16  and  O_17
REMARK    5  A    between atoms: C_18  and  C_19
REMARK    6  A    between atoms: C_20  and  O_21
REMARK    7  A    between atoms: C_22  and  O_23
REMARK                            x       y       z     vdW  Elec       q    Type
REMARK                         _______ _______ _______ _____ _____    ______ ____
ROOT
ATOM      1  C   UNL     1       4.366   4.364  16.805  0.00  0.00    +0.000 A 
ATOM      2  O   UNL     1       3.686   5.559  16.995  0.00  0.00    +0.000 OA
ATOM      3  C   UNL     1       2.823   5.543  18.071  0.00  0.00    +0.000 A 
ATOM      4  C   UNL     1       2.802   6.603  18.969  0.00  0.00    +0.000 A 
ATOM      5  C   UNL     1       2.019   6.456  20.116  0.00  0.00    +0.000 A 
ATOM      6  C   UNL     1       1.130   5.384  20.285  0.00  0.00    +0.000 A 
ATOM      7  C   UNL     1       1.133   4.344  19.369  0.00  0.00    +0.000 A 
ATOM      8  C   UNL     1       2.070   4.394  18.344  0.00  0.00    +0.000 A 
ATOM      9  C   UNL     1       2.589   3.129  17.816  0.00  0.00    +0.000 A 
ATOM     10  O   UNL     1       1.931   2.098  17.814  0.00  0.00    +0.000 OA
ATOM     11  C   UNL     1       4.008   3.202  17.382  0.00  0.00    +0.000 A 
ENDROOT
BRANCH   1  15
ATOM     12  C   UNL     1       4.976   3.213  11.970  0.00  0.00    +0.000 C 
ATOM     13  C   UNL     1       5.509   3.772  13.254  0.00  0.00    +0.000 A 
ATOM     14  C   UNL     1       4.784   3.662  14.441  0.00  0.00    +0.000 A 
ATOM     15  C   UNL     1       5.245   4.285  15.631  0.00  0.00    +0.000 A 
ATOM     16  C   UNL     1       6.476   5.000  15.626  0.00  0.00    +0.000 A 
ATOM     17  C   UNL     1       7.002   5.719  16.848  0.00  0.00    +0.000 C 
ATOM     18  C   UNL     1       7.200   5.067  14.435  0.00  0.00    +0.000 A 
ATOM     19  C   UNL     1       6.717   4.472  13.268  0.00  0.00    +0.000 A 
BRANCH  18  20
ATOM     20  O   UNL     1       8.386   5.749  14.298  0.00  0.00    +0.000 OA
ATOM     21  H   UNL     1       8.962   5.246  13.704  0.00  0.00    +0.000 HD
ENDBRANCH  18  20
BRANCH  19  22
ATOM     22  O   UNL     1       7.432   4.621  12.109  0.00  0.00    +0.000 OA
ATOM     23  H   UNL     1       7.773   3.724  11.915  0.00  0.00    +0.000 HD
ENDBRANCH  19  22
ENDBRANCH   1  15
BRANCH   5  24
ATOM     24  O   UNL     1       2.169   7.301  21.175  0.00  0.00    +0.000 OA
ATOM     25  H   UNL     1       2.824   6.905  21.776  0.00  0.00    +0.000 HD
ENDBRANCH   5  24
BRANCH  11  26
ATOM     26  O   UNL     1       4.825   2.102  17.501  0.00  0.00    +0.000 OA
ATOM     27  H   UNL     1       4.336   1.471  18.064  0.00  0.00    +0.000 HD
ENDBRANCH  11  26
TORSDOF 5
ENDMDL
MODEL 5
REMARK VINA RESULT:      -6.9      4.436      9.123
REMARK  Name = 
REMARK  7 active torsions:
REMARK  status: ('A' for Active; 'I' for Inactive)
REMARK    1  A    between atoms: C_1  and  C_2
REMARK    2  A    between atoms: C_4  and  C_5
REMARK    3  A    between atoms: C_9  and  O_10
REMARK    4  A    between atoms: C_16  and  O_17
REMARK    5  A    between atoms: C_18  and  C_19
REMARK    6  A    between atoms: C_20  and  O_21
REMARK    7  A    between atoms: C_22  and  O_23
REMARK                            x       y       z     vdW  Elec       q    Type
REMARK                         _______ _______ _______ _____ _____    ______ ____
ROOT
ATOM      1  C   UNL     1       1.063   8.896  20.673  0.00  0.00    +0.000 A 
ATOM      2  O   UNL     1      -0.039   9.312  19.940  0.00  0.00    +0.000 OA
ATOM      3  C   UNL     1      -0.652  10.439  20.447  0.00  0.00    +0.000 A 
ATOM      4  C   UNL     1      -1.014  11.482  19.603  0.00  0.00    +0.000 A 
ATOM      5  C   UNL     1      -1.488  12.653  20.198  0.00  0.00    +0.000 A 
ATOM      6  C   UNL     1      -1.784  12.732  21.566  0.00  0.00    +0.000 A 
ATOM      7  C   UNL     1      -1.449  11.676  22.400  0.00  0.00    +0.000 A 
ATOM      8  C   UNL     1      -0.779  10.598  21.833  0.00  0.00    +0.000 A 
ATOM      9  C   UNL     1       0.164   9.852  22.668  0.00  0.00    +0.000 A 
ATOM     10  O   UNL     1       0.032   9.750  23.880  0.00  0.00    +0.000 OA
ATOM     11  C   UNL     1       1.334   9.321  21.920  0.00  0.00    +0.000 A 
ENDROOT
BRANCH   1  15
ATOM     12  C   UNL     1       1.659   3.947  21.162  0.00  0.00    +0.000 C 
ATOM     13  C   UNL     1       1.953   5.232  20.447  0.00  0.00    +0.000 A 
ATOM     14  C   UNL     1       1.529   6.456  20.966  0.00  0.00    +0.000 A 
ATOM     15  C   UNL     1       1.719   7.657  20.233  0.00  0.00    +0.000 A 
ATOM     16  C   UNL     1       2.378   7.621  18.972  0.00  0.00    +0.000 A 
ATOM     17  C   UNL     1       2.575   8.859  18.124  0.00  0.00    +0.000 C 
ATOM     18  C   UNL     1       2.825   6.390  18.490  0.00  0.00    +0.000 A 
ATOM     19  C   UNL     1       2.604   5.216  19.212  0.00  0.00    +0.000 A 
BRANCH  18  20
ATOM     20  O   UNL     1       3.450   6.224  17.278  0.00  0.00    +0.000 OA
ATOM     21  H   UNL     1       3.169   6.938  16.687  0.00  0.00    +0.000 HD
ENDBRANCH  18  20
BRANCH  19  22
ATOM     22  O   UNL     1       3.002   4.023  18.667  0.00  0.00    +0.000 OA
ATOM     23  H   UNL     1       3.441   3.552  19.405  0.00  0.00    +0.000 HD
ENDBRANCH  19  22
ENDBRANCH   1  15
BRANCH   5  24
ATOM     24  O   UNL     1      -1.581  13.809  19.482  0.00  0.00    +0.000 OA
ATOM     25  H   UNL     1      -0.827  13.835  18.866  0.00  0.00    +0.000 HD
ENDBRANCH   5  24
BRANCH  11  26
ATOM     26  O   UNL     1       2.558   9.214  22.537  0.00  0.00    +0.000 OA
ATOM     27  H   UNL     1       3.176   9.735  21.989  0.00  0.00    +0.000 HD
ENDBRANCH  11  26
TORSDOF 5
ENDMDL
MODEL 6
REMARK VINA RESULT:      -6.5      3.284      7.065
REMARK  Name = 
REMARK  7 active torsions:
REMARK  status: ('A' for Active; 'I' for Inactive)
REMARK    1  A    between atoms: C_1  and  C_2
REMARK    2  A    between atoms: C_4  and  C_5
REMARK    3  A    between atoms: C_9  and  O_10
REMARK    4  A    between atoms: C_16  and  O_17
REMARK    5  A    between atoms: C_18  and  C_19
REMARK    6  A    between atoms: C_20  and  O_21
REMARK    7  A    between atoms: C_22  and  O_23
REMARK                            x       y       z     vdW  Elec       q    Type
REMARK                         _______ _______ _______ _____ _____    ______ ____
ROOT
ATOM      1  C   UNL     1       2.189   7.305  19.065  0.00  0.00    +0.000 A 
ATOM      2  O   UNL     1       2.014   8.147  17.977  0.00  0.00    +0.000 OA
ATOM      3  C   UNL     1       1.717   9.449  18.323  0.00  0.00    +0.000 A 
ATOM      4  C   UNL     1       2.370  10.507  17.702  0.00  0.00    +0.000 A 
ATOM      5  C   UNL     1       2.136  11.789  18.205  0.00  0.00    +0.000 A 
ATOM      6  C   UNL     1       1.141  12.050  19.159  0.00  0.00    +0.000 A 
ATOM      7  C   UNL     1       0.470  10.992  19.752  0.00  0.00    +0.000 A 
ATOM      8  C   UNL     1       0.861   9.705  19.402  0.00  0.00    +0.000 A 
ATOM      9  C   UNL     1       0.736   8.646  20.405  0.00  0.00    +0.000 A 
ATOM     10  O   UNL     1      -0.119   8.665  21.279  0.00  0.00    +0.000 OA
ATOM     11  C   UNL     1       1.800   7.611  20.316  0.00  0.00    +0.000 A 
ENDROOT
BRANCH   1  15
ATOM     12  C   UNL     1       0.548   2.574  19.080  0.00  0.00    +0.000 C 
ATOM     13  C   UNL     1       1.592   3.590  18.730  0.00  0.00    +0.000 A 
ATOM     14  C   UNL     1       1.497   4.904  19.190  0.00  0.00    +0.000 A 
ATOM     15  C   UNL     1       2.433   5.887  18.769  0.00  0.00    +0.000 A 
ATOM     16  C   UNL     1       3.498   5.524  17.898  0.00  0.00    +0.000 A 
ATOM     17  C   UNL     1       4.503   6.531  17.382  0.00  0.00    +0.000 C 
ATOM     18  C   UNL     1       3.592   4.196  17.480  0.00  0.00    +0.000 A 
ATOM     19  C   UNL     1       2.647   3.251  17.881  0.00  0.00    +0.000 A 
BRANCH  18  20
ATOM     20  O   UNL     1       4.559   3.731  16.620  0.00  0.00    +0.000 OA
ATOM     21  H   UNL     1       5.011   2.986  17.042  0.00  0.00    +0.000 HD
ENDBRANCH  18  20
BRANCH  19  22
ATOM     22  O   UNL     1       2.744   1.974  17.392  0.00  0.00    +0.000 OA
ATOM     23  H   UNL     1       3.292   1.500  18.051  0.00  0.00    +0.000 HD
ENDBRANCH  19  22
ENDBRANCH   1  15
BRANCH   5  24
ATOM     24  O   UNL     1       2.946  12.830  17.862  0.00  0.00    +0.000 OA
ATOM     25  H   UNL     1       2.659  13.606  18.375  0.00  0.00    +0.000 HD
ENDBRANCH   5  24
BRANCH  11  26
ATOM     26  O   UNL     1       2.249   6.983  21.453  0.00  0.00    +0.000 OA
ATOM     27  H   UNL     1       2.519   6.088  21.171  0.00  0.00    +0.000 HD
ENDBRANCH  11  26
TORSDOF 5
ENDMDL
MODEL 7
REMARK VINA RESULT:      -6.4      1.671      2.673
REMARK  Name = 
REMARK  7 active torsions:
REMARK  status: ('A' for Active; 'I' for Inactive)
REMARK    1  A    between atoms: C_1  and  C_2
REMARK    2  A    between atoms: C_4  and  C_5
REMARK    3  A    between atoms: C_9  and  O_10
REMARK    4  A    between atoms: C_16  and  O_17
REMARK    5  A    between atoms: C_18  and  C_19
REMARK    6  A    between atoms: C_20  and  O_21
REMARK    7  A    between atoms: C_22  and  O_23
REMARK                            x       y       z     vdW  Elec       q    Type
REMARK                         _______ _______ _______ _____ _____    ______ ____
ROOT
ATOM      1  C   UNL     1       5.485   4.158  15.592  0.00  0.00    +0.000 A 
ATOM      2  O   UNL     1       4.786   3.866  14.429  0.00  0.00    +0.000 OA
ATOM      3  C   UNL     1       5.597   3.620  13.340  0.00  0.00    +0.000 A 
ATOM      4  C   UNL     1       5.349   2.530  12.513  0.00  0.00    +0.000 A 
ATOM      5  C   UNL     1       6.293   2.250  11.523  0.00  0.00    +0.000 A 
ATOM      6  C   UNL     1       7.349   3.125  11.224  0.00  0.00    +0.000 A 
ATOM      7  C   UNL     1       7.572   4.227  12.033  0.00  0.00    +0.000 A 
ATOM      8  C   UNL     1       6.756   4.382  13.148  0.00  0.00    +0.000 A 
ATOM      9  C   UNL     1       7.320   5.028  14.335  0.00  0.00    +0.000 A 
ATOM     10  O   UNL     1       8.203   5.871  14.268  0.00  0.00    +0.000 OA
ATOM     11  C   UNL     1       6.787   4.493  15.616  0.00  0.00    +0.000 A 
ENDROOT
BRANCH   1  15
ATOM     12  C   UNL     1       3.650   2.860  20.067  0.00  0.00    +0.000 C 
ATOM     13  C   UNL     1       3.845   3.877  18.983  0.00  0.00    +0.000 A 
ATOM     14  C   UNL     1       4.406   3.519  17.756  0.00  0.00    +0.000 A 
ATOM     15  C   UNL     1       4.684   4.506  16.773  0.00  0.00    +0.000 A 
ATOM     16  C   UNL     1       4.357   5.868  17.023  0.00  0.00    +0.000 A 
ATOM     17  C   UNL     1       4.664   6.971  16.035  0.00  0.00    +0.000 C 
ATOM     18  C   UNL     1       3.764   6.195  18.244  0.00  0.00    +0.000 A 
ATOM     19  C   UNL     1       3.525   5.216  19.209  0.00  0.00    +0.000 A 
BRANCH  18  20
ATOM     20  O   UNL     1       3.428   7.476  18.611  0.00  0.00    +0.000 OA
ATOM     21  H   UNL     1       3.881   7.687  19.441  0.00  0.00    +0.000 HD
ENDBRANCH  18  20
BRANCH  19  22
ATOM     22  O   UNL     1       3.002   5.597  20.417  0.00  0.00    +0.000 OA
ATOM     23  H   UNL     1       3.144   6.566  20.451  0.00  0.00    +0.000 HD
ENDBRANCH  19  22
ENDBRANCH   1  15
BRANCH   5  24
ATOM     24  O   UNL     1       6.287   1.051  10.874  0.00  0.00    +0.000 OA
ATOM     25  H   UNL     1       5.645   0.476  11.326  0.00  0.00    +0.000 HD
ENDBRANCH   5  24
BRANCH  11  26
ATOM     26  O   UNL     1       7.588   4.452  16.733  0.00  0.00    +0.000 OA
ATOM     27  H   UNL     1       8.458   4.792  16.447  0.00  0.00    +0.000 HD
ENDBRANCH  11  26
TORSDOF 5
ENDMDL
MODEL 8
REMARK VINA RESULT:      -6.4      1.078      1.225
REMARK  Name = 
REMARK  7 active torsions:
REMARK  status: ('A' for Active; 'I' for Inactive)
REMARK    1  A    between atoms: C_1  and  C_2
REMARK    2  A    between atoms: C_4  and  C_5
REMARK    3  A    between atoms: C_9  and  O_10
REMARK    4  A    between atoms: C_16  and  O_17
REMARK    5  A    between atoms: C_18  and  C_19
REMARK    6  A    between atoms: C_20  and  O_21
REMARK    7  A    between atoms: C_22  and  O_23
REMARK                            x       y       z     vdW  Elec       q    Type
REMARK                         _______ _______ _______ _____ _____    ______ ____
ROOT
ATOM      1  C   UNL     1       4.990   5.243  17.403  0.00  0.00    +0.000 A 
ATOM      2  O   UNL     1       4.445   5.134  16.132  0.00  0.00    +0.000 OA
ATOM      3  C   UNL     1       5.383   4.936  15.139  0.00  0.00    +0.000 A 
ATOM      4  C   UNL     1       5.181   3.963  14.167  0.00  0.00    +0.000 A 
ATOM      5  C   UNL     1       6.234   3.710  13.286  0.00  0.00    +0.000 A 
ATOM      6  C   UNL     1       7.378   4.520  13.232  0.00  0.00    +0.000 A 
ATOM      7  C   UNL     1       7.560   5.509  14.185  0.00  0.00    +0.000 A 
ATOM      8  C   UNL     1       6.607   5.614  15.192  0.00  0.00    +0.000 A 
ATOM      9  C   UNL     1       7.040   6.084  16.510  0.00  0.00    +0.000 A 
ATOM     10  O   UNL     1       7.980   6.852  16.659  0.00  0.00    +0.000 OA
ATOM     11  C   UNL     1       6.297   5.464  17.638  0.00  0.00    +0.000 A 
ENDROOT
BRANCH   1  15
ATOM     12  C   UNL     1       1.722   8.374  19.545  0.00  0.00    +0.000 C 
ATOM     13  C   UNL     1       2.419   7.048  19.500  0.00  0.00    +0.000 A 
ATOM     14  C   UNL     1       3.470   6.820  18.610  0.00  0.00    +0.000 A 
ATOM     15  C   UNL     1       4.056   5.531  18.499  0.00  0.00    +0.000 A 
ATOM     16  C   UNL     1       3.593   4.468  19.325  0.00  0.00    +0.000 A 
ATOM     17  C   UNL     1       4.147   3.064  19.227  0.00  0.00    +0.000 C 
ATOM     18  C   UNL     1       2.565   4.730  20.231  0.00  0.00    +0.000 A 
ATOM     19  C   UNL     1       1.982   5.996  20.306  0.00  0.00    +0.000 A 
BRANCH  18  20
ATOM     20  O   UNL     1       2.017   3.782  21.062  0.00  0.00    +0.000 OA
ATOM     21  H   UNL     1       1.677   4.226  21.852  0.00  0.00    +0.000 HD
ENDBRANCH  18  20
BRANCH  19  22
ATOM     22  O   UNL     1       0.932   6.187  21.165  0.00  0.00    +0.000 OA
ATOM     23  H   UNL     1       1.310   6.026  22.055  0.00  0.00    +0.000 HD
ENDBRANCH  19  22
ENDBRANCH   1  15
BRANCH   5  24
ATOM     24  O   UNL     1       6.238   2.590  12.509  0.00  0.00    +0.000 OA
ATOM     25  H   UNL     1       5.337   2.223  12.517  0.00  0.00    +0.000 HD
ENDBRANCH   5  24
BRANCH  11  26
ATOM     26  O   UNL     1       6.926   5.240  18.840  0.00  0.00    +0.000 OA
ATOM     27  H   UNL     1       7.620   4.578  18.655  0.00  0.00    +0.000 HD
ENDBRANCH  11  26
TORSDOF 5
ENDMDL
MODEL 9
REMARK VINA RESULT:      -6.2      3.737      7.457
REMARK  Name = 
REMARK  7 active torsions:
REMARK  status: ('A' for Active; 'I' for Inactive)
REMARK    1  A    between atoms: C_1  and  C_2
REMARK    2  A    between atoms: C_4  and  C_5
REMARK    3  A    between atoms: C_9  and  O_10
REMARK    4  A    between atoms: C_16  and  O_17
REMARK    5  A    between atoms: C_18  and  C_19
REMARK    6  A    between atoms: C_20  and  O_21
REMARK    7  A    between atoms: C_22  and  O_23
REMARK                            x       y       z     vdW  Elec       q    Type
REMARK                         _______ _______ _______ _____ _____    ______ ____
ROOT
ATOM      1  C   UNL     1       2.046   8.115  19.434  0.00  0.00    +0.000 A 
ATOM      2  O   UNL     1       1.986   8.839  18.252  0.00  0.00    +0.000 OA
ATOM      3  C   UNL     1       1.614  10.156  18.423  0.00  0.00    +0.000 A 
ATOM      4  C   UNL     1       2.313  11.172  17.782  0.00  0.00    +0.000 A 
ATOM      5  C   UNL     1       1.983  12.487  18.117  0.00  0.00    +0.000 A 
ATOM      6  C   UNL     1       0.870  12.803  18.911  0.00  0.00    +0.000 A 
ATOM      7  C   UNL     1       0.158  11.784  19.523  0.00  0.00    +0.000 A 
ATOM      8  C   UNL     1       0.623  10.485  19.357  0.00  0.00    +0.000 A 
ATOM      9  C   UNL     1       0.401   9.525  20.442  0.00  0.00    +0.000 A 
ATOM     10  O   UNL     1      -0.557   9.597  21.198  0.00  0.00    +0.000 OA
ATOM     11  C   UNL     1       1.494   8.528  20.590  0.00  0.00    +0.000 A 
ENDROOT
BRANCH   1  15
ATOM     12  C   UNL     1       0.935   3.368  20.577  0.00  0.00    +0.000 C 
ATOM     13  C   UNL     1       1.769   4.370  19.838  0.00  0.00    +0.000 A 
ATOM     14  C   UNL     1       1.644   5.736  20.094  0.00  0.00    +0.000 A 
ATOM     15  C   UNL     1       2.361   6.686  19.318  0.00  0.00    +0.000 A 
ATOM     16  C   UNL     1       3.242   6.243  18.292  0.00  0.00    +0.000 A 
ATOM     17  C   UNL     1       4.002   7.203  17.404  0.00  0.00    +0.000 C 
ATOM     18  C   UNL     1       3.376   4.870  18.078  0.00  0.00    +0.000 A 
ATOM     19  C   UNL     1       2.642   3.953  18.832  0.00  0.00    +0.000 A 
BRANCH  18  20
ATOM     20  O   UNL     1       4.174   4.322  17.102  0.00  0.00    +0.000 OA
ATOM     21  H   UNL     1       3.606   3.889  16.449  0.00  0.00    +0.000 HD
ENDBRANCH  18  20
BRANCH  19  22
ATOM     22  O   UNL     1       2.759   2.619  18.542  0.00  0.00    +0.000 OA
ATOM     23  H   UNL     1       1.857   2.347  18.274  0.00  0.00    +0.000 HD
ENDBRANCH  19  22
ENDBRANCH   1  15
BRANCH   5  24
ATOM     24  O   UNL     1       2.802  13.520  17.771  0.00  0.00    +0.000 OA
ATOM     25  H   UNL     1       2.572  14.279  18.336  0.00  0.00    +0.000 HD
ENDBRANCH   5  24
BRANCH  11  26
ATOM     26  O   UNL     1       1.814   8.033  21.832  0.00  0.00    +0.000 OA
ATOM     27  H   UNL     1       1.331   8.593  22.471  0.00  0.00    +0.000 HD
ENDBRANCH  11  26
TORSDOF 5
ENDMDL
