MODEL 1
REMARK VINA RESULT:      -8.6      0.000      0.000
REMARK  Name = 
REMARK  11 active torsions:
REMARK  status: ('A' for Active; 'I' for Inactive)
REMARK    1  A    between atoms: C_1  and  N_2
REMARK    2  A    between atoms: N_2  and  C_3
REMARK    3  A    between atoms: C_3  and  C_4
REMARK    4  A    between atoms: N_12  and  C_13
REMARK    5  A    between atoms: C_13  and  C_14
REMARK    6  A    between atoms: C_13  and  C_21
REMARK    7  A    between atoms: C_14  and  C_15
REMARK    8  A    between atoms: N_23  and  C_24
REMARK    9  A    between atoms: C_24  and  C_25
REMARK   10  A    between atoms: C_25  and  C_26
REMARK   11  A    between atoms: C_26  and  N_27
REMARK                            x       y       z     vdW  Elec       q    Type
REMARK                         _______ _______ _______ _____ _____    ______ ____
ROOT
ATOM      1  C   UNL     1       6.000   5.066  17.107  0.00  0.00    +0.000 C 
ENDROOT
BRANCH   1   6
ATOM      2  C   UNL     1       1.443   3.954  18.512  0.00  0.00    +0.000 C 
ATOM      3  N   UNL     1       2.719   4.601  18.766  0.00  0.00    +0.000 N 
ATOM      4  C   UNL     1       3.762   4.290  17.911  0.00  0.00    +0.000 C 
ATOM      5  O   UNL     1       3.660   3.455  17.022  0.00  0.00    +0.000 OA
ATOM      6  N   UNL     1       4.873   5.068  18.042  0.00  0.00    +0.000 N 
ATOM      7  H   UNL     1       5.082   5.473  18.943  0.00  0.00    +0.000 HD
BRANCH   3   8
ATOM      8  C   UNL     1       2.800   5.521  19.901  0.00  0.00    +0.000 C 
BRANCH   8   9
ATOM      9  C   UNL     1       2.279   6.895  19.543  0.00  0.00    +0.000 A 
ATOM     10  C   UNL     1       1.602   7.678  20.488  0.00  0.00    +0.000 A 
ATOM     11  C   UNL     1       1.104   8.934  20.139  0.00  0.00    +0.000 A 
ATOM     12  C   UNL     1       1.280   9.424  18.847  0.00  0.00    +0.000 A 
ATOM     13  C   UNL     1       1.952   8.658  17.899  0.00  0.00    +0.000 A 
ATOM     14  C   UNL     1       2.448   7.400  18.245  0.00  0.00    +0.000 A 
ENDBRANCH   8   9
ENDBRANCH   3   8
ENDBRANCH   1   6
BRANCH   1  15
ATOM     15  C   UNL     1       7.200   5.673  17.895  0.00  0.00    +0.000 C 
ATOM     16  O   UNL     1       7.902   4.986  18.643  0.00  0.00    +0.000 OA
ATOM     17  N   UNL     1       7.476   6.997  17.639  0.00  0.00    +0.000 N 
ATOM     18  H   UNL     1       6.761   7.540  17.179  0.00  0.00    +0.000 HD
BRANCH  17  19
ATOM     19  C   UNL     1       8.456   7.766  18.390  0.00  0.00    +0.000 C 
BRANCH  19  20
ATOM     20  C   UNL     1       8.256   9.240  18.058  0.00  0.00    +0.000 C 
BRANCH  20  21
ATOM     21  C   UNL     1       9.099  10.192  18.908  0.00  0.00    +0.000 C 
BRANCH  21  22
ATOM     22  N   UNL     1       9.813  11.175  18.071  0.00  0.00    +0.000 NA
ATOM     23  C   UNL     1      11.156  11.549  18.570  0.00  0.00    +0.000 C 
ATOM     24  C   UNL     1      11.150  12.482  19.793  0.00  0.00    +0.000 C 
ATOM     25  O   UNL     1      10.373  13.661  19.552  0.00  0.00    +0.000 OA
ATOM     26  C   UNL     1       9.038  13.323  19.159  0.00  0.00    +0.000 C 
ATOM     27  C   UNL     1       9.034  12.425  17.910  0.00  0.00    +0.000 C 
ENDBRANCH  21  22
ENDBRANCH  20  21
ENDBRANCH  19  20
ENDBRANCH  17  19
ENDBRANCH   1  15
BRANCH   1  28
ATOM     28  C   UNL     1       5.704   5.801  15.771  0.00  0.00    +0.000 C 
BRANCH  28  29
ATOM     29  C   UNL     1       6.161   5.050  14.539  0.00  0.00    +0.000 A 
ATOM     30  C   UNL     1       7.375   5.368  13.915  0.00  0.00    +0.000 A 
ATOM     31  C   UNL     1       7.717   4.775  12.699  0.00  0.00    +0.000 A 
ATOM     32  C   UNL     1       6.857   3.851  12.103  0.00  0.00    +0.000 A 
ATOM     33  C   UNL     1       5.683   3.483  12.745  0.00  0.00    +0.000 A 
ATOM     34  C   UNL     1       5.352   4.060  13.965  0.00  0.00    +0.000 A 
ENDBRANCH  28  29
ENDBRANCH   1  28
TORSDOF 10
ENDMDL
MODEL 2
REMARK VINA RESULT:      -7.7      1.546      2.943
REMARK  Name = 
REMARK  11 active torsions:
REMARK  status: ('A' for Active; 'I' for Inactive)
REMARK    1  A    between atoms: C_1  and  N_2
REMARK    2  A    between atoms: N_2  and  C_3
REMARK    3  A    between atoms: C_3  and  C_4
REMARK    4  A    between atoms: N_12  and  C_13
REMARK    5  A    between atoms: C_13  and  C_14
REMARK    6  A    between atoms: C_13  and  C_21
REMARK    7  A    between atoms: C_14  and  C_15
REMARK    8  A    between atoms: N_23  and  C_24
REMARK    9  A    between atoms: C_24  and  C_25
REMARK   10  A    between atoms: C_25  and  C_26
REMARK   11  A    between atoms: C_26  and  N_27
REMARK                            x       y       z     vdW  Elec       q    Type
REMARK                         _______ _______ _______ _____ _____    ______ ____
ROOT
ATOM      1  C   UNL     1       6.149   5.029  16.419  0.00  0.00    +0.000 C 
ENDROOT
BRANCH   1   6
ATOM      2  C   UNL     1       2.373   7.054  18.789  0.00  0.00    +0.000 C 
ATOM      3  N   UNL     1       2.943   5.953  18.033  0.00  0.00    +0.000 N 
ATOM      4  C   UNL     1       4.164   6.176  17.422  0.00  0.00    +0.000 C 
ATOM      5  O   UNL     1       4.722   7.265  17.440  0.00  0.00    +0.000 OA
ATOM      6  N   UNL     1       4.768   5.068  16.908  0.00  0.00    +0.000 N 
ATOM      7  H   UNL     1       4.193   4.303  16.586  0.00  0.00    +0.000 HD
BRANCH   3   8
ATOM      8  C   UNL     1       2.182   4.704  17.973  0.00  0.00    +0.000 C 
BRANCH   8   9
ATOM      9  C   UNL     1       2.254   3.946  19.280  0.00  0.00    +0.000 A 
ATOM     10  C   UNL     1       3.443   3.327  19.689  0.00  0.00    +0.000 A 
ATOM     11  C   UNL     1       3.492   2.609  20.885  0.00  0.00    +0.000 A 
ATOM     12  C   UNL     1       2.358   2.507  21.687  0.00  0.00    +0.000 A 
ATOM     13  C   UNL     1       1.171   3.118  21.295  0.00  0.00    +0.000 A 
ATOM     14  C   UNL     1       1.119   3.833  20.098  0.00  0.00    +0.000 A 
ENDBRANCH   8   9
ENDBRANCH   3   8
ENDBRANCH   1   6
BRANCH   1  15
ATOM     15  C   UNL     1       7.024   5.564  17.593  0.00  0.00    +0.000 C 
ATOM     16  O   UNL     1       7.305   4.862  18.568  0.00  0.00    +0.000 OA
ATOM     17  N   UNL     1       7.531   6.834  17.431  0.00  0.00    +0.000 N 
ATOM     18  H   UNL     1       7.113   7.413  16.719  0.00  0.00    +0.000 HD
BRANCH  17  19
ATOM     19  C   UNL     1       8.239   7.549  18.482  0.00  0.00    +0.000 C 
BRANCH  19  20
ATOM     20  C   UNL     1       8.383   9.003  18.050  0.00  0.00    +0.000 C 
BRANCH  20  21
ATOM     21  C   UNL     1       8.619   9.978  19.205  0.00  0.00    +0.000 C 
BRANCH  21  22
ATOM     22  N   UNL     1       9.957  10.594  19.126  0.00  0.00    +0.000 NA
ATOM     23  C   UNL     1      10.259  11.552  20.215  0.00  0.00    +0.000 C 
ATOM     24  C   UNL     1       9.543  12.908  20.093  0.00  0.00    +0.000 C 
ATOM     25  O   UNL     1       9.788  13.521  18.822  0.00  0.00    +0.000 OA
ATOM     26  C   UNL     1       9.413  12.647  17.752  0.00  0.00    +0.000 C 
ATOM     27  C   UNL     1      10.157  11.303  17.841  0.00  0.00    +0.000 C 
ENDBRANCH  21  22
ENDBRANCH  20  21
ENDBRANCH  19  20
ENDBRANCH  17  19
ENDBRANCH   1  15
BRANCH   1  28
ATOM     28  C   UNL     1       6.361   5.802  15.089  0.00  0.00    +0.000 C 
BRANCH  28  29
ATOM     29  C   UNL     1       6.362   4.922  13.858  0.00  0.00    +0.000 A 
ATOM     30  C   UNL     1       5.347   3.979  13.650  0.00  0.00    +0.000 A 
ATOM     31  C   UNL     1       5.434   3.072  12.593  0.00  0.00    +0.000 A 
ATOM     32  C   UNL     1       6.528   3.107  11.728  0.00  0.00    +0.000 A 
ATOM     33  C   UNL     1       7.507   4.079  11.888  0.00  0.00    +0.000 A 
ATOM     34  C   UNL     1       7.409   4.994  12.929  0.00  0.00    +0.000 A 
ENDBRANCH  28  29
ENDBRANCH   1  28
TORSDOF 10
ENDMDL
MODEL 3
REMARK VINA RESULT:      -7.6      3.566      8.567
REMARK  Name = 
REMARK  11 active torsions:
REMARK  status: ('A' for Active; 'I' for Inactive)
REMARK    1  A    between atoms: C_1  and  N_2
REMARK    2  A    between atoms: N_2  and  C_3
REMARK    3  A    between atoms: C_3  and  C_4
REMARK    4  A    between atoms: N_12  and  C_13
REMARK    5  A    between atoms: C_13  and  C_14
REMARK    6  A    between atoms: C_13  and  C_21
REMARK    7  A    between atoms: C_14  and  C_15
REMARK    8  A    between atoms: N_23  and  C_24
REMARK    9  A    between atoms: C_24  and  C_25
REMARK   10  A    between atoms: C_25  and  C_26
REMARK   11  A    between atoms: C_26  and  N_27
REMARK                            x       y       z     vdW  Elec       q    Type
REMARK                         _______ _______ _______ _____ _____    ______ ____
ROOT
ATOM      1  C   UNL     1       2.639   6.519  18.257  0.00  0.00    +0.000 C 
ENDROOT
BRANCH   1   6
ATOM      2  C   UNL     1       5.686   3.506  15.888  0.00  0.00    +0.000 C 
ATOM      3  N   UNL     1       5.249   4.851  16.223  0.00  0.00    +0.000 N 
ATOM      4  C   UNL     1       4.032   4.972  16.869  0.00  0.00    +0.000 C 
ATOM      5  O   UNL     1       3.303   4.014  17.090  0.00  0.00    +0.000 OA
ATOM      6  N   UNL     1       3.754   6.213  17.358  0.00  0.00    +0.000 N 
ATOM      7  H   UNL     1       4.143   7.020  16.892  0.00  0.00    +0.000 HD
BRANCH   3   8
ATOM      8  C   UNL     1       6.124   5.962  15.849  0.00  0.00    +0.000 C 
BRANCH   8   9
ATOM      9  C   UNL     1       6.968   6.424  17.016  0.00  0.00    +0.000 A 
ATOM     10  C   UNL     1       7.288   5.548  18.063  0.00  0.00    +0.000 A 
ATOM     11  C   UNL     1       8.047   5.991  19.148  0.00  0.00    +0.000 A 
ATOM     12  C   UNL     1       8.498   7.308  19.196  0.00  0.00    +0.000 A 
ATOM     13  C   UNL     1       8.188   8.188  18.163  0.00  0.00    +0.000 A 
ATOM     14  C   UNL     1       7.427   7.748  17.079  0.00  0.00    +0.000 A 
ENDBRANCH   8   9
ENDBRANCH   3   8
ENDBRANCH   1   6
BRANCH   1  15
ATOM     15  C   UNL     1       2.301   8.021  18.011  0.00  0.00    +0.000 C 
ATOM     16  O   UNL     1       2.753   8.639  17.044  0.00  0.00    +0.000 OA
ATOM     17  N   UNL     1       1.404   8.584  18.890  0.00  0.00    +0.000 N 
ATOM     18  H   UNL     1       1.228   8.092  19.753  0.00  0.00    +0.000 HD
BRANCH  17  19
ATOM     19  C   UNL     1       1.088  10.004  18.905  0.00  0.00    +0.000 C 
BRANCH  19  20
ATOM     20  C   UNL     1      -0.417  10.152  19.092  0.00  0.00    +0.000 C 
BRANCH  20  21
ATOM     21  C   UNL     1      -1.150  10.687  17.860  0.00  0.00    +0.000 C 
BRANCH  21  22
ATOM     22  N   UNL     1      -2.300   9.834  17.505  0.00  0.00    +0.000 NA
ATOM     23  C   UNL     1      -2.555   9.719  16.050  0.00  0.00    +0.000 C 
ATOM     24  C   UNL     1      -3.185  10.967  15.408  0.00  0.00    +0.000 C 
ATOM     25  O   UNL     1      -4.385  11.360  16.085  0.00  0.00    +0.000 OA
ATOM     26  C   UNL     1      -4.140  11.570  17.480  0.00  0.00    +0.000 C 
ATOM     27  C   UNL     1      -3.551  10.311  18.140  0.00  0.00    +0.000 C 
ENDBRANCH  21  22
ENDBRANCH  20  21
ENDBRANCH  19  20
ENDBRANCH  17  19
ENDBRANCH   1  15
BRANCH   1  28
ATOM     28  C   UNL     1       2.931   6.188  19.746  0.00  0.00    +0.000 C 
BRANCH  28  29
ATOM     29  C   UNL     1       2.252   4.930  20.244  0.00  0.00    +0.000 A 
ATOM     30  C   UNL     1       2.648   4.330  21.446  0.00  0.00    +0.000 A 
ATOM     31  C   UNL     1       2.121   3.094  21.823  0.00  0.00    +0.000 A 
ATOM     32  C   UNL     1       1.187   2.452  21.008  0.00  0.00    +0.000 A 
ATOM     33  C   UNL     1       0.742   3.069  19.846  0.00  0.00    +0.000 A 
ATOM     34  C   UNL     1       1.253   4.309  19.483  0.00  0.00    +0.000 A 
ENDBRANCH  28  29
ENDBRANCH   1  28
TORSDOF 10
ENDMDL
MODEL 4
REMARK VINA RESULT:      -7.5      5.361      9.543
REMARK  Name = 
REMARK  11 active torsions:
REMARK  status: ('A' for Active; 'I' for Inactive)
REMARK    1  A    between atoms: C_1  and  N_2
REMARK    2  A    between atoms: N_2  and  C_3
REMARK    3  A    between atoms: C_3  and  C_4
REMARK    4  A    between atoms: N_12  and  C_13
REMARK    5  A    between atoms: C_13  and  C_14
REMARK    6  A    between atoms: C_13  and  C_21
REMARK    7  A    between atoms: C_14  and  C_15
REMARK    8  A    between atoms: N_23  and  C_24
REMARK    9  A    between atoms: C_24  and  C_25
REMARK   10  A    between atoms: C_25  and  C_26
REMARK   11  A    between atoms: C_26  and  N_27
REMARK                            x       y       z     vdW  Elec       q    Type
REMARK                         _______ _______ _______ _____ _____    ______ ____
ROOT
ATOM      1  C   UNL     1       0.117  10.245  18.432  0.00  0.00    +0.000 C 
ENDROOT
BRANCH   1   6
ATOM      2  C   UNL     1       3.726   7.016  17.710  0.00  0.00    +0.000 C 
ATOM      3  N   UNL     1       2.716   7.607  18.571  0.00  0.00    +0.000 N 
ATOM      4  C   UNL     1       2.116   8.771  18.126  0.00  0.00    +0.000 C 
ATOM      5  O   UNL     1       2.455   9.338  17.095  0.00  0.00    +0.000 OA
ATOM      6  N   UNL     1       1.032   9.178  18.845  0.00  0.00    +0.000 N 
ATOM      7  H   UNL     1       0.982   8.946  19.826  0.00  0.00    +0.000 HD
BRANCH   3   8
ATOM      8  C   UNL     1       2.421   6.932  19.835  0.00  0.00    +0.000 C 
BRANCH   8   9
ATOM      9  C   UNL     1       1.927   5.520  19.609  0.00  0.00    +0.000 A 
ATOM     10  C   UNL     1       1.526   4.716  20.685  0.00  0.00    +0.000 A 
ATOM     11  C   UNL     1       1.095   3.407  20.467  0.00  0.00    +0.000 A 
ATOM     12  C   UNL     1       1.055   2.888  19.175  0.00  0.00    +0.000 A 
ATOM     13  C   UNL     1       1.449   3.675  18.097  0.00  0.00    +0.000 A 
ATOM     14  C   UNL     1       1.882   4.984  18.313  0.00  0.00    +0.000 A 
ENDBRANCH   8   9
ENDBRANCH   3   8
ENDBRANCH   1   6
BRANCH   1  15
ATOM     15  C   UNL     1       0.683  11.552  19.067  0.00  0.00    +0.000 C 
ATOM     16  O   UNL     1       0.950  12.545  18.385  0.00  0.00    +0.000 OA
ATOM     17  N   UNL     1       0.785  11.554  20.440  0.00  0.00    +0.000 N 
ATOM     18  H   UNL     1       0.738  10.663  20.911  0.00  0.00    +0.000 HD
BRANCH  17  19
ATOM     19  C   UNL     1       1.428  12.622  21.189  0.00  0.00    +0.000 C 
BRANCH  19  20
ATOM     20  C   UNL     1       0.410  13.738  21.391  0.00  0.00    +0.000 C 
BRANCH  20  21
ATOM     21  C   UNL     1      -0.674  13.416  22.422  0.00  0.00    +0.000 C 
BRANCH  21  22
ATOM     22  N   UNL     1      -1.491  12.261  22.002  0.00  0.00    +0.000 NA
ATOM     23  C   UNL     1      -2.601  12.596  21.080  0.00  0.00    +0.000 C 
ATOM     24  C   UNL     1      -3.798  13.299  21.743  0.00  0.00    +0.000 C 
ATOM     25  O   UNL     1      -4.298  12.550  22.857  0.00  0.00    +0.000 OA
ATOM     26  C   UNL     1      -3.260  12.297  23.810  0.00  0.00    +0.000 C 
ATOM     27  C   UNL     1      -2.077  11.555  23.165  0.00  0.00    +0.000 C 
ENDBRANCH  21  22
ENDBRANCH  20  21
ENDBRANCH  19  20
ENDBRANCH  17  19
ENDBRANCH   1  15
BRANCH   1  28
ATOM     28  C   UNL     1      -1.366   9.972  18.801  0.00  0.00    +0.000 C 
BRANCH  28  29
ATOM     29  C   UNL     1      -2.339  10.214  17.667  0.00  0.00    +0.000 A 
ATOM     30  C   UNL     1      -2.053   9.766  16.370  0.00  0.00    +0.000 A 
ATOM     31  C   UNL     1      -2.880  10.121  15.304  0.00  0.00    +0.000 A 
ATOM     32  C   UNL     1      -4.006  10.916  15.525  0.00  0.00    +0.000 A 
ATOM     33  C   UNL     1      -4.332  11.312  16.815  0.00  0.00    +0.000 A 
ATOM     34  C   UNL     1      -3.518  10.941  17.879  0.00  0.00    +0.000 A 
ENDBRANCH  28  29
ENDBRANCH   1  28
TORSDOF 10
ENDMDL
MODEL 5
REMARK VINA RESULT:      -7.5      1.413      1.954
REMARK  Name = 
REMARK  11 active torsions:
REMARK  status: ('A' for Active; 'I' for Inactive)
REMARK    1  A    between atoms: C_1  and  N_2
REMARK    2  A    between atoms: N_2  and  C_3
REMARK    3  A    between atoms: C_3  and  C_4
REMARK    4  A    between atoms: N_12  and  C_13
REMARK    5  A    between atoms: C_13  and  C_14
REMARK    6  A    between atoms: C_13  and  C_21
REMARK    7  A    between atoms: C_14  and  C_15
REMARK    8  A    between atoms: N_23  and  C_24
REMARK    9  A    between atoms: C_24  and  C_25
REMARK   10  A    between atoms: C_25  and  C_26
REMARK   11  A    between atoms: C_26  and  N_27
REMARK                            x       y       z     vdW  Elec       q    Type
REMARK                         _______ _______ _______ _____ _____    ______ ____
ROOT
ATOM      1  C   UNL     1       6.652   5.357  18.317  0.00  0.00    +0.000 C 
ENDROOT
BRANCH   1   6
ATOM      2  C   UNL     1       2.858   2.415  19.280  0.00  0.00    +0.000 C 
ATOM      3  N   UNL     1       3.384   3.666  18.760  0.00  0.00    +0.000 N 
ATOM      4  C   UNL     1       4.711   3.949  19.032  0.00  0.00    +0.000 C 
ATOM      5  O   UNL     1       5.408   3.233  19.737  0.00  0.00    +0.000 OA
ATOM      6  N   UNL     1       5.228   5.013  18.355  0.00  0.00    +0.000 N 
ATOM      7  H   UNL     1       4.612   5.766  18.085  0.00  0.00    +0.000 HD
BRANCH   3   8
ATOM      8  C   UNL     1       2.473   4.524  18.002  0.00  0.00    +0.000 C 
BRANCH   8   9
ATOM      9  C   UNL     1       2.208   5.827  18.720  0.00  0.00    +0.000 A 
ATOM     10  C   UNL     1       2.339   7.055  18.057  0.00  0.00    +0.000 A 
ATOM     11  C   UNL     1       2.116   8.254  18.736  0.00  0.00    +0.000 A 
ATOM     12  C   UNL     1       1.756   8.240  20.082  0.00  0.00    +0.000 A 
ATOM     13  C   UNL     1       1.621   7.028  20.753  0.00  0.00    +0.000 A 
ATOM     14  C   UNL     1       1.846   5.829  20.076  0.00  0.00    +0.000 A 
ENDBRANCH   8   9
ENDBRANCH   3   8
ENDBRANCH   1   6
BRANCH   1  15
ATOM     15  C   UNL     1       6.711   6.842  17.845  0.00  0.00    +0.000 C 
ATOM     16  O   UNL     1       5.752   7.389  17.294  0.00  0.00    +0.000 OA
ATOM     17  N   UNL     1       7.865   7.524  18.159  0.00  0.00    +0.000 N 
ATOM     18  H   UNL     1       8.669   6.977  18.429  0.00  0.00    +0.000 HD
BRANCH  17  19
ATOM     19  C   UNL     1       8.157   8.862  17.671  0.00  0.00    +0.000 C 
BRANCH  19  20
ATOM     20  C   UNL     1       8.857   9.630  18.786  0.00  0.00    +0.000 C 
BRANCH  20  21
ATOM     21  C   UNL     1       9.593  10.885  18.314  0.00  0.00    +0.000 C 
BRANCH  21  22
ATOM     22  N   UNL     1      10.708  11.228  19.218  0.00  0.00    +0.000 NA
ATOM     23  C   UNL     1      10.291  11.790  20.524  0.00  0.00    +0.000 C 
ATOM     24  C   UNL     1       9.789  13.243  20.467  0.00  0.00    +0.000 C 
ATOM     25  O   UNL     1      10.748  14.108  19.848  0.00  0.00    +0.000 OA
ATOM     26  C   UNL     1      11.095  13.635  18.542  0.00  0.00    +0.000 C 
ATOM     27  C   UNL     1      11.639  12.197  18.594  0.00  0.00    +0.000 C 
ENDBRANCH  21  22
ENDBRANCH  20  21
ENDBRANCH  19  20
ENDBRANCH  17  19
ENDBRANCH   1  15
BRANCH   1  28
ATOM     28  C   UNL     1       7.501   4.397  17.440  0.00  0.00    +0.000 C 
BRANCH  28  29
ATOM     29  C   UNL     1       7.025   4.288  16.007  0.00  0.00    +0.000 A 
ATOM     30  C   UNL     1       7.690   4.967  14.977  0.00  0.00    +0.000 A 
ATOM     31  C   UNL     1       7.160   4.981  13.687  0.00  0.00    +0.000 A 
ATOM     32  C   UNL     1       5.969   4.308  13.410  0.00  0.00    +0.000 A 
ATOM     33  C   UNL     1       5.337   3.581  14.410  0.00  0.00    +0.000 A 
ATOM     34  C   UNL     1       5.876   3.551  15.690  0.00  0.00    +0.000 A 
ENDBRANCH  28  29
ENDBRANCH   1  28
TORSDOF 10
ENDMDL
MODEL 6
REMARK VINA RESULT:      -7.5      1.418      1.912
REMARK  Name = 
REMARK  11 active torsions:
REMARK  status: ('A' for Active; 'I' for Inactive)
REMARK    1  A    between atoms: C_1  and  N_2
REMARK    2  A    between atoms: N_2  and  C_3
REMARK    3  A    between atoms: C_3  and  C_4
REMARK    4  A    between atoms: N_12  and  C_13
REMARK    5  A    between atoms: C_13  and  C_14
REMARK    6  A    between atoms: C_13  and  C_21
REMARK    7  A    between atoms: C_14  and  C_15
REMARK    8  A    between atoms: N_23  and  C_24
REMARK    9  A    between atoms: C_24  and  C_25
REMARK   10  A    between atoms: C_25  and  C_26
REMARK   11  A    between atoms: C_26  and  N_27
REMARK                            x       y       z     vdW  Elec       q    Type
REMARK                         _______ _______ _______ _____ _____    ______ ____
ROOT
ATOM      1  C   UNL     1       6.835   5.612  18.128  0.00  0.00    +0.000 C 
ENDROOT
BRANCH   1   6
ATOM      2  C   UNL     1       2.923   2.954  19.392  0.00  0.00    +0.000 C 
ATOM      3  N   UNL     1       3.497   4.140  18.781  0.00  0.00    +0.000 N 
ATOM      4  C   UNL     1       4.847   4.363  18.991  0.00  0.00    +0.000 C 
ATOM      5  O   UNL     1       5.529   3.650  19.716  0.00  0.00    +0.000 OA
ATOM      6  N   UNL     1       5.398   5.353  18.234  0.00  0.00    +0.000 N 
ATOM      7  H   UNL     1       4.815   6.123  17.939  0.00  0.00    +0.000 HD
BRANCH   3   8
ATOM      8  C   UNL     1       2.608   5.002  18.001  0.00  0.00    +0.000 C 
BRANCH   8   9
ATOM      9  C   UNL     1       2.250   6.261  18.759  0.00  0.00    +0.000 A 
ATOM     10  C   UNL     1       1.885   6.208  20.112  0.00  0.00    +0.000 A 
ATOM     11  C   UNL     1       1.533   7.373  20.795  0.00  0.00    +0.000 A 
ATOM     12  C   UNL     1       1.545   8.602  20.138  0.00  0.00    +0.000 A 
ATOM     13  C   UNL     1       1.906   8.669  18.795  0.00  0.00    +0.000 A 
ATOM     14  C   UNL     1       2.256   7.505  18.110  0.00  0.00    +0.000 A 
ENDBRANCH   8   9
ENDBRANCH   3   8
ENDBRANCH   1   6
BRANCH   1  15
ATOM     15  C   UNL     1       6.960   7.060  17.563  0.00  0.00    +0.000 C 
ATOM     16  O   UNL     1       6.210   7.480  16.677  0.00  0.00    +0.000 OA
ATOM     17  N   UNL     1       7.898   7.862  18.172  0.00  0.00    +0.000 N 
ATOM     18  H   UNL     1       8.596   7.409  18.743  0.00  0.00    +0.000 HD
BRANCH  17  19
ATOM     19  C   UNL     1       8.255   9.184  17.682  0.00  0.00    +0.000 C 
BRANCH  19  20
ATOM     20  C   UNL     1       8.985   9.921  18.798  0.00  0.00    +0.000 C 
BRANCH  20  21
ATOM     21  C   UNL     1       9.535  11.289  18.389  0.00  0.00    +0.000 C 
BRANCH  21  22
ATOM     22  N   UNL     1       9.861  12.114  19.568  0.00  0.00    +0.000 NA
ATOM     23  C   UNL     1       9.733  13.574  19.352  0.00  0.00    +0.000 C 
ATOM     24  C   UNL     1      10.856  14.200  18.509  0.00  0.00    +0.000 C 
ATOM     25  O   UNL     1      12.150  13.897  19.046  0.00  0.00    +0.000 OA
ATOM     26  C   UNL     1      12.332  12.483  19.174  0.00  0.00    +0.000 C 
ATOM     27  C   UNL     1      11.237  11.855  20.053  0.00  0.00    +0.000 C 
ENDBRANCH  21  22
ENDBRANCH  20  21
ENDBRANCH  19  20
ENDBRANCH  17  19
ENDBRANCH   1  15
BRANCH   1  28
ATOM     28  C   UNL     1       7.599   4.554  17.286  0.00  0.00    +0.000 C 
BRANCH  28  29
ATOM     29  C   UNL     1       7.051   4.368  15.887  0.00  0.00    +0.000 A 
ATOM     30  C   UNL     1       7.685   4.958  14.785  0.00  0.00    +0.000 A 
ATOM     31  C   UNL     1       7.094   4.906  13.522  0.00  0.00    +0.000 A 
ATOM     32  C   UNL     1       5.872   4.255  13.346  0.00  0.00    +0.000 A 
ATOM     33  C   UNL     1       5.268   3.614  14.419  0.00  0.00    +0.000 A 
ATOM     34  C   UNL     1       5.867   3.649  15.672  0.00  0.00    +0.000 A 
ENDBRANCH  28  29
ENDBRANCH   1  28
TORSDOF 10
ENDMDL
MODEL 7
REMARK VINA RESULT:      -7.5      2.372      4.015
REMARK  Name = 
REMARK  11 active torsions:
REMARK  status: ('A' for Active; 'I' for Inactive)
REMARK    1  A    between atoms: C_1  and  N_2
REMARK    2  A    between atoms: N_2  and  C_3
REMARK    3  A    between atoms: C_3  and  C_4
REMARK    4  A    between atoms: N_12  and  C_13
REMARK    5  A    between atoms: C_13  and  C_14
REMARK    6  A    between atoms: C_13  and  C_21
REMARK    7  A    between atoms: C_14  and  C_15
REMARK    8  A    between atoms: N_23  and  C_24
REMARK    9  A    between atoms: C_24  and  C_25
REMARK   10  A    between atoms: C_25  and  C_26
REMARK   11  A    between atoms: C_26  and  N_27
REMARK                            x       y       z     vdW  Elec       q    Type
REMARK                         _______ _______ _______ _____ _____    ______ ____
ROOT
ATOM      1  C   UNL     1       4.583   5.871  17.604  0.00  0.00    +0.000 C 
ENDROOT
BRANCH   1   6
ATOM      2  C   UNL     1       1.113   8.142  20.207  0.00  0.00    +0.000 C 
ATOM      3  N   UNL     1       2.023   8.112  19.075  0.00  0.00    +0.000 N 
ATOM      4  C   UNL     1       2.988   7.119  19.073  0.00  0.00    +0.000 C 
ATOM      5  O   UNL     1       3.136   6.340  20.005  0.00  0.00    +0.000 OA
ATOM      6  N   UNL     1       3.680   6.984  17.907  0.00  0.00    +0.000 N 
ATOM      7  H   UNL     1       3.811   7.795  17.320  0.00  0.00    +0.000 HD
BRANCH   3   8
ATOM      8  C   UNL     1       1.852   9.129  18.038  0.00  0.00    +0.000 C 
BRANCH   8   9
ATOM      9  C   UNL     1       0.734  10.088  18.378  0.00  0.00    +0.000 A 
ATOM     10  C   UNL     1       0.968  11.213  19.181  0.00  0.00    +0.000 A 
ATOM     11  C   UNL     1      -0.077  12.078  19.509  0.00  0.00    +0.000 A 
ATOM     12  C   UNL     1      -1.364  11.833  19.036  0.00  0.00    +0.000 A 
ATOM     13  C   UNL     1      -1.611  10.721  18.236  0.00  0.00    +0.000 A 
ATOM     14  C   UNL     1      -0.568   9.854  17.909  0.00  0.00    +0.000 A 
ENDBRANCH   8   9
ENDBRANCH   3   8
ENDBRANCH   1   6
BRANCH   1  15
ATOM     15  C   UNL     1       5.864   6.522  17.000  0.00  0.00    +0.000 C 
ATOM     16  O   UNL     1       6.088   6.516  15.787  0.00  0.00    +0.000 OA
ATOM     17  N   UNL     1       6.681   7.175  17.895  0.00  0.00    +0.000 N 
ATOM     18  H   UNL     1       6.547   6.979  18.875  0.00  0.00    +0.000 HD
BRANCH  17  19
ATOM     19  C   UNL     1       7.987   7.708  17.539  0.00  0.00    +0.000 C 
BRANCH  19  20
ATOM     20  C   UNL     1       7.975   9.208  17.805  0.00  0.00    +0.000 C 
BRANCH  20  21
ATOM     21  C   UNL     1       8.993   9.666  18.851  0.00  0.00    +0.000 C 
BRANCH  21  22
ATOM     22  N   UNL     1       8.925  11.124  19.068  0.00  0.00    +0.000 NA
ATOM     23  C   UNL     1       9.335  11.940  17.901  0.00  0.00    +0.000 C 
ATOM     24  C   UNL     1      10.851  11.972  17.641  0.00  0.00    +0.000 C 
ATOM     25  O   UNL     1      11.577  12.386  18.804  0.00  0.00    +0.000 OA
ATOM     26  C   UNL     1      11.267  11.549  19.924  0.00  0.00    +0.000 C 
ATOM     27  C   UNL     1       9.757  11.545  20.219  0.00  0.00    +0.000 C 
ENDBRANCH  21  22
ENDBRANCH  20  21
ENDBRANCH  19  20
ENDBRANCH  17  19
ENDBRANCH   1  15
BRANCH   1  28
ATOM     28  C   UNL     1       3.951   4.789  16.686  0.00  0.00    +0.000 C 
BRANCH  28  29
ATOM     29  C   UNL     1       3.171   3.727  17.432  0.00  0.00    +0.000 A 
ATOM     30  C   UNL     1       1.804   3.892  17.692  0.00  0.00    +0.000 A 
ATOM     31  C   UNL     1       1.128   2.982  18.506  0.00  0.00    +0.000 A 
ATOM     32  C   UNL     1       1.808   1.894  19.057  0.00  0.00    +0.000 A 
ATOM     33  C   UNL     1       3.147   1.689  18.754  0.00  0.00    +0.000 A 
ATOM     34  C   UNL     1       3.814   2.584  17.927  0.00  0.00    +0.000 A 
ENDBRANCH  28  29
ENDBRANCH   1  28
TORSDOF 10
ENDMDL
MODEL 8
REMARK VINA RESULT:      -7.4      3.569      6.808
REMARK  Name = 
REMARK  11 active torsions:
REMARK  status: ('A' for Active; 'I' for Inactive)
REMARK    1  A    between atoms: C_1  and  N_2
REMARK    2  A    between atoms: N_2  and  C_3
REMARK    3  A    between atoms: C_3  and  C_4
REMARK    4  A    between atoms: N_12  and  C_13
REMARK    5  A    between atoms: C_13  and  C_14
REMARK    6  A    between atoms: C_13  and  C_21
REMARK    7  A    between atoms: C_14  and  C_15
REMARK    8  A    between atoms: N_23  and  C_24
REMARK    9  A    between atoms: C_24  and  C_25
REMARK   10  A    between atoms: C_25  and  C_26
REMARK   11  A    between atoms: C_26  and  N_27
REMARK                            x       y       z     vdW  Elec       q    Type
REMARK                         _______ _______ _______ _____ _____    ______ ____
ROOT
ATOM      1  C   UNL     1       2.069   7.290  20.115  0.00  0.00    +0.000 C 
ENDROOT
BRANCH   1   6
ATOM      2  C   UNL     1      -0.262  11.188  21.944  0.00  0.00    +0.000 C 
ATOM      3  N   UNL     1       0.458  10.544  20.859  0.00  0.00    +0.000 N 
ATOM      4  C   UNL     1       1.089   9.347  21.149  0.00  0.00    +0.000 C 
ATOM      5  O   UNL     1       1.118   8.871  22.276  0.00  0.00    +0.000 OA
ATOM      6  N   UNL     1       1.568   8.666  20.070  0.00  0.00    +0.000 N 
ATOM      7  H   UNL     1       1.855   9.185  19.253  0.00  0.00    +0.000 HD
BRANCH   3   8
ATOM      8  C   UNL     1       0.463  11.210  19.556  0.00  0.00    +0.000 C 
BRANCH   8   9
ATOM      9  C   UNL     1      -0.847  11.016  18.828  0.00  0.00    +0.000 A 
ATOM     10  C   UNL     1      -1.960  11.818  19.120  0.00  0.00    +0.000 A 
ATOM     11  C   UNL     1      -3.172  11.614  18.459  0.00  0.00    +0.000 A 
ATOM     12  C   UNL     1      -3.285  10.614  17.496  0.00  0.00    +0.000 A 
ATOM     13  C   UNL     1      -2.189   9.812  17.194  0.00  0.00    +0.000 A 
ATOM     14  C   UNL     1      -0.977  10.012  17.856  0.00  0.00    +0.000 A 
ENDBRANCH   8   9
ENDBRANCH   3   8
ENDBRANCH   1   6
BRANCH   1  15
ATOM     15  C   UNL     1       2.424   6.925  18.641  0.00  0.00    +0.000 C 
ATOM     16  O   UNL     1       1.818   7.417  17.685  0.00  0.00    +0.000 OA
ATOM     17  N   UNL     1       3.505   6.090  18.475  0.00  0.00    +0.000 N 
ATOM     18  H   UNL     1       3.826   5.580  19.283  0.00  0.00    +0.000 HD
BRANCH  17  19
ATOM     19  C   UNL     1       3.886   5.526  17.189  0.00  0.00    +0.000 C 
BRANCH  19  20
ATOM     20  C   UNL     1       4.783   6.533  16.478  0.00  0.00    +0.000 C 
BRANCH  20  21
ATOM     21  C   UNL     1       5.742   7.280  17.406  0.00  0.00    +0.000 C 
BRANCH  21  22
ATOM     22  N   UNL     1       7.150   6.977  17.085  0.00  0.00    +0.000 NA
ATOM     23  C   UNL     1       7.365   5.660  16.442  0.00  0.00    +0.000 C 
ATOM     24  C   UNL     1       7.242   4.455  17.390  0.00  0.00    +0.000 C 
ATOM     25  O   UNL     1       8.103   4.590  18.527  0.00  0.00    +0.000 OA
ATOM     26  C   UNL     1       7.846   5.815  19.221  0.00  0.00    +0.000 C 
ATOM     27  C   UNL     1       8.009   7.030  18.290  0.00  0.00    +0.000 C 
ENDBRANCH  21  22
ENDBRANCH  20  21
ENDBRANCH  19  20
ENDBRANCH  17  19
ENDBRANCH   1  15
BRANCH   1  28
ATOM     28  C   UNL     1       1.084   6.289  20.778  0.00  0.00    +0.000 C 
BRANCH  28  29
ATOM     29  C   UNL     1       1.459   4.836  20.584  0.00  0.00    +0.000 A 
ATOM     30  C   UNL     1       0.841   4.062  19.593  0.00  0.00    +0.000 A 
ATOM     31  C   UNL     1       1.083   2.690  19.518  0.00  0.00    +0.000 A 
ATOM     32  C   UNL     1       1.953   2.081  20.424  0.00  0.00    +0.000 A 
ATOM     33  C   UNL     1       2.618   2.850  21.369  0.00  0.00    +0.000 A 
ATOM     34  C   UNL     1       2.392   4.219  21.430  0.00  0.00    +0.000 A 
ENDBRANCH  28  29
ENDBRANCH   1  28
TORSDOF 10
ENDMDL
MODEL 9
REMARK VINA RESULT:      -7.4      1.398      1.979
REMARK  Name = 
REMARK  11 active torsions:
REMARK  status: ('A' for Active; 'I' for Inactive)
REMARK    1  A    between atoms: C_1  and  N_2
REMARK    2  A    between atoms: N_2  and  C_3
REMARK    3  A    between atoms: C_3  and  C_4
REMARK    4  A    between atoms: N_12  and  C_13
REMARK    5  A    between atoms: C_13  and  C_14
REMARK    6  A    between atoms: C_13  and  C_21
REMARK    7  A    between atoms: C_14  and  C_15
REMARK    8  A    between atoms: N_23  and  C_24
REMARK    9  A    between atoms: C_24  and  C_25
REMARK   10  A    between atoms: C_25  and  C_26
REMARK   11  A    between atoms: C_26  and  N_27
REMARK                            x       y       z     vdW  Elec       q    Type
REMARK                         _______ _______ _______ _____ _____    ______ ____
ROOT
ATOM      1  C   UNL     1       6.858   5.580  18.124  0.00  0.00    +0.000 C 
ENDROOT
BRANCH   1   6
ATOM      2  C   UNL     1       2.941   2.898  19.326  0.00  0.00    +0.000 C 
ATOM      3  N   UNL     1       3.519   4.086  18.722  0.00  0.00    +0.000 N 
ATOM      4  C   UNL     1       4.863   4.319  18.955  0.00  0.00    +0.000 C 
ATOM      5  O   UNL     1       5.537   3.613  19.694  0.00  0.00    +0.000 OA
ATOM      6  N   UNL     1       5.420   5.311  18.205  0.00  0.00    +0.000 N 
ATOM      7  H   UNL     1       4.837   6.076  17.897  0.00  0.00    +0.000 HD
BRANCH   3   8
ATOM      8  C   UNL     1       2.638   4.940  17.924  0.00  0.00    +0.000 C 
BRANCH   8   9
ATOM      9  C   UNL     1       2.268   6.205  18.665  0.00  0.00    +0.000 A 
ATOM     10  C   UNL     1       2.254   7.445  18.012  0.00  0.00    +0.000 A 
ATOM     11  C   UNL     1       1.935   8.610  18.712  0.00  0.00    +0.000 A 
ATOM     12  C   UNL     1       1.622   8.549  20.068  0.00  0.00    +0.000 A 
ATOM     13  C   UNL     1       1.631   7.324  20.729  0.00  0.00    +0.000 A 
ATOM     14  C   UNL     1       1.952   6.159  20.032  0.00  0.00    +0.000 A 
ENDBRANCH   8   9
ENDBRANCH   3   8
ENDBRANCH   1   6
BRANCH   1  15
ATOM     15  C   UNL     1       6.981   7.046  17.607  0.00  0.00    +0.000 C 
ATOM     16  O   UNL     1       6.235   7.492  16.731  0.00  0.00    +0.000 OA
ATOM     17  N   UNL     1       7.915   7.829  18.246  0.00  0.00    +0.000 N 
ATOM     18  H   UNL     1       8.611   7.360  18.805  0.00  0.00    +0.000 HD
BRANCH  17  19
ATOM     19  C   UNL     1       8.271   9.167  17.800  0.00  0.00    +0.000 C 
BRANCH  19  20
ATOM     20  C   UNL     1       9.086   9.832  18.903  0.00  0.00    +0.000 C 
BRANCH  20  21
ATOM     21  C   UNL     1       9.818  11.100  18.462  0.00  0.00    +0.000 C 
BRANCH  21  22
ATOM     22  N   UNL     1       9.096  12.315  18.885  0.00  0.00    +0.000 NA
ATOM     23  C   UNL     1       9.149  13.432  17.913  0.00  0.00    +0.000 C 
ATOM     24  C   UNL     1      10.500  14.165  17.849  0.00  0.00    +0.000 C 
ATOM     25  O   UNL     1      10.912  14.624  19.142  0.00  0.00    +0.000 OA
ATOM     26  C   UNL     1      10.961  13.540  20.077  0.00  0.00    +0.000 C 
ATOM     27  C   UNL     1       9.601  12.828  20.180  0.00  0.00    +0.000 C 
ENDBRANCH  21  22
ENDBRANCH  20  21
ENDBRANCH  19  20
ENDBRANCH  17  19
ENDBRANCH   1  15
BRANCH   1  28
ATOM     28  C   UNL     1       7.636   4.553  17.258  0.00  0.00    +0.000 C 
BRANCH  28  29
ATOM     29  C   UNL     1       7.058   4.351  15.873  0.00  0.00    +0.000 A 
ATOM     30  C   UNL     1       7.657   4.945  14.754  0.00  0.00    +0.000 A 
ATOM     31  C   UNL     1       7.037   4.878  13.506  0.00  0.00    +0.000 A 
ATOM     32  C   UNL     1       5.821   4.207  13.362  0.00  0.00    +0.000 A 
ATOM     33  C   UNL     1       5.253   3.562  14.452  0.00  0.00    +0.000 A 
ATOM     34  C   UNL     1       5.881   3.613  15.690  0.00  0.00    +0.000 A 
ENDBRANCH  28  29
ENDBRANCH   1  28
TORSDOF 10
ENDMDL
