MODEL 1
REMARK VINA RESULT:      -7.4      0.000      0.000
REMARK  Name = 
REMARK  9 active torsions:
REMARK  status: ('A' for Active; 'I' for Inactive)
REMARK    1  A    between atoms: C_2  and  C_18
REMARK    2  A    between atoms: N_3  and  C_4
REMARK    3  A    between atoms: C_4  and  C_5
REMARK    4  A    between atoms: C_5  and  C_6
REMARK    5  A    between atoms: C_6  and  N_7
REMARK    6  A    between atoms: N_7  and  C_8
REMARK    7  A    between atoms: C_8  and  C_9
REMARK    8  A    between atoms: C_12  and  C_13
REMARK    9  A    between atoms: C_22  and  O_23
REMARK                            x       y       z     vdW  Elec       q    Type
REMARK                         _______ _______ _______ _____ _____    ______ ____
ROOT
ATOM      1  C   UNL     1       1.168   3.936  19.824  0.00  0.00    +0.000 C 
ENDROOT
BRANCH   1   2
ATOM      2  C   UNL     1       1.982   4.684  20.876  0.00  0.00    +0.000 C 
BRANCH   2   5
ATOM      3  O   UNL     1       2.801   6.966  19.429  0.00  0.00    +0.000 OA
ATOM      4  C   UNL     1       1.950   7.081  20.303  0.00  0.00    +0.000 C 
ATOM      5  N   UNL     1       1.490   6.029  21.070  0.00  0.00    +0.000 N 
ATOM      6  H   UNL     1       0.709   6.167  21.698  0.00  0.00    +0.000 HD
BRANCH   4   7
ATOM      7  C   UNL     1       1.309   8.396  20.563  0.00  0.00    +0.000 A 
ATOM      8  C   UNL     1       1.075   9.255  19.483  0.00  0.00    +0.000 A 
ATOM      9  C   UNL     1       0.442  10.482  19.692  0.00  0.00    +0.000 A 
ATOM     10  C   UNL     1       0.053  10.857  20.979  0.00  0.00    +0.000 A 
ATOM     11  C   UNL     1       0.311  10.005  22.050  0.00  0.00    +0.000 A 
ATOM     12  C   UNL     1       0.939   8.781  21.855  0.00  0.00    +0.000 A 
BRANCH  11  13
ATOM     13  O   UNL     1      -0.041  10.334  23.325  0.00  0.00    +0.000 OA
ATOM     14  H   UNL     1       0.281   9.642  23.927  0.00  0.00    +0.000 HD
ENDBRANCH  11  13
ENDBRANCH   4   7
ENDBRANCH   2   5
ENDBRANCH   1   2
BRANCH   1  15
ATOM     15  C   UNL     1       1.394   2.421  19.874  0.00  0.00    +0.000 C 
BRANCH  15  16
ATOM     16  N   UNL     1       2.263   1.871  18.833  0.00  0.00    +0.000 NA
ATOM     17  H   UNL     1       1.846   1.040  18.418  0.00  0.00    +0.000 HD
BRANCH  16  18
ATOM     18  C   UNL     1       2.550   2.838  17.772  0.00  0.00    +0.000 C 
BRANCH  18  19
ATOM     19  C   UNL     1       3.872   3.485  18.001  0.00  0.00    +0.000 A 
ATOM     20  C   UNL     1       4.750   3.298  19.050  0.00  0.00    +0.000 A 
ATOM     21  N   UNL     1       5.914   4.035  18.993  0.00  0.00    +0.000 NA
ATOM     22  C   UNL     1       5.919   4.753  17.892  0.00  0.00    +0.000 A 
ATOM     23  S   UNL     1       4.538   4.605  16.889  0.00  0.00    +0.000 S 
BRANCH  22  24
ATOM     24  C   UNL     1       7.080   5.670  17.525  0.00  0.00    +0.000 C 
ATOM     25  C   UNL     1       6.632   7.131  17.220  0.00  0.00    +0.000 C 
ATOM     26  C   UNL     1       7.897   7.603  17.957  0.00  0.00    +0.000 C 
ATOM     27  C   UNL     1       7.834   6.281  18.742  0.00  0.00    +0.000 C 
ENDBRANCH  22  24
ENDBRANCH  18  19
ENDBRANCH  16  18
ENDBRANCH  15  16
ENDBRANCH   1  15
TORSDOF 9
ENDMDL
MODEL 2
REMARK VINA RESULT:      -7.1      1.103      1.185
REMARK  Name = 
REMARK  9 active torsions:
REMARK  status: ('A' for Active; 'I' for Inactive)
REMARK    1  A    between atoms: C_2  and  C_18
REMARK    2  A    between atoms: N_3  and  C_4
REMARK    3  A    between atoms: C_4  and  C_5
REMARK    4  A    between atoms: C_5  and  C_6
REMARK    5  A    between atoms: C_6  and  N_7
REMARK    6  A    between atoms: N_7  and  C_8
REMARK    7  A    between atoms: C_8  and  C_9
REMARK    8  A    between atoms: C_12  and  C_13
REMARK    9  A    between atoms: C_22  and  O_23
REMARK                            x       y       z     vdW  Elec       q    Type
REMARK                         _______ _______ _______ _____ _____    ______ ____
ROOT
ATOM      1  C   UNL     1       1.093   4.293  20.576  0.00  0.00    +0.000 C 
ENDROOT
BRANCH   1   2
ATOM      2  C   UNL     1       2.170   5.373  20.589  0.00  0.00    +0.000 C 
BRANCH   2   5
ATOM      3  O   UNL     1       2.383   7.693  18.994  0.00  0.00    +0.000 OA
ATOM      4  C   UNL     1       1.769   7.745  20.052  0.00  0.00    +0.000 C 
ATOM      5  N   UNL     1       1.616   6.671  20.905  0.00  0.00    +0.000 N 
ATOM      6  H   UNL     1       1.007   6.747  21.709  0.00  0.00    +0.000 HD
BRANCH   4   7
ATOM      7  C   UNL     1       1.091   9.000  20.471  0.00  0.00    +0.000 A 
ATOM      8  C   UNL     1       0.852   9.988  19.509  0.00  0.00    +0.000 A 
ATOM      9  C   UNL     1       0.186  11.162  19.864  0.00  0.00    +0.000 A 
ATOM     10  C   UNL     1      -0.232  11.355  21.182  0.00  0.00    +0.000 A 
ATOM     11  C   UNL     1       0.030  10.376  22.136  0.00  0.00    +0.000 A 
ATOM     12  C   UNL     1       0.692   9.204  21.795  0.00  0.00    +0.000 A 
BRANCH  11  13
ATOM     13  O   UNL     1      -0.351  10.527  23.436  0.00  0.00    +0.000 OA
ATOM     14  H   UNL     1      -0.069   9.743  23.937  0.00  0.00    +0.000 HD
ENDBRANCH  11  13
ENDBRANCH   4   7
ENDBRANCH   2   5
ENDBRANCH   1   2
BRANCH   1  15
ATOM     15  C   UNL     1       1.655   2.899  20.878  0.00  0.00    +0.000 C 
BRANCH  15  16
ATOM     16  N   UNL     1       3.035   2.663  20.455  0.00  0.00    +0.000 NA
ATOM     17  H   UNL     1       3.491   1.994  21.072  0.00  0.00    +0.000 HD
BRANCH  16  18
ATOM     18  C   UNL     1       3.126   2.177  19.077  0.00  0.00    +0.000 C 
BRANCH  18  19
ATOM     19  C   UNL     1       3.944   3.107  18.250  0.00  0.00    +0.000 A 
ATOM     20  C   UNL     1       3.723   3.521  16.951  0.00  0.00    +0.000 A 
ATOM     21  N   UNL     1       4.653   4.401  16.439  0.00  0.00    +0.000 NA
ATOM     22  C   UNL     1       5.554   4.664  17.360  0.00  0.00    +0.000 A 
ATOM     23  S   UNL     1       5.352   3.865  18.861  0.00  0.00    +0.000 S 
BRANCH  22  24
ATOM     24  C   UNL     1       6.715   5.620  17.111  0.00  0.00    +0.000 C 
ATOM     25  C   UNL     1       6.305   7.119  17.219  0.00  0.00    +0.000 C 
ATOM     26  C   UNL     1       7.654   7.370  17.917  0.00  0.00    +0.000 C 
ATOM     27  C   UNL     1       7.606   5.897  18.357  0.00  0.00    +0.000 C 
ENDBRANCH  22  24
ENDBRANCH  18  19
ENDBRANCH  16  18
ENDBRANCH  15  16
ENDBRANCH   1  15
TORSDOF 9
ENDMDL
MODEL 3
REMARK VINA RESULT:      -7.1      4.792      8.173
REMARK  Name = 
REMARK  9 active torsions:
REMARK  status: ('A' for Active; 'I' for Inactive)
REMARK    1  A    between atoms: C_2  and  C_18
REMARK    2  A    between atoms: N_3  and  C_4
REMARK    3  A    between atoms: C_4  and  C_5
REMARK    4  A    between atoms: C_5  and  C_6
REMARK    5  A    between atoms: C_6  and  N_7
REMARK    6  A    between atoms: N_7  and  C_8
REMARK    7  A    between atoms: C_8  and  C_9
REMARK    8  A    between atoms: C_12  and  C_13
REMARK    9  A    between atoms: C_22  and  O_23
REMARK                            x       y       z     vdW  Elec       q    Type
REMARK                         _______ _______ _______ _____ _____    ______ ____
ROOT
ATOM      1  C   UNL     1       7.552   8.249  17.473  0.00  0.00    +0.000 C 
ENDROOT
BRANCH   1   2
ATOM      2  C   UNL     1       8.493   8.826  18.526  0.00  0.00    +0.000 C 
BRANCH   2   5
ATOM      3  O   UNL     1       9.462  10.859  20.229  0.00  0.00    +0.000 OA
ATOM      4  C   UNL     1       9.507  11.018  19.016  0.00  0.00    +0.000 C 
ATOM      5  N   UNL     1       9.053  10.089  18.101  0.00  0.00    +0.000 N 
ATOM      6  H   UNL     1       9.218  10.231  17.114  0.00  0.00    +0.000 HD
BRANCH   4   7
ATOM      7  C   UNL     1      10.119  12.243  18.438  0.00  0.00    +0.000 A 
ATOM      8  C   UNL     1      11.220  12.105  17.585  0.00  0.00    +0.000 A 
ATOM      9  C   UNL     1      11.795  13.235  16.999  0.00  0.00    +0.000 A 
ATOM     10  C   UNL     1      11.278  14.502  17.272  0.00  0.00    +0.000 A 
ATOM     11  C   UNL     1      10.196  14.630  18.139  0.00  0.00    +0.000 A 
ATOM     12  C   UNL     1       9.616  13.514  18.728  0.00  0.00    +0.000 A 
BRANCH  11  13
ATOM     13  O   UNL     1       9.665  15.848  18.443  0.00  0.00    +0.000 OA
ATOM     14  H   UNL     1       8.997  16.074  17.774  0.00  0.00    +0.000 HD
ENDBRANCH  11  13
ENDBRANCH   4   7
ENDBRANCH   2   5
ENDBRANCH   1   2
BRANCH   1  15
ATOM     15  C   UNL     1       7.310   6.746  17.660  0.00  0.00    +0.000 C 
BRANCH  15  16
ATOM     16  N   UNL     1       6.720   6.049  16.517  0.00  0.00    +0.000 NA
ATOM     17  H   UNL     1       6.905   5.049  16.571  0.00  0.00    +0.000 HD
BRANCH  16  18
ATOM     18  C   UNL     1       5.275   6.259  16.415  0.00  0.00    +0.000 C 
BRANCH  18  19
ATOM     19  C   UNL     1       4.554   5.404  17.399  0.00  0.00    +0.000 A 
ATOM     20  C   UNL     1       4.439   4.029  17.419  0.00  0.00    +0.000 A 
ATOM     21  N   UNL     1       3.709   3.505  18.466  0.00  0.00    +0.000 NA
ATOM     22  C   UNL     1       3.299   4.486  19.241  0.00  0.00    +0.000 A 
ATOM     23  S   UNL     1       3.740   6.067  18.752  0.00  0.00    +0.000 S 
BRANCH  22  24
ATOM     24  C   UNL     1       2.475   4.237  20.499  0.00  0.00    +0.000 C 
ATOM     25  C   UNL     1       1.070   3.634  20.199  0.00  0.00    +0.000 C 
ATOM     26  C   UNL     1       1.257   2.748  21.443  0.00  0.00    +0.000 C 
ATOM     27  C   UNL     1       2.772   2.885  21.212  0.00  0.00    +0.000 C 
ENDBRANCH  22  24
ENDBRANCH  18  19
ENDBRANCH  16  18
ENDBRANCH  15  16
ENDBRANCH   1  15
TORSDOF 9
ENDMDL
MODEL 4
REMARK VINA RESULT:      -6.9      1.973      2.699
REMARK  Name = 
REMARK  9 active torsions:
REMARK  status: ('A' for Active; 'I' for Inactive)
REMARK    1  A    between atoms: C_2  and  C_18
REMARK    2  A    between atoms: N_3  and  C_4
REMARK    3  A    between atoms: C_4  and  C_5
REMARK    4  A    between atoms: C_5  and  C_6
REMARK    5  A    between atoms: C_6  and  N_7
REMARK    6  A    between atoms: N_7  and  C_8
REMARK    7  A    between atoms: C_8  and  C_9
REMARK    8  A    between atoms: C_12  and  C_13
REMARK    9  A    between atoms: C_22  and  O_23
REMARK                            x       y       z     vdW  Elec       q    Type
REMARK                         _______ _______ _______ _____ _____    ______ ____
ROOT
ATOM      1  C   UNL     1       1.535   5.152  20.457  0.00  0.00    +0.000 C 
ENDROOT
BRANCH   1   2
ATOM      2  C   UNL     1       2.228   6.503  20.304  0.00  0.00    +0.000 C 
BRANCH   2   5
ATOM      3  O   UNL     1       1.505   9.006  19.216  0.00  0.00    +0.000 OA
ATOM      4  C   UNL     1       1.196   8.740  20.371  0.00  0.00    +0.000 C 
ATOM      5  N   UNL     1       1.509   7.549  20.995  0.00  0.00    +0.000 N 
ATOM      6  H   UNL     1       1.132   7.345  21.911  0.00  0.00    +0.000 HD
BRANCH   4   7
ATOM      7  C   UNL     1       0.396   9.698  21.178  0.00  0.00    +0.000 A 
ATOM      8  C   UNL     1      -0.095   9.282  22.421  0.00  0.00    +0.000 A 
ATOM      9  C   UNL     1      -0.819  10.171  23.219  0.00  0.00    +0.000 A 
ATOM     10  C   UNL     1      -1.063  11.470  22.770  0.00  0.00    +0.000 A 
ATOM     11  C   UNL     1      -0.590  11.867  21.523  0.00  0.00    +0.000 A 
ATOM     12  C   UNL     1       0.133  10.992  20.721  0.00  0.00    +0.000 A 
BRANCH  11  13
ATOM     13  O   UNL     1      -0.813  13.122  21.040  0.00  0.00    +0.000 OA
ATOM     14  H   UNL     1      -0.179  13.299  20.324  0.00  0.00    +0.000 HD
ENDBRANCH  11  13
ENDBRANCH   4   7
ENDBRANCH   2   5
ENDBRANCH   1   2
BRANCH   1  15
ATOM     15  C   UNL     1       2.312   4.192  21.365  0.00  0.00    +0.000 C 
BRANCH  15  16
ATOM     16  N   UNL     1       2.381   2.803  20.912  0.00  0.00    +0.000 NA
ATOM     17  H   UNL     1       1.711   2.634  20.164  0.00  0.00    +0.000 HD
BRANCH  16  18
ATOM     18  C   UNL     1       3.718   2.429  20.446  0.00  0.00    +0.000 C 
BRANCH  18  19
ATOM     19  C   UNL     1       3.963   2.972  19.081  0.00  0.00    +0.000 A 
ATOM     20  C   UNL     1       3.256   2.730  17.920  0.00  0.00    +0.000 A 
ATOM     21  N   UNL     1       3.713   3.382  16.794  0.00  0.00    +0.000 NA
ATOM     22  C   UNL     1       4.745   4.131  17.117  0.00  0.00    +0.000 A 
ATOM     23  S   UNL     1       5.232   4.077  18.758  0.00  0.00    +0.000 S 
BRANCH  22  24
ATOM     24  C   UNL     1       5.473   4.996  16.094  0.00  0.00    +0.000 C 
ATOM     25  C   UNL     1       7.005   4.716  16.038  0.00  0.00    +0.000 C 
ATOM     26  C   UNL     1       6.912   4.874  14.511  0.00  0.00    +0.000 C 
ATOM     27  C   UNL     1       5.441   4.444  14.638  0.00  0.00    +0.000 C 
ENDBRANCH  22  24
ENDBRANCH  18  19
ENDBRANCH  16  18
ENDBRANCH  15  16
ENDBRANCH   1  15
TORSDOF 9
ENDMDL
MODEL 5
REMARK VINA RESULT:      -6.9      1.915      2.398
REMARK  Name = 
REMARK  9 active torsions:
REMARK  status: ('A' for Active; 'I' for Inactive)
REMARK    1  A    between atoms: C_2  and  C_18
REMARK    2  A    between atoms: N_3  and  C_4
REMARK    3  A    between atoms: C_4  and  C_5
REMARK    4  A    between atoms: C_5  and  C_6
REMARK    5  A    between atoms: C_6  and  N_7
REMARK    6  A    between atoms: N_7  and  C_8
REMARK    7  A    between atoms: C_8  and  C_9
REMARK    8  A    between atoms: C_12  and  C_13
REMARK    9  A    between atoms: C_22  and  O_23
REMARK                            x       y       z     vdW  Elec       q    Type
REMARK                         _______ _______ _______ _____ _____    ______ ____
ROOT
ATOM      1  C   UNL     1       2.146   3.365  21.975  0.00  0.00    +0.000 C 
ENDROOT
BRANCH   1   2
ATOM      2  C   UNL     1       3.020   4.203  21.046  0.00  0.00    +0.000 C 
BRANCH   2   5
ATOM      3  O   UNL     1       4.037   6.148  19.270  0.00  0.00    +0.000 OA
ATOM      4  C   UNL     1       2.972   6.351  19.838  0.00  0.00    +0.000 C 
ATOM      5  N   UNL     1       2.395   5.468  20.729  0.00  0.00    +0.000 N 
ATOM      6  H   UNL     1       1.463   5.641  21.081  0.00  0.00    +0.000 HD
BRANCH   4   7
ATOM      7  C   UNL     1       2.187   7.582  19.555  0.00  0.00    +0.000 A 
ATOM      8  C   UNL     1       2.186   8.092  18.252  0.00  0.00    +0.000 A 
ATOM      9  C   UNL     1       1.431   9.226  17.947  0.00  0.00    +0.000 A 
ATOM     10  C   UNL     1       0.687   9.858  18.946  0.00  0.00    +0.000 A 
ATOM     11  C   UNL     1       0.713   9.355  20.244  0.00  0.00    +0.000 A 
ATOM     12  C   UNL     1       1.460   8.227  20.559  0.00  0.00    +0.000 A 
BRANCH  11  13
ATOM     13  O   UNL     1       0.011   9.945  21.252  0.00  0.00    +0.000 OA
ATOM     14  H   UNL     1      -0.935   9.928  21.027  0.00  0.00    +0.000 HD
ENDBRANCH  11  13
ENDBRANCH   4   7
ENDBRANCH   2   5
ENDBRANCH   1   2
BRANCH   1  15
ATOM     15  C   UNL     1       1.198   2.435  21.209  0.00  0.00    +0.000 C 
BRANCH  15  16
ATOM     16  N   UNL     1       0.546   3.015  20.035  0.00  0.00    +0.000 NA
ATOM     17  H   UNL     1       0.845   3.979  19.897  0.00  0.00    +0.000 HD
BRANCH  16  18
ATOM     18  C   UNL     1       0.812   2.255  18.812  0.00  0.00    +0.000 C 
BRANCH  18  19
ATOM     19  C   UNL     1       1.956   2.851  18.067  0.00  0.00    +0.000 A 
ATOM     20  C   UNL     1       2.003   4.046  17.377  0.00  0.00    +0.000 A 
ATOM     21  N   UNL     1       3.211   4.347  16.785  0.00  0.00    +0.000 NA
ATOM     22  C   UNL     1       4.074   3.391  17.052  0.00  0.00    +0.000 A 
ATOM     23  S   UNL     1       3.487   2.087  17.994  0.00  0.00    +0.000 S 
BRANCH  22  24
ATOM     24  C   UNL     1       5.514   3.433  16.551  0.00  0.00    +0.000 C 
ATOM     25  C   UNL     1       5.666   4.182  15.194  0.00  0.00    +0.000 C 
ATOM     26  C   UNL     1       6.974   4.778  15.743  0.00  0.00    +0.000 C 
ATOM     27  C   UNL     1       6.375   4.585  17.147  0.00  0.00    +0.000 C 
ENDBRANCH  22  24
ENDBRANCH  18  19
ENDBRANCH  16  18
ENDBRANCH  15  16
ENDBRANCH   1  15
TORSDOF 9
ENDMDL
MODEL 6
REMARK VINA RESULT:      -6.9      1.772      2.473
REMARK  Name = 
REMARK  9 active torsions:
REMARK  status: ('A' for Active; 'I' for Inactive)
REMARK    1  A    between atoms: C_2  and  C_18
REMARK    2  A    between atoms: N_3  and  C_4
REMARK    3  A    between atoms: C_4  and  C_5
REMARK    4  A    between atoms: C_5  and  C_6
REMARK    5  A    between atoms: C_6  and  N_7
REMARK    6  A    between atoms: N_7  and  C_8
REMARK    7  A    between atoms: C_8  and  C_9
REMARK    8  A    between atoms: C_12  and  C_13
REMARK    9  A    between atoms: C_22  and  O_23
REMARK                            x       y       z     vdW  Elec       q    Type
REMARK                         _______ _______ _______ _____ _____    ______ ____
ROOT
ATOM      1  C   UNL     1       1.769   1.807  18.665  0.00  0.00    +0.000 C 
ENDROOT
BRANCH   1   2
ATOM      2  C   UNL     1       1.570   2.666  19.910  0.00  0.00    +0.000 C 
BRANCH   2   5
ATOM      3  O   UNL     1       2.516   4.790  21.512  0.00  0.00    +0.000 OA
ATOM      4  C   UNL     1       2.001   5.037  20.429  0.00  0.00    +0.000 C 
ATOM      5  N   UNL     1       1.501   4.072  19.578  0.00  0.00    +0.000 N 
ATOM      6  H   UNL     1       1.188   4.329  18.652  0.00  0.00    +0.000 HD
BRANCH   4   7
ATOM      7  C   UNL     1       1.923   6.436  19.931  0.00  0.00    +0.000 A 
ATOM      8  C   UNL     1       2.395   6.717  18.644  0.00  0.00    +0.000 A 
ATOM      9  C   UNL     1       2.304   8.014  18.135  0.00  0.00    +0.000 A 
ATOM     10  C   UNL     1       1.752   9.032  18.914  0.00  0.00    +0.000 A 
ATOM     11  C   UNL     1       1.306   8.746  20.202  0.00  0.00    +0.000 A 
ATOM     12  C   UNL     1       1.391   7.460  20.719  0.00  0.00    +0.000 A 
BRANCH  11  13
ATOM     13  O   UNL     1       0.770   9.710  21.002  0.00  0.00    +0.000 OA
ATOM     14  H   UNL     1       1.267   9.736  21.837  0.00  0.00    +0.000 HD
ENDBRANCH  11  13
ENDBRANCH   4   7
ENDBRANCH   2   5
ENDBRANCH   1   2
BRANCH   1  15
ATOM     15  C   UNL     1       3.248   1.638  18.298  0.00  0.00    +0.000 C 
BRANCH  15  16
ATOM     16  N   UNL     1       4.029   2.872  18.216  0.00  0.00    +0.000 NA
ATOM     17  H   UNL     1       5.027   2.670  18.261  0.00  0.00    +0.000 HD
BRANCH  16  18
ATOM     18  C   UNL     1       3.753   3.633  16.996  0.00  0.00    +0.000 C 
BRANCH  18  19
ATOM     19  C   UNL     1       4.842   4.616  16.738  0.00  0.00    +0.000 A 
ATOM     20  C   UNL     1       5.143   5.275  15.562  0.00  0.00    +0.000 A 
ATOM     21  N   UNL     1       6.214   6.142  15.621  0.00  0.00    +0.000 NA
ATOM     22  C   UNL     1       6.697   6.151  16.844  0.00  0.00    +0.000 A 
ATOM     23  S   UNL     1       5.921   5.118  17.969  0.00  0.00    +0.000 S 
BRANCH  22  24
ATOM     24  C   UNL     1       7.882   7.023  17.243  0.00  0.00    +0.000 C 
ATOM     25  C   UNL     1       7.505   8.526  17.408  0.00  0.00    +0.000 C 
ATOM     26  C   UNL     1       8.447   8.562  18.624  0.00  0.00    +0.000 C 
ATOM     27  C   UNL     1       8.180   7.054  18.771  0.00  0.00    +0.000 C 
ENDBRANCH  22  24
ENDBRANCH  18  19
ENDBRANCH  16  18
ENDBRANCH  15  16
ENDBRANCH   1  15
TORSDOF 9
ENDMDL
MODEL 7
REMARK VINA RESULT:      -6.8      2.942      7.460
REMARK  Name = 
REMARK  9 active torsions:
REMARK  status: ('A' for Active; 'I' for Inactive)
REMARK    1  A    between atoms: C_2  and  C_18
REMARK    2  A    between atoms: N_3  and  C_4
REMARK    3  A    between atoms: C_4  and  C_5
REMARK    4  A    between atoms: C_5  and  C_6
REMARK    5  A    between atoms: C_6  and  N_7
REMARK    6  A    between atoms: N_7  and  C_8
REMARK    7  A    between atoms: C_8  and  C_9
REMARK    8  A    between atoms: C_12  and  C_13
REMARK    9  A    between atoms: C_22  and  O_23
REMARK                            x       y       z     vdW  Elec       q    Type
REMARK                         _______ _______ _______ _____ _____    ______ ____
ROOT
ATOM      1  C   UNL     1       1.508   3.687  20.936  0.00  0.00    +0.000 C 
ENDROOT
BRANCH   1   2
ATOM      2  C   UNL     1       2.636   2.950  20.221  0.00  0.00    +0.000 C 
BRANCH   2   5
ATOM      3  O   UNL     1       3.728   3.114  17.622  0.00  0.00    +0.000 OA
ATOM      4  C   UNL     1       4.139   3.867  18.495  0.00  0.00    +0.000 C 
ATOM      5  N   UNL     1       3.677   3.860  19.796  0.00  0.00    +0.000 N 
ATOM      6  H   UNL     1       3.977   4.578  20.442  0.00  0.00    +0.000 HD
BRANCH   4   7
ATOM      7  C   UNL     1       5.163   4.898  18.182  0.00  0.00    +0.000 A 
ATOM      8  C   UNL     1       4.953   5.741  17.084  0.00  0.00    +0.000 A 
ATOM      9  C   UNL     1       5.879   6.742  16.786  0.00  0.00    +0.000 A 
ATOM     10  C   UNL     1       7.019   6.896  17.576  0.00  0.00    +0.000 A 
ATOM     11  C   UNL     1       7.229   6.039  18.653  0.00  0.00    +0.000 A 
ATOM     12  C   UNL     1       6.315   5.039  18.960  0.00  0.00    +0.000 A 
BRANCH  11  13
ATOM     13  O   UNL     1       8.333   6.146  19.446  0.00  0.00    +0.000 OA
ATOM     14  H   UNL     1       9.112   6.284  18.881  0.00  0.00    +0.000 HD
ENDBRANCH  11  13
ENDBRANCH   4   7
ENDBRANCH   2   5
ENDBRANCH   1   2
BRANCH   1  15
ATOM     15  C   UNL     1       1.219   5.061  20.319  0.00  0.00    +0.000 C 
BRANCH  15  16
ATOM     16  N   UNL     1       2.011   6.174  20.844  0.00  0.00    +0.000 NA
ATOM     17  H   UNL     1       2.995   5.918  20.905  0.00  0.00    +0.000 HD
BRANCH  16  18
ATOM     18  C   UNL     1       1.885   7.385  20.031  0.00  0.00    +0.000 C 
BRANCH  18  19
ATOM     19  C   UNL     1       1.337   8.504  20.847  0.00  0.00    +0.000 A 
ATOM     20  C   UNL     1       1.523   8.759  22.191  0.00  0.00    +0.000 A 
ATOM     21  N   UNL     1       0.892   9.884  22.679  0.00  0.00    +0.000 NA
ATOM     22  C   UNL     1       0.255  10.484  21.696  0.00  0.00    +0.000 A 
ATOM     23  S   UNL     1       0.357   9.731  20.161  0.00  0.00    +0.000 S 
BRANCH  22  24
ATOM     24  C   UNL     1      -0.533  11.772  21.906  0.00  0.00    +0.000 C 
ATOM     25  C   UNL     1      -1.653  11.982  20.842  0.00  0.00    +0.000 C 
ATOM     26  C   UNL     1      -2.539  12.522  21.978  0.00  0.00    +0.000 C 
ATOM     27  C   UNL     1      -1.696  11.661  22.934  0.00  0.00    +0.000 C 
ENDBRANCH  22  24
ENDBRANCH  18  19
ENDBRANCH  16  18
ENDBRANCH  15  16
ENDBRANCH   1  15
TORSDOF 9
ENDMDL
MODEL 8
REMARK VINA RESULT:      -6.8      4.721      7.581
REMARK  Name = 
REMARK  9 active torsions:
REMARK  status: ('A' for Active; 'I' for Inactive)
REMARK    1  A    between atoms: C_2  and  C_18
REMARK    2  A    between atoms: N_3  and  C_4
REMARK    3  A    between atoms: C_4  and  C_5
REMARK    4  A    between atoms: C_5  and  C_6
REMARK    5  A    between atoms: C_6  and  N_7
REMARK    6  A    between atoms: N_7  and  C_8
REMARK    7  A    between atoms: C_8  and  C_9
REMARK    8  A    between atoms: C_12  and  C_13
REMARK    9  A    between atoms: C_22  and  O_23
REMARK                            x       y       z     vdW  Elec       q    Type
REMARK                         _______ _______ _______ _____ _____    ______ ____
ROOT
ATOM      1  C   UNL     1       7.556   5.823  17.801  0.00  0.00    +0.000 C 
ENDROOT
BRANCH   1   2
ATOM      2  C   UNL     1       6.581   4.969  16.996  0.00  0.00    +0.000 C 
BRANCH   2   5
ATOM      3  O   UNL     1       4.047   6.215  17.037  0.00  0.00    +0.000 OA
ATOM      4  C   UNL     1       4.246   5.233  17.741  0.00  0.00    +0.000 C 
ATOM      5  N   UNL     1       5.450   4.559  17.798  0.00  0.00    +0.000 N 
ATOM      6  H   UNL     1       5.519   3.692  18.314  0.00  0.00    +0.000 HD
BRANCH   4   7
ATOM      7  C   UNL     1       3.151   4.662  18.568  0.00  0.00    +0.000 A 
ATOM      8  C   UNL     1       2.707   5.381  19.684  0.00  0.00    +0.000 A 
ATOM      9  C   UNL     1       1.656   4.887  20.460  0.00  0.00    +0.000 A 
ATOM     10  C   UNL     1       1.056   3.672  20.128  0.00  0.00    +0.000 A 
ATOM     11  C   UNL     1       1.519   2.954  19.030  0.00  0.00    +0.000 A 
ATOM     12  C   UNL     1       2.563   3.434  18.250  0.00  0.00    +0.000 A 
BRANCH  11  13
ATOM     13  O   UNL     1       0.970   1.757  18.675  0.00  0.00    +0.000 OA
ATOM     14  H   UNL     1       0.126   1.649  19.145  0.00  0.00    +0.000 HD
ENDBRANCH  11  13
ENDBRANCH   4   7
ENDBRANCH   2   5
ENDBRANCH   1   2
BRANCH   1  15
ATOM     15  C   UNL     1       7.289   7.325  17.646  0.00  0.00    +0.000 C 
BRANCH  15  16
ATOM     16  N   UNL     1       8.183   8.212  18.390  0.00  0.00    +0.000 NA
ATOM     17  H   UNL     1       9.130   7.837  18.405  0.00  0.00    +0.000 HD
BRANCH  16  18
ATOM     18  C   UNL     1       8.218   9.567  17.839  0.00  0.00    +0.000 C 
BRANCH  18  19
ATOM     19  C   UNL     1       9.128  10.432  18.640  0.00  0.00    +0.000 A 
ATOM     20  C   UNL     1       9.287  10.474  20.011  0.00  0.00    +0.000 A 
ATOM     21  N   UNL     1      10.218  11.379  20.477  0.00  0.00    +0.000 NA
ATOM     22  C   UNL     1      10.773  11.994  19.455  0.00  0.00    +0.000 A 
ATOM     23  S   UNL     1      10.201  11.546  17.904  0.00  0.00    +0.000 S 
BRANCH  22  24
ATOM     24  C   UNL     1      11.859  13.050  19.634  0.00  0.00    +0.000 C 
ATOM     25  C   UNL     1      12.224  13.781  18.308  0.00  0.00    +0.000 C 
ATOM     26  C   UNL     1      12.332  15.078  19.128  0.00  0.00    +0.000 C 
ATOM     27  C   UNL     1      11.342  14.437  20.117  0.00  0.00    +0.000 C 
ENDBRANCH  22  24
ENDBRANCH  18  19
ENDBRANCH  16  18
ENDBRANCH  15  16
ENDBRANCH   1  15
TORSDOF 9
ENDMDL
MODEL 9
REMARK VINA RESULT:      -6.8      2.883      7.104
REMARK  Name = 
REMARK  9 active torsions:
REMARK  status: ('A' for Active; 'I' for Inactive)
REMARK    1  A    between atoms: C_2  and  C_18
REMARK    2  A    between atoms: N_3  and  C_4
REMARK    3  A    between atoms: C_4  and  C_5
REMARK    4  A    between atoms: C_5  and  C_6
REMARK    5  A    between atoms: C_6  and  N_7
REMARK    6  A    between atoms: N_7  and  C_8
REMARK    7  A    between atoms: C_8  and  C_9
REMARK    8  A    between atoms: C_12  and  C_13
REMARK    9  A    between atoms: C_22  and  O_23
REMARK                            x       y       z     vdW  Elec       q    Type
REMARK                         _______ _______ _______ _____ _____    ______ ____
ROOT
ATOM      1  C   UNL     1       5.139   6.296  15.902  0.00  0.00    +0.000 C 
ENDROOT
BRANCH   1   2
ATOM      2  C   UNL     1       5.307   4.801  16.159  0.00  0.00    +0.000 C 
BRANCH   2   5
ATOM      3  O   UNL     1       5.503   3.731  18.764  0.00  0.00    +0.000 OA
ATOM      4  C   UNL     1       4.410   3.775  18.212  0.00  0.00    +0.000 C 
ATOM      5  N   UNL     1       4.212   4.272  16.940  0.00  0.00    +0.000 N 
ATOM      6  H   UNL     1       3.273   4.383  16.582  0.00  0.00    +0.000 HD
BRANCH   4   7
ATOM      7  C   UNL     1       3.186   3.325  18.925  0.00  0.00    +0.000 A 
ATOM      8  C   UNL     1       2.088   2.899  18.169  0.00  0.00    +0.000 A 
ATOM      9  C   UNL     1       0.936   2.438  18.809  0.00  0.00    +0.000 A 
ATOM     10  C   UNL     1       0.876   2.412  20.204  0.00  0.00    +0.000 A 
ATOM     11  C   UNL     1       1.965   2.859  20.946  0.00  0.00    +0.000 A 
ATOM     12  C   UNL     1       3.117   3.320  20.321  0.00  0.00    +0.000 A 
BRANCH  11  13
ATOM     13  O   UNL     1       1.948   2.862  22.309  0.00  0.00    +0.000 OA
ATOM     14  H   UNL     1       2.786   2.492  22.634  0.00  0.00    +0.000 HD
ENDBRANCH  11  13
ENDBRANCH   4   7
ENDBRANCH   2   5
ENDBRANCH   1   2
BRANCH   1  15
ATOM     15  C   UNL     1       4.975   7.100  17.197  0.00  0.00    +0.000 C 
BRANCH  15  16
ATOM     16  N   UNL     1       3.658   7.029  17.829  0.00  0.00    +0.000 NA
ATOM     17  H   UNL     1       3.747   6.914  18.836  0.00  0.00    +0.000 HD
BRANCH  16  18
ATOM     18  C   UNL     1       2.840   8.213  17.557  0.00  0.00    +0.000 C 
BRANCH  18  19
ATOM     19  C   UNL     1       1.985   8.536  18.733  0.00  0.00    +0.000 A 
ATOM     20  C   UNL     1       1.946   7.911  19.964  0.00  0.00    +0.000 A 
ATOM     21  N   UNL     1       1.051   8.437  20.872  0.00  0.00    +0.000 NA
ATOM     22  C   UNL     1       0.440   9.468  20.331  0.00  0.00    +0.000 A 
ATOM     23  S   UNL     1       0.880   9.845  18.720  0.00  0.00    +0.000 S 
BRANCH  22  24
ATOM     24  C   UNL     1      -0.604  10.282  21.087  0.00  0.00    +0.000 C 
ATOM     25  C   UNL     1      -0.576  10.033  22.625  0.00  0.00    +0.000 C 
ATOM     26  C   UNL     1      -0.832  11.539  22.808  0.00  0.00    +0.000 C 
ATOM     27  C   UNL     1      -0.167  11.736  21.434  0.00  0.00    +0.000 C 
ENDBRANCH  22  24
ENDBRANCH  18  19
ENDBRANCH  16  18
ENDBRANCH  15  16
ENDBRANCH   1  15
TORSDOF 9
ENDMDL
