MODEL 1
REMARK VINA RESULT:      -6.1      0.000      0.000
REMARK  Name = 
REMARK  8 active torsions:
REMARK  status: ('A' for Active; 'I' for Inactive)
REMARK    1  A    between atoms: C_1  and  O_2
REMARK    2  A    between atoms: O_2  and  C_3
REMARK    3  A    between atoms: C_6  and  C_7
REMARK    4  A    between atoms: C_7  and  N_8
REMARK    5  A    between atoms: N_8  and  C_9
REMARK    6  A    between atoms: C_9  and  C_10
REMARK    7  A    between atoms: C_13  and  O_14
REMARK    8  A    between atoms: O_14  and  C_15
REMARK                            x       y       z     vdW  Elec       q    Type
REMARK                         _______ _______ _______ _____ _____    ______ ____
ROOT
ATOM      1  N   UNL     1       3.814   3.095  17.858  0.00  0.00    +0.000 NA
ATOM      2  H   UNL     1       3.710   2.081  17.852  0.00  0.00    +0.000 HD
ENDROOT
BRANCH   1   3
ATOM      3  C   UNL     1       2.506   3.711  17.644  0.00  0.00    +0.000 C 
BRANCH   3   7
ATOM      4  C   UNL     1       1.932   7.228  20.104  0.00  0.00    +0.000 A 
ATOM      5  C   UNL     1       2.374   7.351  18.787  0.00  0.00    +0.000 A 
ATOM      6  C   UNL     1       2.561   6.218  17.991  0.00  0.00    +0.000 A 
ATOM      7  C   UNL     1       2.326   4.938  18.509  0.00  0.00    +0.000 A 
ATOM      8  C   UNL     1       1.903   4.820  19.841  0.00  0.00    +0.000 A 
ATOM      9  C   UNL     1       1.707   5.959  20.633  0.00  0.00    +0.000 A 
BRANCH   4  11
ATOM     10  C   UNL     1       0.657   8.503  21.634  0.00  0.00    +0.000 C 
ATOM     11  O   UNL     1       1.794   8.407  20.785  0.00  0.00    +0.000 OA
ENDBRANCH   4  11
ENDBRANCH   3   7
ENDBRANCH   1   3
BRANCH   1  12
ATOM     12  C   UNL     1       4.760   3.487  16.816  0.00  0.00    +0.000 C 
BRANCH  12  13
ATOM     13  C   UNL     1       5.704   4.557  17.315  0.00  0.00    +0.000 A 
ATOM     14  C   UNL     1       6.295   5.465  16.427  0.00  0.00    +0.000 A 
ATOM     15  C   UNL     1       7.177   6.440  16.897  0.00  0.00    +0.000 A 
ATOM     16  C   UNL     1       7.467   6.542  18.260  0.00  0.00    +0.000 A 
ATOM     17  C   UNL     1       6.883   5.644  19.151  0.00  0.00    +0.000 A 
ATOM     18  C   UNL     1       6.005   4.661  18.682  0.00  0.00    +0.000 A 
BRANCH  16  19
ATOM     19  O   UNL     1       8.366   7.519  18.590  0.00  0.00    +0.000 OA
ATOM     20  C   UNL     1       8.174   8.779  17.956  0.00  0.00    +0.000 C 
ENDBRANCH  16  19
ENDBRANCH  12  13
ENDBRANCH   1  12
TORSDOF 6
ENDMDL
MODEL 2
REMARK VINA RESULT:      -6.1      0.964      1.151
REMARK  Name = 
REMARK  8 active torsions:
REMARK  status: ('A' for Active; 'I' for Inactive)
REMARK    1  A    between atoms: C_1  and  O_2
REMARK    2  A    between atoms: O_2  and  C_3
REMARK    3  A    between atoms: C_6  and  C_7
REMARK    4  A    between atoms: C_7  and  N_8
REMARK    5  A    between atoms: N_8  and  C_9
REMARK    6  A    between atoms: C_9  and  C_10
REMARK    7  A    between atoms: C_13  and  O_14
REMARK    8  A    between atoms: O_14  and  C_15
REMARK                            x       y       z     vdW  Elec       q    Type
REMARK                         _______ _______ _______ _____ _____    ______ ____
ROOT
ATOM      1  N   UNL     1       2.654   2.965  17.081  0.00  0.00    +0.000 NA
ATOM      2  H   UNL     1       2.706   3.827  16.539  0.00  0.00    +0.000 HD
ENDROOT
BRANCH   1   3
ATOM      3  C   UNL     1       1.636   3.112  18.118  0.00  0.00    +0.000 C 
BRANCH   3   7
ATOM      4  C   UNL     1       1.887   6.959  20.091  0.00  0.00    +0.000 A 
ATOM      5  C   UNL     1       2.171   6.842  18.730  0.00  0.00    +0.000 A 
ATOM      6  C   UNL     1       2.091   5.602  18.091  0.00  0.00    +0.000 A 
ATOM      7  C   UNL     1       1.744   4.451  18.811  0.00  0.00    +0.000 A 
ATOM      8  C   UNL     1       1.481   4.572  20.183  0.00  0.00    +0.000 A 
ATOM      9  C   UNL     1       1.552   5.818  20.819  0.00  0.00    +0.000 A 
BRANCH   4  11
ATOM     10  C   UNL     1       0.877   8.708  21.321  0.00  0.00    +0.000 C 
ATOM     11  O   UNL     1       2.006   8.221  20.604  0.00  0.00    +0.000 OA
ENDBRANCH   4  11
ENDBRANCH   3   7
ENDBRANCH   1   3
BRANCH   1  12
ATOM     12  C   UNL     1       3.965   2.684  17.662  0.00  0.00    +0.000 C 
BRANCH  12  13
ATOM     13  C   UNL     1       4.928   3.818  17.402  0.00  0.00    +0.000 A 
ATOM     14  C   UNL     1       5.153   4.288  16.102  0.00  0.00    +0.000 A 
ATOM     15  C   UNL     1       6.056   5.328  15.872  0.00  0.00    +0.000 A 
ATOM     16  C   UNL     1       6.733   5.932  16.935  0.00  0.00    +0.000 A 
ATOM     17  C   UNL     1       6.515   5.472  18.232  0.00  0.00    +0.000 A 
ATOM     18  C   UNL     1       5.616   4.425  18.465  0.00  0.00    +0.000 A 
BRANCH  16  19
ATOM     19  O   UNL     1       7.610   6.918  16.577  0.00  0.00    +0.000 OA
ATOM     20  C   UNL     1       7.640   8.060  17.426  0.00  0.00    +0.000 C 
ENDBRANCH  16  19
ENDBRANCH  12  13
ENDBRANCH   1  12
TORSDOF 6
ENDMDL
MODEL 3
REMARK VINA RESULT:      -6.1      1.284      2.023
REMARK  Name = 
REMARK  8 active torsions:
REMARK  status: ('A' for Active; 'I' for Inactive)
REMARK    1  A    between atoms: C_1  and  O_2
REMARK    2  A    between atoms: O_2  and  C_3
REMARK    3  A    between atoms: C_6  and  C_7
REMARK    4  A    between atoms: C_7  and  N_8
REMARK    5  A    between atoms: N_8  and  C_9
REMARK    6  A    between atoms: C_9  and  C_10
REMARK    7  A    between atoms: C_13  and  O_14
REMARK    8  A    between atoms: O_14  and  C_15
REMARK                            x       y       z     vdW  Elec       q    Type
REMARK                         _______ _______ _______ _____ _____    ______ ____
ROOT
ATOM      1  N   UNL     1       2.423   2.004  17.755  0.00  0.00    +0.000 NA
ATOM      2  H   UNL     1       2.529   2.534  16.891  0.00  0.00    +0.000 HD
ENDROOT
BRANCH   1   3
ATOM      3  C   UNL     1       1.286   2.535  18.505  0.00  0.00    +0.000 C 
BRANCH   3   7
ATOM      4  C   UNL     1       2.032   6.621  19.730  0.00  0.00    +0.000 A 
ATOM      5  C   UNL     1       1.774   5.633  20.681  0.00  0.00    +0.000 A 
ATOM      6  C   UNL     1       1.533   4.314  20.289  0.00  0.00    +0.000 A 
ATOM      7  C   UNL     1       1.526   3.965  18.932  0.00  0.00    +0.000 A 
ATOM      8  C   UNL     1       1.763   4.967  17.980  0.00  0.00    +0.000 A 
ATOM      9  C   UNL     1       2.014   6.287  18.377  0.00  0.00    +0.000 A 
BRANCH   4  11
ATOM     10  C   UNL     1       1.092   8.700  20.349  0.00  0.00    +0.000 C 
ATOM     11  O   UNL     1       2.245   7.874  20.235  0.00  0.00    +0.000 OA
ENDBRANCH   4  11
ENDBRANCH   3   7
ENDBRANCH   1   3
BRANCH   1  12
ATOM     12  C   UNL     1       3.658   2.097  18.530  0.00  0.00    +0.000 C 
BRANCH  12  13
ATOM     13  C   UNL     1       4.516   3.244  18.048  0.00  0.00    +0.000 A 
ATOM     14  C   UNL     1       4.640   3.524  16.682  0.00  0.00    +0.000 A 
ATOM     15  C   UNL     1       5.448   4.577  16.246  0.00  0.00    +0.000 A 
ATOM     16  C   UNL     1       6.126   5.382  17.165  0.00  0.00    +0.000 A 
ATOM     17  C   UNL     1       6.007   5.111  18.527  0.00  0.00    +0.000 A 
ATOM     18  C   UNL     1       5.205   4.053  18.966  0.00  0.00    +0.000 A 
BRANCH  16  19
ATOM     19  O   UNL     1       6.905   6.361  16.613  0.00  0.00    +0.000 OA
ATOM     20  C   UNL     1       7.490   7.278  17.530  0.00  0.00    +0.000 C 
ENDBRANCH  16  19
ENDBRANCH  12  13
ENDBRANCH   1  12
TORSDOF 6
ENDMDL
MODEL 4
REMARK VINA RESULT:      -6.0      0.927      1.472
REMARK  Name = 
REMARK  8 active torsions:
REMARK  status: ('A' for Active; 'I' for Inactive)
REMARK    1  A    between atoms: C_1  and  O_2
REMARK    2  A    between atoms: O_2  and  C_3
REMARK    3  A    between atoms: C_6  and  C_7
REMARK    4  A    between atoms: C_7  and  N_8
REMARK    5  A    between atoms: N_8  and  C_9
REMARK    6  A    between atoms: C_9  and  C_10
REMARK    7  A    between atoms: C_13  and  O_14
REMARK    8  A    between atoms: O_14  and  C_15
REMARK                            x       y       z     vdW  Elec       q    Type
REMARK                         _______ _______ _______ _____ _____    ______ ____
ROOT
ATOM      1  N   UNL     1       2.998   2.982  17.224  0.00  0.00    +0.000 NA
ATOM      2  H   UNL     1       3.074   3.733  16.539  0.00  0.00    +0.000 HD
ENDROOT
BRANCH   1   3
ATOM      3  C   UNL     1       1.809   3.202  18.045  0.00  0.00    +0.000 C 
BRANCH   3   7
ATOM      4  C   UNL     1       1.915   7.032  20.062  0.00  0.00    +0.000 A 
ATOM      5  C   UNL     1       2.183   6.945  18.696  0.00  0.00    +0.000 A 
ATOM      6  C   UNL     1       2.150   5.710  18.043  0.00  0.00    +0.000 A 
ATOM      7  C   UNL     1       1.867   4.536  18.753  0.00  0.00    +0.000 A 
ATOM      8  C   UNL     1       1.620   4.628  20.131  0.00  0.00    +0.000 A 
ATOM      9  C   UNL     1       1.644   5.869  20.780  0.00  0.00    +0.000 A 
BRANCH   4  11
ATOM     10  C   UNL     1       0.984   9.203  20.151  0.00  0.00    +0.000 C 
ATOM     11  O   UNL     1       1.984   8.292  20.590  0.00  0.00    +0.000 OA
ENDBRANCH   4  11
ENDBRANCH   3   7
ENDBRANCH   1   3
BRANCH   1  12
ATOM     12  C   UNL     1       4.209   2.955  18.042  0.00  0.00    +0.000 C 
BRANCH  12  13
ATOM     13  C   UNL     1       5.158   4.062  17.644  0.00  0.00    +0.000 A 
ATOM     14  C   UNL     1       5.972   4.686  18.596  0.00  0.00    +0.000 A 
ATOM     15  C   UNL     1       6.836   5.718  18.220  0.00  0.00    +0.000 A 
ATOM     16  C   UNL     1       6.918   6.128  16.888  0.00  0.00    +0.000 A 
ATOM     17  C   UNL     1       6.111   5.511  15.932  0.00  0.00    +0.000 A 
ATOM     18  C   UNL     1       5.240   4.483  16.308  0.00  0.00    +0.000 A 
BRANCH  16  19
ATOM     19  O   UNL     1       7.778   7.165  16.652  0.00  0.00    +0.000 OA
ATOM     20  C   UNL     1       7.804   8.186  17.643  0.00  0.00    +0.000 C 
ENDBRANCH  16  19
ENDBRANCH  12  13
ENDBRANCH   1  12
TORSDOF 6
ENDMDL
MODEL 5
REMARK VINA RESULT:      -6.0      1.063      5.346
REMARK  Name = 
REMARK  8 active torsions:
REMARK  status: ('A' for Active; 'I' for Inactive)
REMARK    1  A    between atoms: C_1  and  O_2
REMARK    2  A    between atoms: O_2  and  C_3
REMARK    3  A    between atoms: C_6  and  C_7
REMARK    4  A    between atoms: C_7  and  N_8
REMARK    5  A    between atoms: N_8  and  C_9
REMARK    6  A    between atoms: C_9  and  C_10
REMARK    7  A    between atoms: C_13  and  O_14
REMARK    8  A    between atoms: O_14  and  C_15
REMARK                            x       y       z     vdW  Elec       q    Type
REMARK                         _______ _______ _______ _____ _____    ______ ____
ROOT
ATOM      1  N   UNL     1       2.647   3.095  17.208  0.00  0.00    +0.000 NA
ATOM      2  H   UNL     1       2.230   2.384  16.606  0.00  0.00    +0.000 HD
ENDROOT
BRANCH   1   3
ATOM      3  C   UNL     1       4.030   2.724  17.499  0.00  0.00    +0.000 C 
BRANCH   3   7
ATOM      4  C   UNL     1       6.792   5.958  16.685  0.00  0.00    +0.000 A 
ATOM      5  C   UNL     1       6.544   5.553  17.997  0.00  0.00    +0.000 A 
ATOM      6  C   UNL     1       5.653   4.510  18.262  0.00  0.00    +0.000 A 
ATOM      7  C   UNL     1       4.979   3.867  17.216  0.00  0.00    +0.000 A 
ATOM      8  C   UNL     1       5.216   4.294  15.902  0.00  0.00    +0.000 A 
ATOM      9  C   UNL     1       6.117   5.333  15.639  0.00  0.00    +0.000 A 
BRANCH   4  11
ATOM     10  C   UNL     1       7.763   7.880  17.662  0.00  0.00    +0.000 C 
ATOM     11  O   UNL     1       7.677   6.993  16.553  0.00  0.00    +0.000 OA
ENDBRANCH   4  11
ENDBRANCH   3   7
ENDBRANCH   1   3
BRANCH   1  12
ATOM     12  C   UNL     1       1.860   3.207  18.434  0.00  0.00    +0.000 C 
BRANCH  12  13
ATOM     13  C   UNL     1       1.876   4.622  18.962  0.00  0.00    +0.000 A 
ATOM     14  C   UNL     1       2.152   5.702  18.114  0.00  0.00    +0.000 A 
ATOM     15  C   UNL     1       2.178   7.006  18.616  0.00  0.00    +0.000 A 
ATOM     16  C   UNL     1       1.908   7.257  19.963  0.00  0.00    +0.000 A 
ATOM     17  C   UNL     1       1.630   6.188  20.814  0.00  0.00    +0.000 A 
ATOM     18  C   UNL     1       1.611   4.881  20.316  0.00  0.00    +0.000 A 
BRANCH  16  19
ATOM     19  O   UNL     1       1.992   8.569  20.337  0.00  0.00    +0.000 OA
ATOM     20  C   UNL     1       0.958   9.419  19.855  0.00  0.00    +0.000 C 
ENDBRANCH  16  19
ENDBRANCH  12  13
ENDBRANCH   1  12
TORSDOF 6
ENDMDL
MODEL 6
REMARK VINA RESULT:      -5.9      2.053      6.186
REMARK  Name = 
REMARK  8 active torsions:
REMARK  status: ('A' for Active; 'I' for Inactive)
REMARK    1  A    between atoms: C_1  and  O_2
REMARK    2  A    between atoms: O_2  and  C_3
REMARK    3  A    between atoms: C_6  and  C_7
REMARK    4  A    between atoms: C_7  and  N_8
REMARK    5  A    between atoms: N_8  and  C_9
REMARK    6  A    between atoms: C_9  and  C_10
REMARK    7  A    between atoms: C_13  and  O_14
REMARK    8  A    between atoms: O_14  and  C_15
REMARK                            x       y       z     vdW  Elec       q    Type
REMARK                         _______ _______ _______ _____ _____    ______ ____
ROOT
ATOM      1  N   UNL     1       2.606   4.552  19.120  0.00  0.00    +0.000 NA
ATOM      2  H   UNL     1       1.763   4.001  19.282  0.00  0.00    +0.000 HD
ENDROOT
BRANCH   1   3
ATOM      3  C   UNL     1       3.762   3.658  19.085  0.00  0.00    +0.000 C 
BRANCH   3   7
ATOM      4  C   UNL     1       6.622   4.979  16.113  0.00  0.00    +0.000 A 
ATOM      5  C   UNL     1       5.439   4.348  15.726  0.00  0.00    +0.000 A 
ATOM      6  C   UNL     1       4.515   3.921  16.682  0.00  0.00    +0.000 A 
ATOM      7  C   UNL     1       4.770   4.100  18.048  0.00  0.00    +0.000 A 
ATOM      8  C   UNL     1       5.970   4.714  18.432  0.00  0.00    +0.000 A 
ATOM      9  C   UNL     1       6.890   5.151  17.470  0.00  0.00    +0.000 A 
BRANCH   4  11
ATOM     10  C   UNL     1       7.152   4.775  13.818  0.00  0.00    +0.000 C 
ATOM     11  O   UNL     1       7.450   5.344  15.088  0.00  0.00    +0.000 OA
ENDBRANCH   4  11
ENDBRANCH   3   7
ENDBRANCH   1   3
BRANCH   1  12
ATOM     12  C   UNL     1       2.739   5.548  20.180  0.00  0.00    +0.000 C 
BRANCH  12  13
ATOM     13  C   UNL     1       2.279   6.908  19.709  0.00  0.00    +0.000 A 
ATOM     14  C   UNL     1       1.523   7.740  20.543  0.00  0.00    +0.000 A 
ATOM     15  C   UNL     1       1.091   8.989  20.092  0.00  0.00    +0.000 A 
ATOM     16  C   UNL     1       1.423   9.439  18.812  0.00  0.00    +0.000 A 
ATOM     17  C   UNL     1       2.176   8.617  17.974  0.00  0.00    +0.000 A 
ATOM     18  C   UNL     1       2.604   7.363  18.421  0.00  0.00    +0.000 A 
BRANCH  16  19
ATOM     19  O   UNL     1       0.916  10.664  18.479  0.00  0.00    +0.000 OA
ATOM     20  C   UNL     1      -0.459  10.871  18.781  0.00  0.00    +0.000 C 
ENDBRANCH  16  19
ENDBRANCH  12  13
ENDBRANCH   1  12
TORSDOF 6
ENDMDL
MODEL 7
REMARK VINA RESULT:      -5.9      0.885      5.311
REMARK  Name = 
REMARK  8 active torsions:
REMARK  status: ('A' for Active; 'I' for Inactive)
REMARK    1  A    between atoms: C_1  and  O_2
REMARK    2  A    between atoms: O_2  and  C_3
REMARK    3  A    between atoms: C_6  and  C_7
REMARK    4  A    between atoms: C_7  and  N_8
REMARK    5  A    between atoms: N_8  and  C_9
REMARK    6  A    between atoms: C_9  and  C_10
REMARK    7  A    between atoms: C_13  and  O_14
REMARK    8  A    between atoms: O_14  and  C_15
REMARK                            x       y       z     vdW  Elec       q    Type
REMARK                         _______ _______ _______ _____ _____    ______ ____
ROOT
ATOM      1  N   UNL     1       3.356   2.723  18.470  0.00  0.00    +0.000 NA
ATOM      2  H   UNL     1       3.905   3.275  19.129  0.00  0.00    +0.000 HD
ENDROOT
BRANCH   1   3
ATOM      3  C   UNL     1       4.040   2.701  17.179  0.00  0.00    +0.000 C 
BRANCH   3   7
ATOM      4  C   UNL     1       6.816   6.007  16.839  0.00  0.00    +0.000 A 
ATOM      5  C   UNL     1       6.146   5.528  15.713  0.00  0.00    +0.000 A 
ATOM      6  C   UNL     1       5.250   4.461  15.820  0.00  0.00    +0.000 A 
ATOM      7  C   UNL     1       5.025   3.842  17.056  0.00  0.00    +0.000 A 
ATOM      8  C   UNL     1       5.719   4.314  18.180  0.00  0.00    +0.000 A 
ATOM      9  C   UNL     1       6.609   5.389  18.071  0.00  0.00    +0.000 A 
BRANCH   4  11
ATOM     10  C   UNL     1       7.770   8.013  17.649  0.00  0.00    +0.000 C 
ATOM     11  O   UNL     1       7.672   7.049  16.608  0.00  0.00    +0.000 OA
ENDBRANCH   4  11
ENDBRANCH   3   7
ENDBRANCH   1   3
BRANCH   1  12
ATOM     12  C   UNL     1       2.021   3.304  18.353  0.00  0.00    +0.000 C 
BRANCH  12  13
ATOM     13  C   UNL     1       1.975   4.686  18.962  0.00  0.00    +0.000 A 
ATOM     14  C   UNL     1       2.286   5.819  18.199  0.00  0.00    +0.000 A 
ATOM     15  C   UNL     1       2.254   7.090  18.776  0.00  0.00    +0.000 A 
ATOM     16  C   UNL     1       1.890   7.257  20.115  0.00  0.00    +0.000 A 
ATOM     17  C   UNL     1       1.578   6.135  20.881  0.00  0.00    +0.000 A 
ATOM     18  C   UNL     1       1.616   4.860  20.308  0.00  0.00    +0.000 A 
BRANCH  16  19
ATOM     19  O   UNL     1       1.925   8.546  20.569  0.00  0.00    +0.000 OA
ATOM     20  C   UNL     1       0.971   8.876  21.572  0.00  0.00    +0.000 C 
ENDBRANCH  16  19
ENDBRANCH  12  13
ENDBRANCH   1  12
TORSDOF 6
ENDMDL
MODEL 8
REMARK VINA RESULT:      -5.9      2.176      6.095
REMARK  Name = 
REMARK  8 active torsions:
REMARK  status: ('A' for Active; 'I' for Inactive)
REMARK    1  A    between atoms: C_1  and  O_2
REMARK    2  A    between atoms: O_2  and  C_3
REMARK    3  A    between atoms: C_6  and  C_7
REMARK    4  A    between atoms: C_7  and  N_8
REMARK    5  A    between atoms: N_8  and  C_9
REMARK    6  A    between atoms: C_9  and  C_10
REMARK    7  A    between atoms: C_13  and  O_14
REMARK    8  A    between atoms: O_14  and  C_15
REMARK                            x       y       z     vdW  Elec       q    Type
REMARK                         _______ _______ _______ _____ _____    ______ ____
ROOT
ATOM      1  N   UNL     1       3.944   5.219  20.036  0.00  0.00    +0.000 NA
ATOM      2  H   UNL     1       4.436   6.020  19.643  0.00  0.00    +0.000 HD
ENDROOT
BRANCH   1   3
ATOM      3  C   UNL     1       4.361   4.008  19.332  0.00  0.00    +0.000 C 
BRANCH   3   7
ATOM      4  C   UNL     1       6.864   4.998  15.939  0.00  0.00    +0.000 A 
ATOM      5  C   UNL     1       5.654   4.328  15.754  0.00  0.00    +0.000 A 
ATOM      6  C   UNL     1       4.845   4.008  16.847  0.00  0.00    +0.000 A 
ATOM      7  C   UNL     1       5.245   4.335  18.149  0.00  0.00    +0.000 A 
ATOM      8  C   UNL     1       6.473   4.988  18.330  0.00  0.00    +0.000 A 
ATOM      9  C   UNL     1       7.277   5.317  17.232  0.00  0.00    +0.000 A 
BRANCH   4  11
ATOM     10  C   UNL     1       7.007   4.739  13.593  0.00  0.00    +0.000 C 
ATOM     11  O   UNL     1       7.571   5.250  14.795  0.00  0.00    +0.000 OA
ENDBRANCH   4  11
ENDBRANCH   3   7
ENDBRANCH   1   3
BRANCH   1  12
ATOM     12  C   UNL     1       2.504   5.433  19.913  0.00  0.00    +0.000 C 
BRANCH  12  13
ATOM     13  C   UNL     1       2.200   6.852  19.492  0.00  0.00    +0.000 A 
ATOM     14  C   UNL     1       2.546   7.312  18.216  0.00  0.00    +0.000 A 
ATOM     15  C   UNL     1       2.273   8.630  17.842  0.00  0.00    +0.000 A 
ATOM     16  C   UNL     1       1.631   9.503  18.724  0.00  0.00    +0.000 A 
ATOM     17  C   UNL     1       1.282   9.053  19.996  0.00  0.00    +0.000 A 
ATOM     18  C   UNL     1       1.561   7.736  20.376  0.00  0.00    +0.000 A 
BRANCH  16  19
ATOM     19  O   UNL     1       1.446  10.773  18.251  0.00  0.00    +0.000 OA
ATOM     20  C   UNL     1       1.075  11.747  19.220  0.00  0.00    +0.000 C 
ENDBRANCH  16  19
ENDBRANCH  12  13
ENDBRANCH   1  12
TORSDOF 6
ENDMDL
MODEL 9
REMARK VINA RESULT:      -5.8      1.668      2.145
REMARK  Name = 
REMARK  8 active torsions:
REMARK  status: ('A' for Active; 'I' for Inactive)
REMARK    1  A    between atoms: C_1  and  O_2
REMARK    2  A    between atoms: O_2  and  C_3
REMARK    3  A    between atoms: C_6  and  C_7
REMARK    4  A    between atoms: C_7  and  N_8
REMARK    5  A    between atoms: N_8  and  C_9
REMARK    6  A    between atoms: C_9  and  C_10
REMARK    7  A    between atoms: C_13  and  O_14
REMARK    8  A    between atoms: O_14  and  C_15
REMARK                            x       y       z     vdW  Elec       q    Type
REMARK                         _______ _______ _______ _____ _____    ______ ____
ROOT
ATOM      1  N   UNL     1       2.386   4.598  18.812  0.00  0.00    +0.000 NA
ATOM      2  H   UNL     1       2.065   5.219  18.069  0.00  0.00    +0.000 HD
ENDROOT
BRANCH   1   3
ATOM      3  C   UNL     1       2.660   5.389  20.010  0.00  0.00    +0.000 C 
BRANCH   3   7
ATOM      4  C   UNL     1       1.117   9.413  19.590  0.00  0.00    +0.000 A 
ATOM      5  C   UNL     1       1.794   8.801  18.535  0.00  0.00    +0.000 A 
ATOM      6  C   UNL     1       2.293   7.503  18.668  0.00  0.00    +0.000 A 
ATOM      7  C   UNL     1       2.139   6.801  19.871  0.00  0.00    +0.000 A 
ATOM      8  C   UNL     1       1.477   7.430  20.935  0.00  0.00    +0.000 A 
ATOM      9  C   UNL     1       0.969   8.728  20.795  0.00  0.00    +0.000 A 
BRANCH   4  11
ATOM     10  C   UNL     1      -0.435  10.800  18.470  0.00  0.00    +0.000 C 
ATOM     11  O   UNL     1       0.682  10.686  19.343  0.00  0.00    +0.000 OA
ENDBRANCH   4  11
ENDBRANCH   3   7
ENDBRANCH   1   3
BRANCH   1  12
ATOM     12  C   UNL     1       3.580   3.888  18.362  0.00  0.00    +0.000 C 
BRANCH  12  13
ATOM     13  C   UNL     1       4.683   4.856  18.000  0.00  0.00    +0.000 A 
ATOM     14  C   UNL     1       4.605   5.633  16.839  0.00  0.00    +0.000 A 
ATOM     15  C   UNL     1       5.637   6.514  16.507  0.00  0.00    +0.000 A 
ATOM     16  C   UNL     1       6.752   6.651  17.337  0.00  0.00    +0.000 A 
ATOM     17  C   UNL     1       6.838   5.882  18.497  0.00  0.00    +0.000 A 
ATOM     18  C   UNL     1       5.809   4.993  18.827  0.00  0.00    +0.000 A 
BRANCH  16  19
ATOM     19  O   UNL     1       7.705   7.523  16.889  0.00  0.00    +0.000 OA
ATOM     20  C   UNL     1       8.027   8.595  17.767  0.00  0.00    +0.000 C 
ENDBRANCH  16  19
ENDBRANCH  12  13
ENDBRANCH   1  12
TORSDOF 6
ENDMDL
