MODEL 1
REMARK VINA RESULT:      -8.6      0.000      0.000
REMARK  Name = 
REMARK  6 active torsions:
REMARK  status: ('A' for Active; 'I' for Inactive)
REMARK    1  A    between atoms: C_1  and  C_2
REMARK    2  A    between atoms: C_2  and  C_3
REMARK    3  A    between atoms: C_2  and  N_4
REMARK    4  A    between atoms: C_2  and  C_15
REMARK    5  A    between atoms: N_4  and  C_5
REMARK    6  A    between atoms: N_19  and  C_20
REMARK                            x       y       z     vdW  Elec       q    Type
REMARK                         _______ _______ _______ _____ _____    ______ ____
ROOT
ATOM      1  C   UNL     1       1.257   4.938  20.485  0.00  0.00    +0.000 C 
ATOM      2  C   UNL     1       2.504   5.087  19.572  0.00  0.00    +0.000 C 
ATOM      3  C   UNL     1       1.974   4.868  18.129  0.00  0.00    +0.000 C 
ENDROOT
BRANCH   2   4
ATOM      4  C   UNL     1       3.522   4.003  19.881  0.00  0.00    +0.000 A 
ATOM      5  N   UNL     1       3.240   2.896  20.555  0.00  0.00    +0.000 NA
ATOM      6  N   UNL     1       4.285   2.042  20.378  0.00  0.00    +0.000 NA
ATOM      7  N   UNL     1       5.202   2.578  19.597  0.00  0.00    +0.000 NA
ATOM      8  N   UNL     1       4.812   3.856  19.360  0.00  0.00    +0.000 N 
BRANCH   8   9
ATOM      9  C   UNL     1       5.672   4.728  18.639  0.00  0.00    +0.000 A 
ATOM     10  C   UNL     1       5.467   4.914  17.260  0.00  0.00    +0.000 A 
ATOM     11  C   UNL     1       6.258   5.820  16.548  0.00  0.00    +0.000 A 
ATOM     12  C   UNL     1       7.269   6.533  17.192  0.00  0.00    +0.000 A 
ATOM     13  C   UNL     1       7.519   6.306  18.539  0.00  0.00    +0.000 A 
ATOM     14  C   UNL     1       6.735   5.394  19.247  0.00  0.00    +0.000 A 
ENDBRANCH   8   9
ENDBRANCH   2   4
BRANCH   2  15
ATOM     15  N   UNL     1       2.966   6.484  19.657  0.00  0.00    +0.000 N 
ATOM     16  H   UNL     1       3.943   6.615  19.407  0.00  0.00    +0.000 HD
BRANCH  15  17
ATOM     17  C   UNL     1       2.204   7.630  19.458  0.00  0.00    +0.000 A 
ATOM     18  C   UNL     1       2.201   8.199  18.172  0.00  0.00    +0.000 A 
ATOM     19  C   UNL     1       1.535   9.399  17.897  0.00  0.00    +0.000 A 
ATOM     20  C   UNL     1       0.848  10.049  18.913  0.00  0.00    +0.000 A 
ATOM     21  C   UNL     1       0.843   9.504  20.196  0.00  0.00    +0.000 A 
ATOM     22  C   UNL     1       1.557   8.337  20.473  0.00  0.00    +0.000 A 
ATOM     23  O   UNL     1       0.153  10.058  21.244  0.00  0.00    +0.000 OA
ATOM     24  C   UNL     1      -0.850  10.959  20.768  0.00  0.00    +0.000 C 
ATOM     25  C   UNL     1      -0.248  11.915  19.750  0.00  0.00    +0.000 C 
ATOM     26  O   UNL     1       0.193  11.207  18.583  0.00  0.00    +0.000 OA
ENDBRANCH  15  17
ENDBRANCH   2  15
TORSDOF 4
ENDMDL
MODEL 2
REMARK VINA RESULT:      -8.3      1.140      1.214
REMARK  Name = 
REMARK  6 active torsions:
REMARK  status: ('A' for Active; 'I' for Inactive)
REMARK    1  A    between atoms: C_1  and  C_2
REMARK    2  A    between atoms: C_2  and  C_3
REMARK    3  A    between atoms: C_2  and  N_4
REMARK    4  A    between atoms: C_2  and  C_15
REMARK    5  A    between atoms: N_4  and  C_5
REMARK    6  A    between atoms: N_19  and  C_20
REMARK                            x       y       z     vdW  Elec       q    Type
REMARK                         _______ _______ _______ _____ _____    ______ ____
ROOT
ATOM      1  C   UNL     1       2.390   3.908  21.650  0.00  0.00    +0.000 C 
ATOM      2  C   UNL     1       2.476   4.344  20.162  0.00  0.00    +0.000 C 
ATOM      3  C   UNL     1       1.000   4.458  19.692  0.00  0.00    +0.000 C 
ENDROOT
BRANCH   2   4
ATOM      4  C   UNL     1       3.164   3.272  19.333  0.00  0.00    +0.000 A 
ATOM      5  N   UNL     1       2.782   2.003  19.304  0.00  0.00    +0.000 NA
ATOM      6  N   UNL     1       3.414   1.418  18.250  0.00  0.00    +0.000 NA
ATOM      7  N   UNL     1       4.166   2.292  17.610  0.00  0.00    +0.000 NA
ATOM      8  N   UNL     1       4.126   3.441  18.331  0.00  0.00    +0.000 N 
BRANCH   8   9
ATOM      9  C   UNL     1       4.944   4.537  17.947  0.00  0.00    +0.000 A 
ATOM     10  C   UNL     1       4.679   5.208  16.741  0.00  0.00    +0.000 A 
ATOM     11  C   UNL     1       5.429   6.330  16.380  0.00  0.00    +0.000 A 
ATOM     12  C   UNL     1       6.460   6.785  17.202  0.00  0.00    +0.000 A 
ATOM     13  C   UNL     1       6.769   6.089  18.363  0.00  0.00    +0.000 A 
ATOM     14  C   UNL     1       6.025   4.963  18.717  0.00  0.00    +0.000 A 
ENDBRANCH   8   9
ENDBRANCH   2   4
BRANCH   2  15
ATOM     15  N   UNL     1       3.052   5.699  20.116  0.00  0.00    +0.000 N 
ATOM     16  H   UNL     1       4.047   5.722  19.905  0.00  0.00    +0.000 HD
BRANCH  15  17
ATOM     17  C   UNL     1       2.402   6.873  19.754  0.00  0.00    +0.000 A 
ATOM     18  C   UNL     1       2.552   7.323  18.429  0.00  0.00    +0.000 A 
ATOM     19  C   UNL     1       2.008   8.537  17.995  0.00  0.00    +0.000 A 
ATOM     20  C   UNL     1       1.288   9.321  18.885  0.00  0.00    +0.000 A 
ATOM     21  C   UNL     1       1.130   8.895  20.203  0.00  0.00    +0.000 A 
ATOM     22  C   UNL     1       1.725   7.712  20.641  0.00  0.00    +0.000 A 
ATOM     23  O   UNL     1       0.398   9.588  21.133  0.00  0.00    +0.000 OA
ATOM     24  C   UNL     1      -0.488  10.510  20.493  0.00  0.00    +0.000 C 
ATOM     25  C   UNL     1       0.272  11.326  19.459  0.00  0.00    +0.000 C 
ATOM     26  O   UNL     1       0.755  10.488  18.401  0.00  0.00    +0.000 OA
ENDBRANCH  15  17
ENDBRANCH   2  15
TORSDOF 4
ENDMDL
MODEL 3
REMARK VINA RESULT:      -8.3      1.305      1.756
REMARK  Name = 
REMARK  6 active torsions:
REMARK  status: ('A' for Active; 'I' for Inactive)
REMARK    1  A    between atoms: C_1  and  C_2
REMARK    2  A    between atoms: C_2  and  C_3
REMARK    3  A    between atoms: C_2  and  N_4
REMARK    4  A    between atoms: C_2  and  C_15
REMARK    5  A    between atoms: N_4  and  C_5
REMARK    6  A    between atoms: N_19  and  C_20
REMARK                            x       y       z     vdW  Elec       q    Type
REMARK                         _______ _______ _______ _____ _____    ______ ____
ROOT
ATOM      1  C   UNL     1       2.840   3.914  21.379  0.00  0.00    +0.000 C 
ATOM      2  C   UNL     1       2.345   4.727  20.153  0.00  0.00    +0.000 C 
ATOM      3  C   UNL     1       0.799   4.766  20.295  0.00  0.00    +0.000 C 
ENDROOT
BRANCH   2   4
ATOM      4  C   UNL     1       2.693   4.007  18.861  0.00  0.00    +0.000 A 
ATOM      5  N   UNL     1       1.897   3.127  18.269  0.00  0.00    +0.000 NA
ATOM      6  N   UNL     1       2.384   2.926  17.015  0.00  0.00    +0.000 NA
ATOM      7  N   UNL     1       3.451   3.671  16.800  0.00  0.00    +0.000 NA
ATOM      8  N   UNL     1       3.745   4.277  17.979  0.00  0.00    +0.000 N 
BRANCH   8   9
ATOM      9  C   UNL     1       4.927   5.058  18.089  0.00  0.00    +0.000 A 
ATOM     10  C   UNL     1       5.827   4.802  19.138  0.00  0.00    +0.000 A 
ATOM     11  C   UNL     1       7.028   5.512  19.223  0.00  0.00    +0.000 A 
ATOM     12  C   UNL     1       7.336   6.494  18.281  0.00  0.00    +0.000 A 
ATOM     13  C   UNL     1       6.422   6.796  17.281  0.00  0.00    +0.000 A 
ATOM     14  C   UNL     1       5.219   6.093  17.202  0.00  0.00    +0.000 A 
ENDBRANCH   8   9
ENDBRANCH   2   4
BRANCH   2  15
ATOM     15  N   UNL     1       2.829   6.111  20.299  0.00  0.00    +0.000 N 
ATOM     16  H   UNL     1       3.842   6.203  20.281  0.00  0.00    +0.000 HD
BRANCH  15  17
ATOM     17  C   UNL     1       2.179   7.272  19.892  0.00  0.00    +0.000 A 
ATOM     18  C   UNL     1       2.344   7.679  18.556  0.00  0.00    +0.000 A 
ATOM     19  C   UNL     1       1.801   8.878  18.077  0.00  0.00    +0.000 A 
ATOM     20  C   UNL     1       1.070   9.689  18.934  0.00  0.00    +0.000 A 
ATOM     21  C   UNL     1       0.900   9.305  20.263  0.00  0.00    +0.000 A 
ATOM     22  C   UNL     1       1.492   8.137  20.745  0.00  0.00    +0.000 A 
ATOM     23  O   UNL     1       0.155  10.025  21.163  0.00  0.00    +0.000 OA
ATOM     24  C   UNL     1      -0.725  10.924  20.484  0.00  0.00    +0.000 C 
ATOM     25  C   UNL     1       0.044  11.709  19.433  0.00  0.00    +0.000 C 
ATOM     26  O   UNL     1       0.541  10.838  18.407  0.00  0.00    +0.000 OA
ENDBRANCH  15  17
ENDBRANCH   2  15
TORSDOF 4
ENDMDL
MODEL 4
REMARK VINA RESULT:      -8.1      0.765      1.784
REMARK  Name = 
REMARK  6 active torsions:
REMARK  status: ('A' for Active; 'I' for Inactive)
REMARK    1  A    between atoms: C_1  and  C_2
REMARK    2  A    between atoms: C_2  and  C_3
REMARK    3  A    between atoms: C_2  and  N_4
REMARK    4  A    between atoms: C_2  and  C_15
REMARK    5  A    between atoms: N_4  and  C_5
REMARK    6  A    between atoms: N_19  and  C_20
REMARK                            x       y       z     vdW  Elec       q    Type
REMARK                         _______ _______ _______ _____ _____    ______ ____
ROOT
ATOM      1  C   UNL     1       1.117   4.874  20.355  0.00  0.00    +0.000 C 
ATOM      2  C   UNL     1       2.429   5.265  19.622  0.00  0.00    +0.000 C 
ATOM      3  C   UNL     1       2.045   5.329  18.119  0.00  0.00    +0.000 C 
ENDROOT
BRANCH   2   4
ATOM      4  C   UNL     1       3.482   4.185  19.805  0.00  0.00    +0.000 A 
ATOM      5  N   UNL     1       3.236   2.997  20.339  0.00  0.00    +0.000 NA
ATOM      6  N   UNL     1       4.308   2.204  20.067  0.00  0.00    +0.000 NA
ATOM      7  N   UNL     1       5.209   2.860  19.362  0.00  0.00    +0.000 NA
ATOM      8  N   UNL     1       4.777   4.144  19.277  0.00  0.00    +0.000 N 
BRANCH   8   9
ATOM      9  C   UNL     1       5.609   5.124  18.671  0.00  0.00    +0.000 A 
ATOM     10  C   UNL     1       6.823   5.474  19.286  0.00  0.00    +0.000 A 
ATOM     11  C   UNL     1       7.686   6.384  18.671  0.00  0.00    +0.000 A 
ATOM     12  C   UNL     1       7.344   6.969  17.452  0.00  0.00    +0.000 A 
ATOM     13  C   UNL     1       6.117   6.676  16.871  0.00  0.00    +0.000 A 
ATOM     14  C   UNL     1       5.252   5.774  17.491  0.00  0.00    +0.000 A 
ENDBRANCH   8   9
ENDBRANCH   2   4
BRANCH   2  15
ATOM     15  N   UNL     1       2.792   6.632  20.036  0.00  0.00    +0.000 N 
ATOM     16  H   UNL     1       3.743   6.901  19.795  0.00  0.00    +0.000 HD
BRANCH  15  17
ATOM     17  C   UNL     1       1.940   7.724  20.152  0.00  0.00    +0.000 A 
ATOM     18  C   UNL     1       1.199   7.853  21.340  0.00  0.00    +0.000 A 
ATOM     19  C   UNL     1       0.253   8.870  21.514  0.00  0.00    +0.000 A 
ATOM     20  C   UNL     1       0.040   9.789  20.495  0.00  0.00    +0.000 A 
ATOM     21  C   UNL     1       0.762   9.676  19.308  0.00  0.00    +0.000 A 
ATOM     22  C   UNL     1       1.661   8.626  19.122  0.00  0.00    +0.000 A 
ATOM     23  O   UNL     1       0.645  10.567  18.271  0.00  0.00    +0.000 OA
ATOM     24  C   UNL     1       0.054  11.789  18.720  0.00  0.00    +0.000 C 
ATOM     25  C   UNL     1      -1.200  11.493  19.526  0.00  0.00    +0.000 C 
ATOM     26  O   UNL     1      -0.879  10.778  20.728  0.00  0.00    +0.000 OA
ENDBRANCH  15  17
ENDBRANCH   2  15
TORSDOF 4
ENDMDL
MODEL 5
REMARK VINA RESULT:      -7.9      0.781      1.268
REMARK  Name = 
REMARK  6 active torsions:
REMARK  status: ('A' for Active; 'I' for Inactive)
REMARK    1  A    between atoms: C_1  and  C_2
REMARK    2  A    between atoms: C_2  and  C_3
REMARK    3  A    between atoms: C_2  and  N_4
REMARK    4  A    between atoms: C_2  and  C_15
REMARK    5  A    between atoms: N_4  and  C_5
REMARK    6  A    between atoms: N_19  and  C_20
REMARK                            x       y       z     vdW  Elec       q    Type
REMARK                         _______ _______ _______ _____ _____    ______ ____
ROOT
ATOM      1  C   UNL     1       1.158   4.004  20.814  0.00  0.00    +0.000 C 
ATOM      2  C   UNL     1       2.338   4.600  19.999  0.00  0.00    +0.000 C 
ATOM      3  C   UNL     1       1.801   4.722  18.547  0.00  0.00    +0.000 C 
ENDROOT
BRANCH   2   4
ATOM      4  C   UNL     1       3.519   3.645  19.998  0.00  0.00    +0.000 A 
ATOM      5  N   UNL     1       3.586   2.552  20.746  0.00  0.00    +0.000 NA
ATOM      6  N   UNL     1       4.617   1.802  20.269  0.00  0.00    +0.000 NA
ATOM      7  N   UNL     1       5.183   2.388  19.232  0.00  0.00    +0.000 NA
ATOM      8  N   UNL     1       4.595   3.604  19.104  0.00  0.00    +0.000 N 
BRANCH   8   9
ATOM      9  C   UNL     1       5.087   4.521  18.136  0.00  0.00    +0.000 A 
ATOM     10  C   UNL     1       5.864   5.615  18.554  0.00  0.00    +0.000 A 
ATOM     11  C   UNL     1       6.413   6.489  17.612  0.00  0.00    +0.000 A 
ATOM     12  C   UNL     1       6.181   6.295  16.250  0.00  0.00    +0.000 A 
ATOM     13  C   UNL     1       5.362   5.254  15.835  0.00  0.00    +0.000 A 
ATOM     14  C   UNL     1       4.806   4.388  16.777  0.00  0.00    +0.000 A 
ENDBRANCH   8   9
ENDBRANCH   2   4
BRANCH   2  15
ATOM     15  N   UNL     1       2.583   5.968  20.487  0.00  0.00    +0.000 N 
ATOM     16  H   UNL     1       3.484   6.092  20.944  0.00  0.00    +0.000 HD
BRANCH  15  17
ATOM     17  C   UNL     1       2.091   7.151  19.946  0.00  0.00    +0.000 A 
ATOM     18  C   UNL     1       2.543   7.522  18.666  0.00  0.00    +0.000 A 
ATOM     19  C   UNL     1       2.171   8.735  18.075  0.00  0.00    +0.000 A 
ATOM     20  C   UNL     1       1.326   9.599  18.758  0.00  0.00    +0.000 A 
ATOM     21  C   UNL     1       0.872   9.252  20.029  0.00  0.00    +0.000 A 
ATOM     22  C   UNL     1       1.293   8.066  20.633  0.00  0.00    +0.000 A 
ATOM     23  O   UNL     1       0.001  10.027  20.753  0.00  0.00    +0.000 OA
ATOM     24  C   UNL     1      -0.677  10.953  19.900  0.00  0.00    +0.000 C 
ATOM     25  C   UNL     1       0.329  11.677  19.018  0.00  0.00    +0.000 C 
ATOM     26  O   UNL     1       0.975  10.762  18.123  0.00  0.00    +0.000 OA
ENDBRANCH  15  17
ENDBRANCH   2  15
TORSDOF 4
ENDMDL
MODEL 6
REMARK VINA RESULT:      -7.8      1.663      3.809
REMARK  Name = 
REMARK  6 active torsions:
REMARK  status: ('A' for Active; 'I' for Inactive)
REMARK    1  A    between atoms: C_1  and  C_2
REMARK    2  A    between atoms: C_2  and  C_3
REMARK    3  A    between atoms: C_2  and  N_4
REMARK    4  A    between atoms: C_2  and  C_15
REMARK    5  A    between atoms: N_4  and  C_5
REMARK    6  A    between atoms: N_19  and  C_20
REMARK                            x       y       z     vdW  Elec       q    Type
REMARK                         _______ _______ _______ _____ _____    ______ ____
ROOT
ATOM      1  C   UNL     1       5.147   5.617  15.726  0.00  0.00    +0.000 C 
ATOM      2  C   UNL     1       4.897   6.257  17.118  0.00  0.00    +0.000 C 
ATOM      3  C   UNL     1       5.499   7.685  17.017  0.00  0.00    +0.000 C 
ENDROOT
BRANCH   2   4
ATOM      4  C   UNL     1       5.646   5.493  18.196  0.00  0.00    +0.000 A 
ATOM      5  N   UNL     1       6.829   5.858  18.674  0.00  0.00    +0.000 NA
ATOM      6  N   UNL     1       7.044   5.137  19.807  0.00  0.00    +0.000 NA
ATOM      7  N   UNL     1       6.020   4.345  20.061  0.00  0.00    +0.000 NA
ATOM      8  N   UNL     1       5.173   4.456  19.007  0.00  0.00    +0.000 N 
BRANCH   8   9
ATOM      9  C   UNL     1       4.025   3.620  18.941  0.00  0.00    +0.000 A 
ATOM     10  C   UNL     1       3.203   3.486  20.074  0.00  0.00    +0.000 A 
ATOM     11  C   UNL     1       2.034   2.725  20.008  0.00  0.00    +0.000 A 
ATOM     12  C   UNL     1       1.680   2.075  18.825  0.00  0.00    +0.000 A 
ATOM     13  C   UNL     1       2.520   2.151  17.723  0.00  0.00    +0.000 A 
ATOM     14  C   UNL     1       3.693   2.904  17.793  0.00  0.00    +0.000 A 
ENDBRANCH   8   9
ENDBRANCH   2   4
BRANCH   2  15
ATOM     15  N   UNL     1       3.442   6.410  17.294  0.00  0.00    +0.000 N 
ATOM     16  H   UNL     1       2.912   5.557  17.137  0.00  0.00    +0.000 HD
BRANCH  15  17
ATOM     17  C   UNL     1       2.792   7.296  18.146  0.00  0.00    +0.000 A 
ATOM     18  C   UNL     1       2.526   6.865  19.459  0.00  0.00    +0.000 A 
ATOM     19  C   UNL     1       1.800   7.652  20.361  0.00  0.00    +0.000 A 
ATOM     20  C   UNL     1       1.334   8.897  19.963  0.00  0.00    +0.000 A 
ATOM     21  C   UNL     1       1.583   9.340  18.665  0.00  0.00    +0.000 A 
ATOM     22  C   UNL     1       2.258   8.525  17.755  0.00  0.00    +0.000 A 
ATOM     23  O   UNL     1       1.197  10.574  18.206  0.00  0.00    +0.000 OA
ATOM     24  C   UNL     1       0.918  11.453  19.298  0.00  0.00    +0.000 C 
ATOM     25  C   UNL     1       0.000  10.766  20.297  0.00  0.00    +0.000 C 
ATOM     26  O   UNL     1       0.651   9.635  20.894  0.00  0.00    +0.000 OA
ENDBRANCH  15  17
ENDBRANCH   2  15
TORSDOF 4
ENDMDL
MODEL 7
REMARK VINA RESULT:      -7.6      1.738      3.693
REMARK  Name = 
REMARK  6 active torsions:
REMARK  status: ('A' for Active; 'I' for Inactive)
REMARK    1  A    between atoms: C_1  and  C_2
REMARK    2  A    between atoms: C_2  and  C_3
REMARK    3  A    between atoms: C_2  and  N_4
REMARK    4  A    between atoms: C_2  and  C_15
REMARK    5  A    between atoms: N_4  and  C_5
REMARK    6  A    between atoms: N_19  and  C_20
REMARK                            x       y       z     vdW  Elec       q    Type
REMARK                         _______ _______ _______ _____ _____    ______ ____
ROOT
ATOM      1  C   UNL     1       5.152   5.704  15.795  0.00  0.00    +0.000 C 
ATOM      2  C   UNL     1       4.829   6.278  17.202  0.00  0.00    +0.000 C 
ATOM      3  C   UNL     1       5.379   7.730  17.178  0.00  0.00    +0.000 C 
ENDROOT
BRANCH   2   4
ATOM      4  C   UNL     1       5.568   5.499  18.276  0.00  0.00    +0.000 A 
ATOM      5  N   UNL     1       6.760   5.840  18.747  0.00  0.00    +0.000 NA
ATOM      6  N   UNL     1       6.967   5.116  19.880  0.00  0.00    +0.000 NA
ATOM      7  N   UNL     1       5.929   4.345  20.140  0.00  0.00    +0.000 NA
ATOM      8  N   UNL     1       5.078   4.472  19.090  0.00  0.00    +0.000 N 
BRANCH   8   9
ATOM      9  C   UNL     1       3.913   3.660  19.031  0.00  0.00    +0.000 A 
ATOM     10  C   UNL     1       3.034   3.633  20.128  0.00  0.00    +0.000 A 
ATOM     11  C   UNL     1       1.849   2.896  20.061  0.00  0.00    +0.000 A 
ATOM     12  C   UNL     1       1.536   2.164  18.916  0.00  0.00    +0.000 A 
ATOM     13  C   UNL     1       2.430   2.135  17.854  0.00  0.00    +0.000 A 
ATOM     14  C   UNL     1       3.617   2.864  17.925  0.00  0.00    +0.000 A 
ENDBRANCH   8   9
ENDBRANCH   2   4
BRANCH   2  15
ATOM     15  N   UNL     1       3.364   6.371  17.330  0.00  0.00    +0.000 N 
ATOM     16  H   UNL     1       2.881   5.479  17.250  0.00  0.00    +0.000 HD
BRANCH  15  17
ATOM     17  C   UNL     1       2.647   7.302  18.072  0.00  0.00    +0.000 A 
ATOM     18  C   UNL     1       2.286   8.506  17.439  0.00  0.00    +0.000 A 
ATOM     19  C   UNL     1       1.639   9.538  18.128  0.00  0.00    +0.000 A 
ATOM     20  C   UNL     1       1.333   9.377  19.472  0.00  0.00    +0.000 A 
ATOM     21  C   UNL     1       1.686   8.194  20.119  0.00  0.00    +0.000 A 
ATOM     22  C   UNL     1       2.380   7.193  19.438  0.00  0.00    +0.000 A 
ATOM     23  O   UNL     1       1.381   7.936  21.432  0.00  0.00    +0.000 OA
ATOM     24  C   UNL     1       0.336   8.800  21.885  0.00  0.00    +0.000 C 
ATOM     25  C   UNL     1       0.655  10.239  21.516  0.00  0.00    +0.000 C 
ATOM     26  O   UNL     1       0.678  10.409  20.092  0.00  0.00    +0.000 OA
ENDBRANCH  15  17
ENDBRANCH   2  15
TORSDOF 4
ENDMDL
MODEL 8
REMARK VINA RESULT:      -7.6      1.198      2.023
REMARK  Name = 
REMARK  6 active torsions:
REMARK  status: ('A' for Active; 'I' for Inactive)
REMARK    1  A    between atoms: C_1  and  C_2
REMARK    2  A    between atoms: C_2  and  C_3
REMARK    3  A    between atoms: C_2  and  N_4
REMARK    4  A    between atoms: C_2  and  C_15
REMARK    5  A    between atoms: N_4  and  C_5
REMARK    6  A    between atoms: N_19  and  C_20
REMARK                            x       y       z     vdW  Elec       q    Type
REMARK                         _______ _______ _______ _____ _____    ______ ____
ROOT
ATOM      1  C   UNL     1       1.002   4.082  20.352  0.00  0.00    +0.000 C 
ATOM      2  C   UNL     1       2.089   4.546  19.344  0.00  0.00    +0.000 C 
ATOM      3  C   UNL     1       1.303   4.973  18.075  0.00  0.00    +0.000 C 
ENDROOT
BRANCH   2   4
ATOM      4  C   UNL     1       3.003   3.389  18.978  0.00  0.00    +0.000 A 
ATOM      5  N   UNL     1       2.682   2.113  19.143  0.00  0.00    +0.000 NA
ATOM      6  N   UNL     1       3.587   1.378  18.441  0.00  0.00    +0.000 NA
ATOM      7  N   UNL     1       4.453   2.160  17.828  0.00  0.00    +0.000 NA
ATOM      8  N   UNL     1       4.189   3.427  18.236  0.00  0.00    +0.000 N 
BRANCH   8   9
ATOM      9  C   UNL     1       5.045   4.486  17.831  0.00  0.00    +0.000 A 
ATOM     10  C   UNL     1       6.179   4.792  18.605  0.00  0.00    +0.000 A 
ATOM     11  C   UNL     1       7.070   5.783  18.186  0.00  0.00    +0.000 A 
ATOM     12  C   UNL     1       6.834   6.493  17.009  0.00  0.00    +0.000 A 
ATOM     13  C   UNL     1       5.684   6.241  16.274  0.00  0.00    +0.000 A 
ATOM     14  C   UNL     1       4.790   5.257  16.698  0.00  0.00    +0.000 A 
ENDBRANCH   8   9
ENDBRANCH   2   4
BRANCH   2  15
ATOM     15  N   UNL     1       2.726   5.758  19.888  0.00  0.00    +0.000 N 
ATOM     16  H   UNL     1       3.742   5.752  19.838  0.00  0.00    +0.000 HD
BRANCH  15  17
ATOM     17  C   UNL     1       2.198   7.044  19.906  0.00  0.00    +0.000 A 
ATOM     18  C   UNL     1       1.362   7.393  20.982  0.00  0.00    +0.000 A 
ATOM     19  C   UNL     1       0.716   8.633  21.043  0.00  0.00    +0.000 A 
ATOM     20  C   UNL     1       0.907   9.555  20.024  0.00  0.00    +0.000 A 
ATOM     21  C   UNL     1       1.729   9.227  18.946  0.00  0.00    +0.000 A 
ATOM     22  C   UNL     1       2.323   7.967  18.867  0.00  0.00    +0.000 A 
ATOM     23  O   UNL     1       2.005  10.096  17.921  0.00  0.00    +0.000 OA
ATOM     24  C   UNL     1       1.715  11.441  18.308  0.00  0.00    +0.000 C 
ATOM     25  C   UNL     1       0.328  11.515  18.926  0.00  0.00    +0.000 C 
ATOM     26  O   UNL     1       0.270  10.763  20.146  0.00  0.00    +0.000 OA
ENDBRANCH  15  17
ENDBRANCH   2  15
TORSDOF 4
ENDMDL
MODEL 9
REMARK VINA RESULT:      -7.6      1.074      1.286
REMARK  Name = 
REMARK  6 active torsions:
REMARK  status: ('A' for Active; 'I' for Inactive)
REMARK    1  A    between atoms: C_1  and  C_2
REMARK    2  A    between atoms: C_2  and  C_3
REMARK    3  A    between atoms: C_2  and  N_4
REMARK    4  A    between atoms: C_2  and  C_15
REMARK    5  A    between atoms: N_4  and  C_5
REMARK    6  A    between atoms: N_19  and  C_20
REMARK                            x       y       z     vdW  Elec       q    Type
REMARK                         _______ _______ _______ _____ _____    ______ ____
ROOT
ATOM      1  C   UNL     1       1.103   4.273  18.775  0.00  0.00    +0.000 C 
ATOM      2  C   UNL     1       2.568   4.364  18.269  0.00  0.00    +0.000 C 
ATOM      3  C   UNL     1       2.584   3.563  16.939  0.00  0.00    +0.000 C 
ENDROOT
BRANCH   2   4
ATOM      4  C   UNL     1       3.512   3.690  19.249  0.00  0.00    +0.000 A 
ATOM      5  N   UNL     1       3.132   2.774  20.130  0.00  0.00    +0.000 NA
ATOM      6  N   UNL     1       4.261   2.187  20.612  0.00  0.00    +0.000 NA
ATOM      7  N   UNL     1       5.335   2.698  20.043  0.00  0.00    +0.000 NA
ATOM      8  N   UNL     1       4.911   3.727  19.266  0.00  0.00    +0.000 N 
BRANCH   8   9
ATOM      9  C   UNL     1       5.867   4.553  18.614  0.00  0.00    +0.000 A 
ATOM     10  C   UNL     1       6.048   4.435  17.225  0.00  0.00    +0.000 A 
ATOM     11  C   UNL     1       6.932   5.285  16.557  0.00  0.00    +0.000 A 
ATOM     12  C   UNL     1       7.658   6.245  17.262  0.00  0.00    +0.000 A 
ATOM     13  C   UNL     1       7.532   6.324  18.642  0.00  0.00    +0.000 A 
ATOM     14  C   UNL     1       6.656   5.467  19.310  0.00  0.00    +0.000 A 
ENDBRANCH   8   9
ENDBRANCH   2   4
BRANCH   2  15
ATOM     15  N   UNL     1       2.847   5.771  17.931  0.00  0.00    +0.000 N 
ATOM     16  H   UNL     1       3.113   5.921  16.961  0.00  0.00    +0.000 HD
BRANCH  15  17
ATOM     17  C   UNL     1       2.276   6.899  18.509  0.00  0.00    +0.000 A 
ATOM     18  C   UNL     1       1.983   7.989  17.669  0.00  0.00    +0.000 A 
ATOM     19  C   UNL     1       1.488   9.197  18.172  0.00  0.00    +0.000 A 
ATOM     20  C   UNL     1       1.267   9.332  19.536  0.00  0.00    +0.000 A 
ATOM     21  C   UNL     1       1.556   8.265  20.386  0.00  0.00    +0.000 A 
ATOM     22  C   UNL     1       2.102   7.085  19.882  0.00  0.00    +0.000 A 
ATOM     23  O   UNL     1       1.325   8.300  21.738  0.00  0.00    +0.000 OA
ATOM     24  C   UNL     1       0.401   9.341  22.066  0.00  0.00    +0.000 C 
ATOM     25  C   UNL     1       0.825  10.640  21.400  0.00  0.00    +0.000 C 
ATOM     26  O   UNL     1       0.759  10.528  19.972  0.00  0.00    +0.000 OA
ENDBRANCH  15  17
ENDBRANCH   2  15
TORSDOF 4
ENDMDL
