MODEL 1
REMARK VINA RESULT:      -6.3      0.000      0.000
REMARK  Name = 
REMARK  4 active torsions:
REMARK  status: ('A' for Active; 'I' for Inactive)
REMARK    1  A    between atoms: C_2  and  O_3
REMARK    2  A    between atoms: C_2  and  C_4
REMARK    3  A    between atoms: C_4  and  C_5
REMARK    4  A    between atoms: C_5  and  C_6
REMARK                            x       y       z     vdW  Elec       q    Type
REMARK                         _______ _______ _______ _____ _____    ______ ____
ROOT
ATOM      1  C   UNL     1       4.962   4.411  18.982  0.00  0.00    +0.000 C 
ATOM      2  C   UNL     1       3.984   5.069  17.992  0.00  0.00    +0.000 C 
ATOM      3  C   UNL     1       4.379   6.486  17.569  0.00  0.00    +0.000 C 
ATOM      4  C   UNL     1       5.695   6.580  16.805  0.00  0.00    +0.000 C 
ATOM      5  C   UNL     1       6.911   6.242  17.660  0.00  0.00    +0.000 C 
ATOM      6  C   UNL     1       7.141   4.755  17.741  0.00  0.00    +0.000 C 
ATOM      7  O   UNL     1       8.163   4.222  17.312  0.00  0.00    +0.000 OA
ATOM      8  N   UNL     1       6.177   3.977  18.304  0.00  0.00    +0.000 N 
ATOM      9  H   UNL     1       6.401   2.992  18.246  0.00  0.00    +0.000 HD
ENDROOT
BRANCH   1  10
ATOM     10  C   UNL     1       4.276   3.204  19.662  0.00  0.00    +0.000 C 
BRANCH  10  11
ATOM     11  C   UNL     1       2.744   3.240  19.641  0.00  0.00    +0.000 C 
BRANCH  11  13
ATOM     12  O   UNL     1       2.772   2.536  21.954  0.00  0.00    +0.000 OA
ATOM     13  C   UNL     1       2.132   2.872  20.969  0.00  0.00    +0.000 C 
BRANCH  13  14
ATOM     14  O   UNL     1       0.786   2.991  20.984  0.00  0.00    +0.000 OA
ATOM     15  H   UNL     1       0.437   3.754  20.487  0.00  0.00    +0.000 HD
ENDBRANCH  13  14
ENDBRANCH  11  13
ENDBRANCH  10  11
ENDBRANCH   1  10
TORSDOF 4
ENDMDL
MODEL 2
REMARK VINA RESULT:      -6.2      1.905      5.224
REMARK  Name = 
REMARK  4 active torsions:
REMARK  status: ('A' for Active; 'I' for Inactive)
REMARK    1  A    between atoms: C_2  and  O_3
REMARK    2  A    between atoms: C_2  and  C_4
REMARK    3  A    between atoms: C_4  and  C_5
REMARK    4  A    between atoms: C_5  and  C_6
REMARK                            x       y       z     vdW  Elec       q    Type
REMARK                         _______ _______ _______ _____ _____    ______ ____
ROOT
ATOM      1  C   UNL     1       4.035   3.574  17.263  0.00  0.00    +0.000 C 
ATOM      2  C   UNL     1       3.114   4.762  17.594  0.00  0.00    +0.000 C 
ATOM      3  C   UNL     1       1.809   4.369  18.289  0.00  0.00    +0.000 C 
ATOM      4  C   UNL     1       1.985   3.728  19.662  0.00  0.00    +0.000 C 
ATOM      5  C   UNL     1       2.644   2.355  19.603  0.00  0.00    +0.000 C 
ATOM      6  C   UNL     1       4.146   2.459  19.533  0.00  0.00    +0.000 C 
ATOM      7  O   UNL     1       4.880   2.005  20.408  0.00  0.00    +0.000 OA
ATOM      8  N   UNL     1       4.705   3.085  18.461  0.00  0.00    +0.000 N 
ATOM      9  H   UNL     1       5.711   3.159  18.546  0.00  0.00    +0.000 HD
ENDROOT
BRANCH   1  10
ATOM     10  C   UNL     1       5.082   4.008  16.212  0.00  0.00    +0.000 C 
BRANCH  10  11
ATOM     11  C   UNL     1       5.625   5.430  16.394  0.00  0.00    +0.000 C 
BRANCH  11  13
ATOM     12  O   UNL     1       7.818   4.478  16.752  0.00  0.00    +0.000 OA
ATOM     13  C   UNL     1       7.119   5.466  16.584  0.00  0.00    +0.000 C 
BRANCH  13  14
ATOM     14  O   UNL     1       7.634   6.713  16.510  0.00  0.00    +0.000 OA
ATOM     15  H   UNL     1       7.806   7.137  17.372  0.00  0.00    +0.000 HD
ENDBRANCH  13  14
ENDBRANCH  11  13
ENDBRANCH  10  11
ENDBRANCH   1  10
TORSDOF 4
ENDMDL
MODEL 3
REMARK VINA RESULT:      -6.2      1.798      5.182
REMARK  Name = 
REMARK  4 active torsions:
REMARK  status: ('A' for Active; 'I' for Inactive)
REMARK    1  A    between atoms: C_2  and  O_3
REMARK    2  A    between atoms: C_2  and  C_4
REMARK    3  A    between atoms: C_4  and  C_5
REMARK    4  A    between atoms: C_5  and  C_6
REMARK                            x       y       z     vdW  Elec       q    Type
REMARK                         _______ _______ _______ _____ _____    ______ ____
ROOT
ATOM      1  C   UNL     1       4.173   4.566  18.007  0.00  0.00    +0.000 C 
ATOM      2  C   UNL     1       2.685   4.932  18.152  0.00  0.00    +0.000 C 
ATOM      3  C   UNL     1       1.724   3.779  17.852  0.00  0.00    +0.000 C 
ATOM      4  C   UNL     1       1.839   2.590  18.802  0.00  0.00    +0.000 C 
ATOM      5  C   UNL     1       3.158   1.839  18.665  0.00  0.00    +0.000 C 
ATOM      6  C   UNL     1       4.258   2.495  19.459  0.00  0.00    +0.000 C 
ATOM      7  O   UNL     1       4.830   1.926  20.387  0.00  0.00    +0.000 OA
ATOM      8  N   UNL     1       4.624   3.765  19.138  0.00  0.00    +0.000 N 
ATOM      9  H   UNL     1       5.320   4.133  19.774  0.00  0.00    +0.000 HD
ENDROOT
BRANCH   1  10
ATOM     10  C   UNL     1       5.015   5.858  17.904  0.00  0.00    +0.000 C 
BRANCH  10  11
ATOM     11  C   UNL     1       6.495   5.691  18.267  0.00  0.00    +0.000 C 
BRANCH  11  13
ATOM     12  O   UNL     1       7.446   5.953  16.060  0.00  0.00    +0.000 OA
ATOM     13  C   UNL     1       7.347   5.299  17.087  0.00  0.00    +0.000 C 
BRANCH  13  14
ATOM     14  O   UNL     1       8.037   4.155  17.288  0.00  0.00    +0.000 OA
ATOM     15  H   UNL     1       8.275   3.978  18.217  0.00  0.00    +0.000 HD
ENDBRANCH  13  14
ENDBRANCH  11  13
ENDBRANCH  10  11
ENDBRANCH   1  10
TORSDOF 4
ENDMDL
MODEL 4
REMARK VINA RESULT:      -6.2      1.923      5.074
REMARK  Name = 
REMARK  4 active torsions:
REMARK  status: ('A' for Active; 'I' for Inactive)
REMARK    1  A    between atoms: C_2  and  O_3
REMARK    2  A    between atoms: C_2  and  C_4
REMARK    3  A    between atoms: C_4  and  C_5
REMARK    4  A    between atoms: C_5  and  C_6
REMARK                            x       y       z     vdW  Elec       q    Type
REMARK                         _______ _______ _______ _____ _____    ______ ____
ROOT
ATOM      1  C   UNL     1       3.798   3.704  17.720  0.00  0.00    +0.000 C 
ATOM      2  C   UNL     1       3.251   5.033  18.272  0.00  0.00    +0.000 C 
ATOM      3  C   UNL     1       2.115   4.870  19.285  0.00  0.00    +0.000 C 
ATOM      4  C   UNL     1       2.505   4.144  20.568  0.00  0.00    +0.000 C 
ATOM      5  C   UNL     1       2.836   2.673  20.348  0.00  0.00    +0.000 C 
ATOM      6  C   UNL     1       4.259   2.484  19.889  0.00  0.00    +0.000 C 
ATOM      7  O   UNL     1       5.086   1.855  20.546  0.00  0.00    +0.000 OA
ATOM      8  N   UNL     1       4.639   3.038  18.706  0.00  0.00    +0.000 N 
ATOM      9  H   UNL     1       5.627   2.910  18.526  0.00  0.00    +0.000 HD
ENDROOT
BRANCH   1  10
ATOM     10  C   UNL     1       4.607   3.973  16.430  0.00  0.00    +0.000 C 
BRANCH  10  11
ATOM     11  C   UNL     1       5.274   5.352  16.366  0.00  0.00    +0.000 C 
BRANCH  11  13
ATOM     12  O   UNL     1       7.551   6.115  16.088  0.00  0.00    +0.000 OA
ATOM     13  C   UNL     1       6.771   5.285  16.529  0.00  0.00    +0.000 C 
BRANCH  13  14
ATOM     14  O   UNL     1       7.178   4.223  17.259  0.00  0.00    +0.000 OA
ATOM     15  H   UNL     1       7.913   4.407  17.874  0.00  0.00    +0.000 HD
ENDBRANCH  13  14
ENDBRANCH  11  13
ENDBRANCH  10  11
ENDBRANCH   1  10
TORSDOF 4
ENDMDL
MODEL 5
REMARK VINA RESULT:      -6.2      2.014      5.482
REMARK  Name = 
REMARK  4 active torsions:
REMARK  status: ('A' for Active; 'I' for Inactive)
REMARK    1  A    between atoms: C_2  and  O_3
REMARK    2  A    between atoms: C_2  and  C_4
REMARK    3  A    between atoms: C_4  and  C_5
REMARK    4  A    between atoms: C_5  and  C_6
REMARK                            x       y       z     vdW  Elec       q    Type
REMARK                         _______ _______ _______ _____ _____    ______ ____
ROOT
ATOM      1  C   UNL     1       4.133   4.255  17.519  0.00  0.00    +0.000 C 
ATOM      2  C   UNL     1       2.767   4.888  17.837  0.00  0.00    +0.000 C 
ATOM      3  C   UNL     1       1.617   3.882  17.933  0.00  0.00    +0.000 C 
ATOM      4  C   UNL     1       1.752   2.865  19.062  0.00  0.00    +0.000 C 
ATOM      5  C   UNL     1       2.903   1.888  18.855  0.00  0.00    +0.000 C 
ATOM      6  C   UNL     1       4.217   2.469  19.311  0.00  0.00    +0.000 C 
ATOM      7  O   UNL     1       4.877   1.973  20.222  0.00  0.00    +0.000 OA
ATOM      8  N   UNL     1       4.684   3.588  18.692  0.00  0.00    +0.000 N 
ATOM      9  H   UNL     1       5.535   3.932  19.119  0.00  0.00    +0.000 HD
ENDROOT
BRANCH   1  10
ATOM     10  C   UNL     1       5.109   5.349  17.027  0.00  0.00    +0.000 C 
BRANCH  10  11
ATOM     11  C   UNL     1       5.553   5.204  15.568  0.00  0.00    +0.000 C 
BRANCH  11  13
ATOM     12  O   UNL     1       7.684   5.364  14.436  0.00  0.00    +0.000 OA
ATOM     13  C   UNL     1       7.044   5.037  15.424  0.00  0.00    +0.000 C 
BRANCH  13  14
ATOM     14  O   UNL     1       7.629   4.520  16.527  0.00  0.00    +0.000 OA
ATOM     15  H   UNL     1       7.068   3.906  17.038  0.00  0.00    +0.000 HD
ENDBRANCH  13  14
ENDBRANCH  11  13
ENDBRANCH  10  11
ENDBRANCH   1  10
TORSDOF 4
ENDMDL
MODEL 6
REMARK VINA RESULT:      -6.1      1.730      5.575
REMARK  Name = 
REMARK  4 active torsions:
REMARK  status: ('A' for Active; 'I' for Inactive)
REMARK    1  A    between atoms: C_2  and  O_3
REMARK    2  A    between atoms: C_2  and  C_4
REMARK    3  A    between atoms: C_4  and  C_5
REMARK    4  A    between atoms: C_5  and  C_6
REMARK                            x       y       z     vdW  Elec       q    Type
REMARK                         _______ _______ _______ _____ _____    ______ ____
ROOT
ATOM      1  C   UNL     1       3.934   3.763  18.342  0.00  0.00    +0.000 C 
ATOM      2  C   UNL     1       2.771   4.700  17.967  0.00  0.00    +0.000 C 
ATOM      3  C   UNL     1       1.407   4.010  17.899  0.00  0.00    +0.000 C 
ATOM      4  C   UNL     1       0.919   3.431  19.224  0.00  0.00    +0.000 C 
ATOM      5  C   UNL     1       1.755   2.253  19.709  0.00  0.00    +0.000 C 
ATOM      6  C   UNL     1       2.990   2.710  20.441  0.00  0.00    +0.000 C 
ATOM      7  O   UNL     1       3.192   2.444  21.624  0.00  0.00    +0.000 OA
ATOM      8  N   UNL     1       3.911   3.448  19.764  0.00  0.00    +0.000 N 
ATOM      9  H   UNL     1       4.665   3.759  20.364  0.00  0.00    +0.000 HD
ENDROOT
BRANCH   1  10
ATOM     10  C   UNL     1       5.277   4.432  17.969  0.00  0.00    +0.000 C 
BRANCH  10  11
ATOM     11  C   UNL     1       5.735   4.193  16.526  0.00  0.00    +0.000 C 
BRANCH  11  13
ATOM     12  O   UNL     1       7.454   5.476  15.411  0.00  0.00    +0.000 OA
ATOM     13  C   UNL     1       7.143   4.669  16.273  0.00  0.00    +0.000 C 
BRANCH  13  14
ATOM     14  O   UNL     1       8.044   4.141  17.130  0.00  0.00    +0.000 OA
ATOM     15  H   UNL     1       8.387   3.264  16.875  0.00  0.00    +0.000 HD
ENDBRANCH  13  14
ENDBRANCH  11  13
ENDBRANCH  10  11
ENDBRANCH   1  10
TORSDOF 4
ENDMDL
MODEL 7
REMARK VINA RESULT:      -6.1      1.802      4.884
REMARK  Name = 
REMARK  4 active torsions:
REMARK  status: ('A' for Active; 'I' for Inactive)
REMARK    1  A    between atoms: C_2  and  O_3
REMARK    2  A    between atoms: C_2  and  C_4
REMARK    3  A    between atoms: C_4  and  C_5
REMARK    4  A    between atoms: C_5  and  C_6
REMARK                            x       y       z     vdW  Elec       q    Type
REMARK                         _______ _______ _______ _____ _____    ______ ____
ROOT
ATOM      1  C   UNL     1       4.067   3.653  17.412  0.00  0.00    +0.000 C 
ATOM      2  C   UNL     1       3.187   4.871  17.745  0.00  0.00    +0.000 C 
ATOM      3  C   UNL     1       1.840   4.516  18.380  0.00  0.00    +0.000 C 
ATOM      4  C   UNL     1       1.938   3.829  19.739  0.00  0.00    +0.000 C 
ATOM      5  C   UNL     1       2.538   2.430  19.662  0.00  0.00    +0.000 C 
ATOM      6  C   UNL     1       4.045   2.470  19.649  0.00  0.00    +0.000 C 
ATOM      7  O   UNL     1       4.726   1.959  20.536  0.00  0.00    +0.000 OA
ATOM      8  N   UNL     1       4.670   3.101  18.618  0.00  0.00    +0.000 N 
ATOM      9  H   UNL     1       5.674   3.128  18.741  0.00  0.00    +0.000 HD
ENDROOT
BRANCH   1  10
ATOM     10  C   UNL     1       5.170   4.071  16.412  0.00  0.00    +0.000 C 
BRANCH  10  11
ATOM     11  C   UNL     1       6.052   5.234  16.878  0.00  0.00    +0.000 C 
BRANCH  11  13
ATOM     12  O   UNL     1       7.169   4.985  19.008  0.00  0.00    +0.000 OA
ATOM     13  C   UNL     1       7.160   4.796  17.801  0.00  0.00    +0.000 C 
BRANCH  13  14
ATOM     14  O   UNL     1       8.145   4.124  17.166  0.00  0.00    +0.000 OA
ATOM     15  H   UNL     1       8.784   4.687  16.690  0.00  0.00    +0.000 HD
ENDBRANCH  13  14
ENDBRANCH  11  13
ENDBRANCH  10  11
ENDBRANCH   1  10
TORSDOF 4
ENDMDL
MODEL 8
REMARK VINA RESULT:      -6.0      1.052      1.176
REMARK  Name = 
REMARK  4 active torsions:
REMARK  status: ('A' for Active; 'I' for Inactive)
REMARK    1  A    between atoms: C_2  and  O_3
REMARK    2  A    between atoms: C_2  and  C_4
REMARK    3  A    between atoms: C_4  and  C_5
REMARK    4  A    between atoms: C_5  and  C_6
REMARK                            x       y       z     vdW  Elec       q    Type
REMARK                         _______ _______ _______ _____ _____    ______ ____
ROOT
ATOM      1  C   UNL     1       4.925   4.283  18.865  0.00  0.00    +0.000 C 
ATOM      2  C   UNL     1       3.951   4.921  17.858  0.00  0.00    +0.000 C 
ATOM      3  C   UNL     1       4.308   6.357  17.466  0.00  0.00    +0.000 C 
ATOM      4  C   UNL     1       5.641   6.507  16.739  0.00  0.00    +0.000 C 
ATOM      5  C   UNL     1       6.844   6.198  17.623  0.00  0.00    +0.000 C 
ATOM      6  C   UNL     1       7.122   4.719  17.688  0.00  0.00    +0.000 C 
ATOM      7  O   UNL     1       8.173   4.227  17.281  0.00  0.00    +0.000 OA
ATOM      8  N   UNL     1       6.171   3.900  18.214  0.00  0.00    +0.000 N 
ATOM      9  H   UNL     1       6.430   2.924  18.149  0.00  0.00    +0.000 HD
ENDROOT
BRANCH   1  10
ATOM     10  C   UNL     1       4.262   3.043  19.509  0.00  0.00    +0.000 C 
BRANCH  10  11
ATOM     11  C   UNL     1       3.273   2.300  18.605  0.00  0.00    +0.000 C 
BRANCH  11  13
ATOM     12  O   UNL     1       1.672   2.299  20.416  0.00  0.00    +0.000 OA
ATOM     13  C   UNL     1       1.908   2.155  19.226  0.00  0.00    +0.000 C 
BRANCH  13  14
ATOM     14  O   UNL     1       0.939   1.885  18.323  0.00  0.00    +0.000 OA
ATOM     15  H   UNL     1       0.939   0.970  17.984  0.00  0.00    +0.000 HD
ENDBRANCH  13  14
ENDBRANCH  11  13
ENDBRANCH  10  11
ENDBRANCH   1  10
TORSDOF 4
ENDMDL
MODEL 9
REMARK VINA RESULT:      -6.0      1.963      2.386
REMARK  Name = 
REMARK  4 active torsions:
REMARK  status: ('A' for Active; 'I' for Inactive)
REMARK    1  A    between atoms: C_2  and  O_3
REMARK    2  A    between atoms: C_2  and  C_4
REMARK    3  A    between atoms: C_4  and  C_5
REMARK    4  A    between atoms: C_5  and  C_6
REMARK                            x       y       z     vdW  Elec       q    Type
REMARK                         _______ _______ _______ _____ _____    ______ ____
ROOT
ATOM      1  C   UNL     1       4.337   5.173  17.929  0.00  0.00    +0.000 C 
ATOM      2  C   UNL     1       4.657   4.119  16.853  0.00  0.00    +0.000 C 
ATOM      3  C   UNL     1       5.861   4.467  15.974  0.00  0.00    +0.000 C 
ATOM      4  C   UNL     1       7.189   4.556  16.719  0.00  0.00    +0.000 C 
ATOM      5  C   UNL     1       7.257   5.732  17.686  0.00  0.00    +0.000 C 
ATOM      6  C   UNL     1       6.615   5.403  19.009  0.00  0.00    +0.000 C 
ATOM      7  O   UNL     1       7.245   5.396  20.065  0.00  0.00    +0.000 OA
ATOM      8  N   UNL     1       5.289   5.099  19.030  0.00  0.00    +0.000 N 
ATOM      9  H   UNL     1       4.975   4.829  19.954  0.00  0.00    +0.000 HD
ENDROOT
BRANCH   1  10
ATOM     10  C   UNL     1       2.900   4.955  18.455  0.00  0.00    +0.000 C 
BRANCH  10  11
ATOM     11  C   UNL     1       2.078   3.925  17.673  0.00  0.00    +0.000 C 
BRANCH  11  13
ATOM     12  O   UNL     1       0.739   3.004  19.462  0.00  0.00    +0.000 OA
ATOM     13  C   UNL     1       1.530   2.827  18.548  0.00  0.00    +0.000 C 
BRANCH  13  14
ATOM     14  O   UNL     1       1.970   1.599  18.197  0.00  0.00    +0.000 OA
ATOM     15  H   UNL     1       2.513   1.574  17.387  0.00  0.00    +0.000 HD
ENDBRANCH  13  14
ENDBRANCH  11  13
ENDBRANCH  10  11
ENDBRANCH   1  10
TORSDOF 4
ENDMDL
