MODEL 1
REMARK VINA RESULT:      -7.0      0.000      0.000
REMARK  Name = 
REMARK  7 active torsions:
REMARK  status: ('A' for Active; 'I' for Inactive)
REMARK    1  A    between atoms: C_1  and  O_2
REMARK    2  A    between atoms: O_2  and  C_3
REMARK    3  A    between atoms: C_8  and  O_9
REMARK    4  A    between atoms: O_9  and  C_10
REMARK    5  A    between atoms: C_11  and  C_12
REMARK    6  A    between atoms: N_18  and  C_19
REMARK    7  A    between atoms: C_23  and  O_24
REMARK                            x       y       z     vdW  Elec       q    Type
REMARK                         _______ _______ _______ _____ _____    ______ ____
ROOT
ATOM      1  C   UNL     1       6.386   5.423  16.648  0.00  0.00    +0.000 A 
ATOM      2  C   UNL     1       5.294   6.199  16.247  0.00  0.00    +0.000 A 
ATOM      3  C   UNL     1       4.340   6.627  17.173  0.00  0.00    +0.000 A 
ATOM      4  C   UNL     1       4.429   6.227  18.514  0.00  0.00    +0.000 A 
ATOM      5  C   UNL     1       5.554   5.483  18.924  0.00  0.00    +0.000 A 
ATOM      6  C   UNL     1       6.553   5.105  18.007  0.00  0.00    +0.000 A 
ATOM      7  C   UNL     1       3.281   6.544  19.483  0.00  0.00    +0.000 C 
ATOM      8  N   UNL     1       2.580   7.831  19.213  0.00  0.00    +0.000 NA
ATOM      9  C   UNL     1       2.836   8.456  17.915  0.00  0.00    +0.000 C 
ATOM     10  C   UNL     1       3.210   7.521  16.764  0.00  0.00    +0.000 C 
ENDROOT
BRANCH   7  11
ATOM     11  C   UNL     1       2.342   5.332  19.629  0.00  0.00    +0.000 A 
ATOM     12  C   UNL     1       1.809   4.715  18.481  0.00  0.00    +0.000 A 
ATOM     13  C   UNL     1       1.075   3.533  18.584  0.00  0.00    +0.000 A 
ATOM     14  C   UNL     1       0.840   2.958  19.832  0.00  0.00    +0.000 A 
ATOM     15  C   UNL     1       1.315   3.583  20.979  0.00  0.00    +0.000 A 
ATOM     16  C   UNL     1       2.050   4.764  20.880  0.00  0.00    +0.000 A 
ENDBRANCH   7  11
BRANCH   8  17
ATOM     17  C   UNL     1       1.260   8.047  19.824  0.00  0.00    +0.000 C 
ATOM     18  C   UNL     1       1.299   8.066  21.370  0.00  0.00    +0.000 C 
ATOM     19  C   UNL     1       0.199   9.026  21.835  0.00  0.00    +0.000 C 
ATOM     20  C   UNL     1      -0.576   9.407  20.582  0.00  0.00    +0.000 C 
ATOM     21  C   UNL     1       0.478   9.348  19.486  0.00  0.00    +0.000 C 
BRANCH  21  22
ATOM     22  O   UNL     1       1.277  10.530  19.548  0.00  0.00    +0.000 OA
ATOM     23  H   UNL     1       1.945  10.468  18.838  0.00  0.00    +0.000 HD
ENDBRANCH  21  22
ENDBRANCH   8  17
BRANCH   1  25
ATOM     24  C   UNL     1       6.639   4.483  14.480  0.00  0.00    +0.000 C 
ATOM     25  O   UNL     1       7.233   5.102  15.616  0.00  0.00    +0.000 OA
ENDBRANCH   1  25
BRANCH   6  26
ATOM     26  O   UNL     1       7.702   4.450  18.360  0.00  0.00    +0.000 OA
ATOM     27  C   UNL     1       8.496   4.988  19.407  0.00  0.00    +0.000 C 
ENDBRANCH   6  26
TORSDOF 5
ENDMDL
MODEL 2
REMARK VINA RESULT:      -6.4      5.652      8.990
REMARK  Name = 
REMARK  7 active torsions:
REMARK  status: ('A' for Active; 'I' for Inactive)
REMARK    1  A    between atoms: C_1  and  O_2
REMARK    2  A    between atoms: O_2  and  C_3
REMARK    3  A    between atoms: C_8  and  O_9
REMARK    4  A    between atoms: O_9  and  C_10
REMARK    5  A    between atoms: C_11  and  C_12
REMARK    6  A    between atoms: N_18  and  C_19
REMARK    7  A    between atoms: C_23  and  O_24
REMARK                            x       y       z     vdW  Elec       q    Type
REMARK                         _______ _______ _______ _____ _____    ______ ____
ROOT
ATOM      1  C   UNL     1      -4.659  11.315  17.793  0.00  0.00    +0.000 A 
ATOM      2  C   UNL     1      -4.272  11.914  18.996  0.00  0.00    +0.000 A 
ATOM      3  C   UNL     1      -2.932  12.221  19.245  0.00  0.00    +0.000 A 
ATOM      4  C   UNL     1      -1.943  11.870  18.315  0.00  0.00    +0.000 A 
ATOM      5  C   UNL     1      -2.341  11.308  17.085  0.00  0.00    +0.000 A 
ATOM      6  C   UNL     1      -3.697  11.057  16.802  0.00  0.00    +0.000 A 
ATOM      7  C   UNL     1      -0.461  12.040  18.677  0.00  0.00    +0.000 C 
ATOM      8  N   UNL     1      -0.168  13.205  19.559  0.00  0.00    +0.000 NA
ATOM      9  C   UNL     1      -1.314  13.830  20.221  0.00  0.00    +0.000 C 
ATOM     10  C   UNL     1      -2.521  12.931  20.499  0.00  0.00    +0.000 C 
ENDROOT
BRANCH   7  11
ATOM     11  C   UNL     1       0.134  10.708  19.171  0.00  0.00    +0.000 A 
ATOM     12  C   UNL     1       1.046  10.004  18.363  0.00  0.00    +0.000 A 
ATOM     13  C   UNL     1       1.703   8.874  18.850  0.00  0.00    +0.000 A 
ATOM     14  C   UNL     1       1.447   8.412  20.140  0.00  0.00    +0.000 A 
ATOM     15  C   UNL     1       0.509   9.065  20.931  0.00  0.00    +0.000 A 
ATOM     16  C   UNL     1      -0.149  10.196  20.449  0.00  0.00    +0.000 A 
ENDBRANCH   7  11
BRANCH   8  17
ATOM     17  C   UNL     1       1.125  13.241  20.259  0.00  0.00    +0.000 C 
ATOM     18  C   UNL     1       2.334  13.354  19.302  0.00  0.00    +0.000 C 
ATOM     19  C   UNL     1       3.416  14.151  20.037  0.00  0.00    +0.000 C 
ATOM     20  C   UNL     1       2.905  14.331  21.459  0.00  0.00    +0.000 C 
ATOM     21  C   UNL     1       1.394  14.380  21.284  0.00  0.00    +0.000 C 
BRANCH  21  22
ATOM     22  O   UNL     1       1.023  15.675  20.813  0.00  0.00    +0.000 OA
ATOM     23  H   UNL     1       0.426  15.549  20.051  0.00  0.00    +0.000 HD
ENDBRANCH  21  22
ENDBRANCH   8  17
BRANCH   1  25
ATOM     24  C   UNL     1      -6.622  10.458  18.823  0.00  0.00    +0.000 C 
ATOM     25  O   UNL     1      -6.012  11.096  17.706  0.00  0.00    +0.000 OA
ENDBRANCH   1  25
BRANCH   6  26
ATOM     26  O   UNL     1      -4.148  10.584  15.599  0.00  0.00    +0.000 OA
ATOM     27  C   UNL     1      -3.195  10.170  14.632  0.00  0.00    +0.000 C 
ENDBRANCH   6  26
TORSDOF 5
ENDMDL
MODEL 3
REMARK VINA RESULT:      -6.2      5.611      9.019
REMARK  Name = 
REMARK  7 active torsions:
REMARK  status: ('A' for Active; 'I' for Inactive)
REMARK    1  A    between atoms: C_1  and  O_2
REMARK    2  A    between atoms: O_2  and  C_3
REMARK    3  A    between atoms: C_8  and  O_9
REMARK    4  A    between atoms: O_9  and  C_10
REMARK    5  A    between atoms: C_11  and  C_12
REMARK    6  A    between atoms: N_18  and  C_19
REMARK    7  A    between atoms: C_23  and  O_24
REMARK                            x       y       z     vdW  Elec       q    Type
REMARK                         _______ _______ _______ _____ _____    ______ ____
ROOT
ATOM      1  C   UNL     1      -4.433  11.281  17.956  0.00  0.00    +0.000 A 
ATOM      2  C   UNL     1      -4.033  11.879  19.155  0.00  0.00    +0.000 A 
ATOM      3  C   UNL     1      -2.701  12.239  19.367  0.00  0.00    +0.000 A 
ATOM      4  C   UNL     1      -1.728  11.944  18.402  0.00  0.00    +0.000 A 
ATOM      5  C   UNL     1      -2.140  11.382  17.177  0.00  0.00    +0.000 A 
ATOM      6  C   UNL     1      -3.492  11.078  16.931  0.00  0.00    +0.000 A 
ATOM      7  C   UNL     1      -0.243  12.172  18.721  0.00  0.00    +0.000 C 
ATOM      8  N   UNL     1       0.028  13.335  19.611  0.00  0.00    +0.000 NA
ATOM      9  C   UNL     1      -1.122  13.902  20.317  0.00  0.00    +0.000 C 
ATOM     10  C   UNL     1      -2.281  12.949  20.618  0.00  0.00    +0.000 C 
ENDROOT
BRANCH   7  11
ATOM     11  C   UNL     1       0.423  10.860  19.176  0.00  0.00    +0.000 A 
ATOM     12  C   UNL     1       0.111  10.314  20.435  0.00  0.00    +0.000 A 
ATOM     13  C   UNL     1       0.592   9.058  20.805  0.00  0.00    +0.000 A 
ATOM     14  C   UNL     1       1.409   8.334  19.938  0.00  0.00    +0.000 A 
ATOM     15  C   UNL     1       1.770   8.882  18.713  0.00  0.00    +0.000 A 
ATOM     16  C   UNL     1       1.290  10.138  18.338  0.00  0.00    +0.000 A 
ENDBRANCH   7  11
BRANCH   8  17
ATOM     17  C   UNL     1       1.339  13.418  20.271  0.00  0.00    +0.000 C 
ATOM     18  C   UNL     1       2.510  13.613  19.280  0.00  0.00    +0.000 C 
ATOM     19  C   UNL     1       3.577  14.443  20.001  0.00  0.00    +0.000 C 
ATOM     20  C   UNL     1       3.103  14.563  21.443  0.00  0.00    +0.000 C 
ATOM     21  C   UNL     1       1.587  14.542  21.316  0.00  0.00    +0.000 C 
BRANCH  21  22
ATOM     22  O   UNL     1       1.139  15.830  20.891  0.00  0.00    +0.000 OA
ATOM     23  H   UNL     1       1.555  16.492  21.475  0.00  0.00    +0.000 HD
ENDBRANCH  21  22
ENDBRANCH   8  17
BRANCH   1  25
ATOM     24  C   UNL     1      -6.644  12.120  17.726  0.00  0.00    +0.000 C 
ATOM     25  O   UNL     1      -5.778  11.005  17.907  0.00  0.00    +0.000 OA
ENDBRANCH   1  25
BRANCH   6  26
ATOM     26  O   UNL     1      -3.961  10.603  15.736  0.00  0.00    +0.000 OA
ATOM     27  C   UNL     1      -3.022  10.180  14.759  0.00  0.00    +0.000 C 
ENDBRANCH   6  26
TORSDOF 5
ENDMDL
MODEL 4
REMARK VINA RESULT:      -6.1      6.075      8.950
REMARK  Name = 
REMARK  7 active torsions:
REMARK  status: ('A' for Active; 'I' for Inactive)
REMARK    1  A    between atoms: C_1  and  O_2
REMARK    2  A    between atoms: O_2  and  C_3
REMARK    3  A    between atoms: C_8  and  O_9
REMARK    4  A    between atoms: O_9  and  C_10
REMARK    5  A    between atoms: C_11  and  C_12
REMARK    6  A    between atoms: N_18  and  C_19
REMARK    7  A    between atoms: C_23  and  O_24
REMARK                            x       y       z     vdW  Elec       q    Type
REMARK                         _______ _______ _______ _____ _____    ______ ____
ROOT
ATOM      1  C   UNL     1      -4.355  11.079  17.895  0.00  0.00    +0.000 A 
ATOM      2  C   UNL     1      -4.193  11.997  18.937  0.00  0.00    +0.000 A 
ATOM      3  C   UNL     1      -2.919  12.349  19.390  0.00  0.00    +0.000 A 
ATOM      4  C   UNL     1      -1.782  11.734  18.847  0.00  0.00    +0.000 A 
ATOM      5  C   UNL     1      -1.947  10.844  17.767  0.00  0.00    +0.000 A 
ATOM      6  C   UNL     1      -3.224  10.535  17.262  0.00  0.00    +0.000 A 
ATOM      7  C   UNL     1      -0.404  11.987  19.476  0.00  0.00    +0.000 C 
ATOM      8  N   UNL     1      -0.222  13.353  20.039  0.00  0.00    +0.000 NA
ATOM      9  C   UNL     1      -1.433  14.155  20.220  0.00  0.00    +0.000 C 
ATOM     10  C   UNL     1      -2.736  13.388  20.454  0.00  0.00    +0.000 C 
ENDROOT
BRANCH   7  11
ATOM     11  C   UNL     1      -0.033  10.849  20.445  0.00  0.00    +0.000 A 
ATOM     12  C   UNL     1       0.803   9.803  20.012  0.00  0.00    +0.000 A 
ATOM     13  C   UNL     1       1.266   8.842  20.912  0.00  0.00    +0.000 A 
ATOM     14  C   UNL     1       0.886   8.894  22.252  0.00  0.00    +0.000 A 
ATOM     15  C   UNL     1       0.018   9.889  22.685  0.00  0.00    +0.000 A 
ATOM     16  C   UNL     1      -0.445  10.853  21.788  0.00  0.00    +0.000 A 
ENDBRANCH   7  11
BRANCH   8  17
ATOM     17  C   UNL     1       0.888  13.578  20.977  0.00  0.00    +0.000 C 
ATOM     18  C   UNL     1       2.263  13.156  20.409  0.00  0.00    +0.000 C 
ATOM     19  C   UNL     1       3.309  14.095  21.017  0.00  0.00    +0.000 C 
ATOM     20  C   UNL     1       2.568  14.922  22.058  0.00  0.00    +0.000 C 
ATOM     21  C   UNL     1       1.160  15.021  21.490  0.00  0.00    +0.000 C 
BRANCH  21  22
ATOM     22  O   UNL     1       1.145  16.008  20.459  0.00  0.00    +0.000 OA
ATOM     23  H   UNL     1       1.042  15.541  19.608  0.00  0.00    +0.000 HD
ENDBRANCH  21  22
ENDBRANCH   8  17
BRANCH   1  25
ATOM     24  C   UNL     1      -6.579  10.719  18.652  0.00  0.00    +0.000 C 
ATOM     25  O   UNL     1      -5.670  10.858  17.565  0.00  0.00    +0.000 OA
ENDBRANCH   1  25
BRANCH   6  26
ATOM     26  O   UNL     1      -3.439   9.739  16.170  0.00  0.00    +0.000 OA
ATOM     27  C   UNL     1      -3.129  10.253  14.883  0.00  0.00    +0.000 C 
ENDBRANCH   6  26
TORSDOF 5
ENDMDL
MODEL 5
REMARK VINA RESULT:      -6.0      6.537      8.736
REMARK  Name = 
REMARK  7 active torsions:
REMARK  status: ('A' for Active; 'I' for Inactive)
REMARK    1  A    between atoms: C_1  and  O_2
REMARK    2  A    between atoms: O_2  and  C_3
REMARK    3  A    between atoms: C_8  and  O_9
REMARK    4  A    between atoms: O_9  and  C_10
REMARK    5  A    between atoms: C_11  and  C_12
REMARK    6  A    between atoms: N_18  and  C_19
REMARK    7  A    between atoms: C_23  and  O_24
REMARK                            x       y       z     vdW  Elec       q    Type
REMARK                         _______ _______ _______ _____ _____    ______ ____
ROOT
ATOM      1  C   UNL     1       2.989  15.260  20.924  0.00  0.00    +0.000 A 
ATOM      2  C   UNL     1       2.677  14.564  19.752  0.00  0.00    +0.000 A 
ATOM      3  C   UNL     1       1.473  13.868  19.631  0.00  0.00    +0.000 A 
ATOM      4  C   UNL     1       0.584  13.802  20.713  0.00  0.00    +0.000 A 
ATOM      5  C   UNL     1       0.880  14.541  21.876  0.00  0.00    +0.000 A 
ATOM      6  C   UNL     1       2.061  15.299  21.979  0.00  0.00    +0.000 A 
ATOM      7  C   UNL     1      -0.644  12.883  20.636  0.00  0.00    +0.000 C 
ATOM      8  N   UNL     1      -1.235  12.750  19.275  0.00  0.00    +0.000 NA
ATOM      9  C   UNL     1      -0.417  13.223  18.157  0.00  0.00    +0.000 C 
ATOM     10  C   UNL     1       1.100  13.184  18.351  0.00  0.00    +0.000 C 
ENDROOT
BRANCH   7  11
ATOM     11  C   UNL     1      -0.362  11.540  21.337  0.00  0.00    +0.000 A 
ATOM     12  C   UNL     1      -0.920  11.278  22.601  0.00  0.00    +0.000 A 
ATOM     13  C   UNL     1      -0.795  10.018  23.187  0.00  0.00    +0.000 A 
ATOM     14  C   UNL     1      -0.095   9.005  22.534  0.00  0.00    +0.000 A 
ATOM     15  C   UNL     1       0.508   9.264  21.308  0.00  0.00    +0.000 A 
ATOM     16  C   UNL     1       0.384  10.522  20.719  0.00  0.00    +0.000 A 
ENDBRANCH   7  11
BRANCH   8  17
ATOM     17  C   UNL     1      -2.154  11.631  19.020  0.00  0.00    +0.000 C 
ATOM     18  C   UNL     1      -3.644  12.039  19.080  0.00  0.00    +0.000 C 
ATOM     19  C   UNL     1      -4.395  11.145  18.088  0.00  0.00    +0.000 C 
ATOM     20  C   UNL     1      -3.381  10.119  17.605  0.00  0.00    +0.000 C 
ATOM     21  C   UNL     1      -2.061  10.875  17.664  0.00  0.00    +0.000 C 
BRANCH  21  22
ATOM     22  O   UNL     1      -1.970  11.739  16.531  0.00  0.00    +0.000 OA
ATOM     23  H   UNL     1      -1.586  12.582  16.837  0.00  0.00    +0.000 HD
ENDBRANCH  21  22
ENDBRANCH   8  17
BRANCH   1  25
ATOM     24  C   UNL     1       4.266  17.066  20.053  0.00  0.00    +0.000 C 
ATOM     25  O   UNL     1       4.203  15.901  20.869  0.00  0.00    +0.000 OA
ENDBRANCH   1  25
BRANCH   6  26
ATOM     26  O   UNL     1       2.364  16.094  23.050  0.00  0.00    +0.000 OA
ATOM     27  C   UNL     1       1.797  17.394  23.112  0.00  0.00    +0.000 C 
ENDBRANCH   6  26
TORSDOF 5
ENDMDL
MODEL 6
REMARK VINA RESULT:      -5.9      6.339      9.262
REMARK  Name = 
REMARK  7 active torsions:
REMARK  status: ('A' for Active; 'I' for Inactive)
REMARK    1  A    between atoms: C_1  and  O_2
REMARK    2  A    between atoms: O_2  and  C_3
REMARK    3  A    between atoms: C_8  and  O_9
REMARK    4  A    between atoms: O_9  and  C_10
REMARK    5  A    between atoms: C_11  and  C_12
REMARK    6  A    between atoms: N_18  and  C_19
REMARK    7  A    between atoms: C_23  and  O_24
REMARK                            x       y       z     vdW  Elec       q    Type
REMARK                         _______ _______ _______ _____ _____    ______ ____
ROOT
ATOM      1  C   UNL     1      -4.665  11.386  18.291  0.00  0.00    +0.000 A 
ATOM      2  C   UNL     1      -4.447  12.276  19.347  0.00  0.00    +0.000 A 
ATOM      3  C   UNL     1      -3.152  12.622  19.738  0.00  0.00    +0.000 A 
ATOM      4  C   UNL     1      -2.045  12.027  19.116  0.00  0.00    +0.000 A 
ATOM      5  C   UNL     1      -2.266  11.165  18.023  0.00  0.00    +0.000 A 
ATOM      6  C   UNL     1      -3.569  10.865  17.582  0.00  0.00    +0.000 A 
ATOM      7  C   UNL     1      -0.635  12.268  19.674  0.00  0.00    +0.000 C 
ATOM      8  N   UNL     1      -0.426  13.620  20.264  0.00  0.00    +0.000 NA
ATOM      9  C   UNL     1      -1.627  14.411  20.532  0.00  0.00    +0.000 C 
ATOM     10  C   UNL     1      -2.913  13.633  20.818  0.00  0.00    +0.000 C 
ENDROOT
BRANCH   7  11
ATOM     11  C   UNL     1      -0.207  11.106  20.590  0.00  0.00    +0.000 A 
ATOM     12  C   UNL     1      -0.719  11.018  21.898  0.00  0.00    +0.000 A 
ATOM     13  C   UNL     1      -0.457   9.901  22.691  0.00  0.00    +0.000 A 
ATOM     14  C   UNL     1       0.338   8.864  22.205  0.00  0.00    +0.000 A 
ATOM     15  C   UNL     1       0.895   8.960  20.936  0.00  0.00    +0.000 A 
ATOM     16  C   UNL     1       0.634  10.075  20.139  0.00  0.00    +0.000 A 
ENDBRANCH   7  11
BRANCH   8  17
ATOM     17  C   UNL     1       0.734  13.825  21.144  0.00  0.00    +0.000 C 
ATOM     18  C   UNL     1       2.066  13.342  20.523  0.00  0.00    +0.000 C 
ATOM     19  C   UNL     1       3.171  14.256  21.061  0.00  0.00    +0.000 C 
ATOM     20  C   UNL     1       2.509  15.129  22.117  0.00  0.00    +0.000 C 
ATOM     21  C   UNL     1       1.080  15.268  21.612  0.00  0.00    +0.000 C 
BRANCH  21  22
ATOM     22  O   UNL     1       1.051  16.233  20.560  0.00  0.00    +0.000 OA
ATOM     23  H   UNL     1       1.683  16.939  20.794  0.00  0.00    +0.000 HD
ENDBRANCH  21  22
ENDBRANCH   8  17
BRANCH   1  25
ATOM     24  C   UNL     1      -6.680  10.294  18.920  0.00  0.00    +0.000 C 
ATOM     25  O   UNL     1      -5.996  11.168  18.028  0.00  0.00    +0.000 OA
ENDBRANCH   1  25
BRANCH   6  26
ATOM     26  O   UNL     1      -3.843  10.097  16.482  0.00  0.00    +0.000 OA
ATOM     27  C   UNL     1      -3.186  10.402  15.261  0.00  0.00    +0.000 C 
ENDBRANCH   6  26
TORSDOF 5
ENDMDL
MODEL 7
REMARK VINA RESULT:      -5.8      6.625      8.604
REMARK  Name = 
REMARK  7 active torsions:
REMARK  status: ('A' for Active; 'I' for Inactive)
REMARK    1  A    between atoms: C_1  and  O_2
REMARK    2  A    between atoms: O_2  and  C_3
REMARK    3  A    between atoms: C_8  and  O_9
REMARK    4  A    between atoms: O_9  and  C_10
REMARK    5  A    between atoms: C_11  and  C_12
REMARK    6  A    between atoms: N_18  and  C_19
REMARK    7  A    between atoms: C_23  and  O_24
REMARK                            x       y       z     vdW  Elec       q    Type
REMARK                         _______ _______ _______ _____ _____    ______ ____
ROOT
ATOM      1  C   UNL     1       3.156  15.143  21.103  0.00  0.00    +0.000 A 
ATOM      2  C   UNL     1       2.933  14.395  19.942  0.00  0.00    +0.000 A 
ATOM      3  C   UNL     1       1.719  13.734  19.738  0.00  0.00    +0.000 A 
ATOM      4  C   UNL     1       0.727  13.758  20.728  0.00  0.00    +0.000 A 
ATOM      5  C   UNL     1       0.937  14.549  21.875  0.00  0.00    +0.000 A 
ATOM      6  C   UNL     1       2.131  15.271  22.057  0.00  0.00    +0.000 A 
ATOM      7  C   UNL     1      -0.523  12.880  20.576  0.00  0.00    +0.000 C 
ATOM      8  N   UNL     1      -0.983  12.693  19.172  0.00  0.00    +0.000 NA
ATOM      9  C   UNL     1      -0.042  13.075  18.118  0.00  0.00    +0.000 C 
ATOM     10  C   UNL     1       1.446  12.994  18.463  0.00  0.00    +0.000 C 
ENDROOT
BRANCH   7  11
ATOM     11  C   UNL     1      -0.365  11.568  21.369  0.00  0.00    +0.000 A 
ATOM     12  C   UNL     1       0.489  10.557  20.890  0.00  0.00    +0.000 A 
ATOM     13  C   UNL     1       0.756   9.426  21.661  0.00  0.00    +0.000 A 
ATOM     14  C   UNL     1       0.161   9.271  22.912  0.00  0.00    +0.000 A 
ATOM     15  C   UNL     1      -0.727  10.235  23.377  0.00  0.00    +0.000 A 
ATOM     16  C   UNL     1      -0.995  11.368  22.609  0.00  0.00    +0.000 A 
ENDBRANCH   7  11
BRANCH   8  17
ATOM     17  C   UNL     1      -1.916  11.593  18.884  0.00  0.00    +0.000 C 
ATOM     18  C   UNL     1      -3.399  11.982  19.089  0.00  0.00    +0.000 C 
ATOM     19  C   UNL     1      -4.219  11.175  18.077  0.00  0.00    +0.000 C 
ATOM     20  C   UNL     1      -3.241  10.205  17.430  0.00  0.00    +0.000 C 
ATOM     21  C   UNL     1      -1.922  10.964  17.462  0.00  0.00    +0.000 C 
BRANCH  21  22
ATOM     22  O   UNL     1      -1.916  11.927  16.408  0.00  0.00    +0.000 OA
ATOM     23  H   UNL     1      -1.576  12.764  16.779  0.00  0.00    +0.000 HD
ENDBRANCH  21  22
ENDBRANCH   8  17
BRANCH   1  25
ATOM     24  C   UNL     1       5.001  16.002  19.877  0.00  0.00    +0.000 C 
ATOM     25  O   UNL     1       4.393  15.738  21.137  0.00  0.00    +0.000 OA
ENDBRANCH   1  25
BRANCH   6  26
ATOM     26  O   UNL     1       2.360  16.113  23.111  0.00  0.00    +0.000 OA
ATOM     27  C   UNL     1       1.257  16.806  23.677  0.00  0.00    +0.000 C 
ENDBRANCH   6  26
TORSDOF 5
ENDMDL
MODEL 8
REMARK VINA RESULT:      -5.6      6.982      9.749
REMARK  Name = 
REMARK  7 active torsions:
REMARK  status: ('A' for Active; 'I' for Inactive)
REMARK    1  A    between atoms: C_1  and  O_2
REMARK    2  A    between atoms: O_2  and  C_3
REMARK    3  A    between atoms: C_8  and  O_9
REMARK    4  A    between atoms: O_9  and  C_10
REMARK    5  A    between atoms: C_11  and  C_12
REMARK    6  A    between atoms: N_18  and  C_19
REMARK    7  A    between atoms: C_23  and  O_24
REMARK                            x       y       z     vdW  Elec       q    Type
REMARK                         _______ _______ _______ _____ _____    ______ ____
ROOT
ATOM      1  C   UNL     1      -4.961  11.386  18.505  0.00  0.00    +0.000 A 
ATOM      2  C   UNL     1      -4.965  12.275  19.585  0.00  0.00    +0.000 A 
ATOM      3  C   UNL     1      -3.772  12.804  20.081  0.00  0.00    +0.000 A 
ATOM      4  C   UNL     1      -2.542  12.399  19.544  0.00  0.00    +0.000 A 
ATOM      5  C   UNL     1      -2.543  11.539  18.427  0.00  0.00    +0.000 A 
ATOM      6  C   UNL     1      -3.746  11.054  17.880  0.00  0.00    +0.000 A 
ATOM      7  C   UNL     1      -1.234  12.840  20.216  0.00  0.00    +0.000 C 
ATOM      8  N   UNL     1      -1.281  14.194  20.835  0.00  0.00    +0.000 NA
ATOM      9  C   UNL     1      -2.607  14.786  21.015  0.00  0.00    +0.000 C 
ATOM     10  C   UNL     1      -3.776  13.815  21.188  0.00  0.00    +0.000 C 
ENDROOT
BRANCH   7  11
ATOM     11  C   UNL     1      -0.704  11.736  21.151  0.00  0.00    +0.000 A 
ATOM     12  C   UNL     1      -1.308  11.529  22.404  0.00  0.00    +0.000 A 
ATOM     13  C   UNL     1      -0.939  10.446  23.203  0.00  0.00    +0.000 A 
ATOM     14  C   UNL     1       0.054   9.564  22.776  0.00  0.00    +0.000 A 
ATOM     15  C   UNL     1       0.698   9.786  21.564  0.00  0.00    +0.000 A 
ATOM     16  C   UNL     1       0.330  10.867  20.763  0.00  0.00    +0.000 A 
ENDBRANCH   7  11
BRANCH   8  17
ATOM     17  C   UNL     1      -0.238  14.553  21.808  0.00  0.00    +0.000 C 
ATOM     18  C   UNL     1       1.197  14.341  21.270  0.00  0.00    +0.000 C 
ATOM     19  C   UNL     1       2.083  15.405  21.925  0.00  0.00    +0.000 C 
ATOM     20  C   UNL     1       1.207  16.095  22.960  0.00  0.00    +0.000 C 
ATOM     21  C   UNL     1      -0.186  16.008  22.354  0.00  0.00    +0.000 C 
BRANCH  21  22
ATOM     22  O   UNL     1      -0.315  17.006  21.341  0.00  0.00    +0.000 OA
ATOM     23  H   UNL     1      -0.771  16.594  20.582  0.00  0.00    +0.000 HD
ENDBRANCH  21  22
ENDBRANCH   8  17
BRANCH   1  25
ATOM     24  C   UNL     1      -6.878  10.082  19.027  0.00  0.00    +0.000 C 
ATOM     25  O   UNL     1      -6.218  10.974  18.135  0.00  0.00    +0.000 OA
ENDBRANCH   1  25
BRANCH   6  26
ATOM     26  O   UNL     1      -3.813  10.279  16.754  0.00  0.00    +0.000 OA
ATOM     27  C   UNL     1      -2.603   9.932  16.097  0.00  0.00    +0.000 C 
ENDBRANCH   6  26
TORSDOF 5
ENDMDL
MODEL 9
REMARK VINA RESULT:      -5.6      7.365     11.329
REMARK  Name = 
REMARK  7 active torsions:
REMARK  status: ('A' for Active; 'I' for Inactive)
REMARK    1  A    between atoms: C_1  and  O_2
REMARK    2  A    between atoms: O_2  and  C_3
REMARK    3  A    between atoms: C_8  and  O_9
REMARK    4  A    between atoms: O_9  and  C_10
REMARK    5  A    between atoms: C_11  and  C_12
REMARK    6  A    between atoms: N_18  and  C_19
REMARK    7  A    between atoms: C_23  and  O_24
REMARK                            x       y       z     vdW  Elec       q    Type
REMARK                         _______ _______ _______ _____ _____    ______ ____
ROOT
ATOM      1  C   UNL     1      -5.855  12.835  23.289  0.00  0.00    +0.000 A 
ATOM      2  C   UNL     1      -4.796  13.466  23.950  0.00  0.00    +0.000 A 
ATOM      3  C   UNL     1      -3.560  13.636  23.323  0.00  0.00    +0.000 A 
ATOM      4  C   UNL     1      -3.342  13.114  22.039  0.00  0.00    +0.000 A 
ATOM      5  C   UNL     1      -4.423  12.519  21.359  0.00  0.00    +0.000 A 
ATOM      6  C   UNL     1      -5.690  12.405  21.961  0.00  0.00    +0.000 A 
ATOM      7  C   UNL     1      -1.930  13.140  21.435  0.00  0.00    +0.000 C 
ATOM      8  N   UNL     1      -1.110  14.320  21.827  0.00  0.00    +0.000 NA
ATOM      9  C   UNL     1      -1.600  15.113  22.955  0.00  0.00    +0.000 C 
ATOM     10  C   UNL     1      -2.446  14.378  23.996  0.00  0.00    +0.000 C 
ENDROOT
BRANCH   7  11
ATOM     11  C   UNL     1      -1.227  11.786  21.640  0.00  0.00    +0.000 A 
ATOM     12  C   UNL     1      -1.076  11.263  22.938  0.00  0.00    +0.000 A 
ATOM     13  C   UNL     1      -0.571   9.976  23.133  0.00  0.00    +0.000 A 
ATOM     14  C   UNL     1      -0.188   9.198  22.042  0.00  0.00    +0.000 A 
ATOM     15  C   UNL     1      -0.281   9.721  20.757  0.00  0.00    +0.000 A 
ATOM     16  C   UNL     1      -0.786  11.006  20.558  0.00  0.00    +0.000 A 
ENDBRANCH   7  11
BRANCH   8  17
ATOM     17  C   UNL     1       0.344  14.258  21.620  0.00  0.00    +0.000 C 
ATOM     18  C   UNL     1       0.750  14.270  20.127  0.00  0.00    +0.000 C 
ATOM     19  C   UNL     1       2.103  14.982  20.035  0.00  0.00    +0.000 C 
ATOM     20  C   UNL     1       2.551  15.209  21.472  0.00  0.00    +0.000 C 
ATOM     21  C   UNL     1       1.240  15.377  22.226  0.00  0.00    +0.000 C 
BRANCH  21  22
ATOM     22  O   UNL     1       0.740  16.695  22.001  0.00  0.00    +0.000 OA
ATOM     23  H   UNL     1       1.489  17.313  22.106  0.00  0.00    +0.000 HD
ENDBRANCH  21  22
ENDBRANCH   8  17
BRANCH   1  25
ATOM     24  C   UNL     1      -7.667  13.997  24.296  0.00  0.00    +0.000 C 
ATOM     25  O   UNL     1      -7.001  12.764  24.043  0.00  0.00    +0.000 OA
ENDBRANCH   1  25
BRANCH   6  26
ATOM     26  O   UNL     1      -6.794  11.906  21.324  0.00  0.00    +0.000 OA
ATOM     27  C   UNL     1      -6.937  12.141  19.931  0.00  0.00    +0.000 C 
ENDBRANCH   6  26
TORSDOF 5
ENDMDL
