MODEL 1
REMARK VINA RESULT:      -7.3      0.000      0.000
REMARK  Name = 
REMARK  4 active torsions:
REMARK  status: ('A' for Active; 'I' for Inactive)
REMARK    1  A    between atoms: C_1  and  N_2
REMARK    2  A    between atoms: C_5  and  C_6
REMARK    3  A    between atoms: C_9  and  C_10
REMARK    4  A    between atoms: C_13  and  C_14
REMARK                            x       y       z     vdW  Elec       q    Type
REMARK                         _______ _______ _______ _____ _____    ______ ____
ROOT
ATOM      1  C   UNL     1       2.559   1.393  17.911  0.00  0.00    +0.000 C 
ATOM      2  N   UNL     1       3.166   2.715  17.956  0.00  0.00    +0.000 N 
ATOM      3  C   UNL     1       2.864   3.751  16.996  0.00  0.00    +0.000 C 
ATOM      4  O   UNL     1       2.412   3.570  15.878  0.00  0.00    +0.000 OA
ATOM      5  C   UNL     1       3.334   5.137  17.558  0.00  0.00    +0.000 C 
ATOM      6  C   UNL     1       4.164   4.542  18.430  0.00  0.00    +0.000 C 
ATOM      7  C   UNL     1       3.283   3.467  19.150  0.00  0.00    +0.000 C 
ATOM      8  C   UNL     1       1.724   3.757  19.391  0.00  0.00    +0.000 C 
ATOM      9  C   UNL     1       0.989   3.440  20.450  0.00  0.00    +0.000 C 
ATOM     10  C   UNL     1       1.640   2.834  21.606  0.00  0.00    +0.000 C 
ATOM     11  O   UNL     1       0.990   2.525  22.595  0.00  0.00    +0.000 OA
ATOM     12  C   UNL     1       3.109   2.616  21.510  0.00  0.00    +0.000 C 
ATOM     13  C   UNL     1       3.847   2.843  20.391  0.00  0.00    +0.000 C 
ENDROOT
BRANCH   6  14
ATOM     14  C   UNL     1       5.516   5.195  18.413  0.00  0.00    +0.000 A 
ATOM     15  C   UNL     1       6.488   5.087  19.403  0.00  0.00    +0.000 A 
ATOM     16  C   UNL     1       7.636   5.919  19.379  0.00  0.00    +0.000 A 
ATOM     17  C   UNL     1       7.833   6.854  18.367  0.00  0.00    +0.000 A 
ATOM     18  C   UNL     1       6.908   6.972  17.352  0.00  0.00    +0.000 A 
ATOM     19  C   UNL     1       5.781   6.144  17.370  0.00  0.00    +0.000 A 
ENDBRANCH   6  14
BRANCH   5  20
ATOM     20  C   UNL     1       2.674   6.218  18.335  0.00  0.00    +0.000 A 
ATOM     21  C   UNL     1       2.674   6.324  19.749  0.00  0.00    +0.000 A 
ATOM     22  C   UNL     1       2.111   7.481  20.287  0.00  0.00    +0.000 A 
ATOM     23  C   UNL     1       1.756   8.330  19.281  0.00  0.00    +0.000 A 
ATOM     24  S   UNL     1       1.971   7.655  17.713  0.00  0.00    +0.000 S 
BRANCH  23  25
ATOM     25  C   UNL     1       1.275   9.686  19.492  0.00  0.00    +0.000 C 
ATOM     26  O   UNL     1       0.126   9.955  19.847  0.00  0.00    +0.000 OA
ENDBRANCH  23  25
ENDBRANCH   5  20
TORSDOF 3
ENDMDL
MODEL 2
REMARK VINA RESULT:      -7.1      8.457     11.108
REMARK  Name = 
REMARK  4 active torsions:
REMARK  status: ('A' for Active; 'I' for Inactive)
REMARK    1  A    between atoms: C_1  and  N_2
REMARK    2  A    between atoms: C_5  and  C_6
REMARK    3  A    between atoms: C_9  and  C_10
REMARK    4  A    between atoms: C_13  and  C_14
REMARK                            x       y       z     vdW  Elec       q    Type
REMARK                         _______ _______ _______ _____ _____    ______ ____
ROOT
ATOM      1  C   UNL     1      12.184  12.634  18.086  0.00  0.00    +0.000 C 
ATOM      2  N   UNL     1      11.301  13.404  18.952  0.00  0.00    +0.000 N 
ATOM      3  C   UNL     1      10.868  14.745  18.637  0.00  0.00    +0.000 C 
ATOM      4  O   UNL     1      11.437  15.514  17.880  0.00  0.00    +0.000 OA
ATOM      5  C   UNL     1       9.627  15.114  19.522  0.00  0.00    +0.000 C 
ATOM      6  C   UNL     1       9.925  14.147  20.404  0.00  0.00    +0.000 C 
ATOM      7  C   UNL     1      10.131  12.862  19.534  0.00  0.00    +0.000 C 
ATOM      8  C   UNL     1       9.274  12.672  18.192  0.00  0.00    +0.000 C 
ATOM      9  C   UNL     1       8.750  11.552  17.709  0.00  0.00    +0.000 C 
ATOM     10  C   UNL     1       8.854  10.328  18.495  0.00  0.00    +0.000 C 
ATOM     11  O   UNL     1       8.386   9.278  18.076  0.00  0.00    +0.000 OA
ATOM     12  C   UNL     1       9.550  10.431  19.806  0.00  0.00    +0.000 C 
ATOM     13  C   UNL     1      10.178  11.549  20.257  0.00  0.00    +0.000 C 
ENDROOT
BRANCH   6  14
ATOM     14  C   UNL     1       9.848  14.664  21.812  0.00  0.00    +0.000 A 
ATOM     15  C   UNL     1       9.073  14.132  22.837  0.00  0.00    +0.000 A 
ATOM     16  C   UNL     1       8.917  14.832  24.060  0.00  0.00    +0.000 A 
ATOM     17  C   UNL     1       9.538  16.058  24.278  0.00  0.00    +0.000 A 
ATOM     18  C   UNL     1      10.338  16.606  23.298  0.00  0.00    +0.000 A 
ATOM     19  C   UNL     1      10.501  15.910  22.097  0.00  0.00    +0.000 A 
ENDBRANCH   6  14
BRANCH   5  20
ATOM     20  C   UNL     1       8.156  15.021  19.334  0.00  0.00    +0.000 A 
ATOM     21  C   UNL     1       7.200  14.974  20.379  0.00  0.00    +0.000 A 
ATOM     22  C   UNL     1       5.859  15.020  20.001  0.00  0.00    +0.000 A 
ATOM     23  C   UNL     1       5.768  15.203  18.653  0.00  0.00    +0.000 A 
ATOM     24  S   UNL     1       7.293  15.165  17.857  0.00  0.00    +0.000 S 
BRANCH  23  25
ATOM     25  C   UNL     1       4.520  15.440  17.947  0.00  0.00    +0.000 C 
ATOM     26  O   UNL     1       3.773  16.392  18.179  0.00  0.00    +0.000 OA
ENDBRANCH  23  25
ENDBRANCH   5  20
TORSDOF 3
ENDMDL
MODEL 3
REMARK VINA RESULT:      -7.1      0.356      1.002
REMARK  Name = 
REMARK  4 active torsions:
REMARK  status: ('A' for Active; 'I' for Inactive)
REMARK    1  A    between atoms: C_1  and  N_2
REMARK    2  A    between atoms: C_5  and  C_6
REMARK    3  A    between atoms: C_9  and  C_10
REMARK    4  A    between atoms: C_13  and  C_14
REMARK                            x       y       z     vdW  Elec       q    Type
REMARK                         _______ _______ _______ _____ _____    ______ ____
ROOT
ATOM      1  C   UNL     1       2.800   1.571  17.932  0.00  0.00    +0.000 C 
ATOM      2  N   UNL     1       3.313   2.931  18.012  0.00  0.00    +0.000 N 
ATOM      3  C   UNL     1       2.961   3.960  17.062  0.00  0.00    +0.000 C 
ATOM      4  O   UNL     1       2.546   3.769  15.932  0.00  0.00    +0.000 OA
ATOM      5  C   UNL     1       3.322   5.366  17.657  0.00  0.00    +0.000 C 
ATOM      6  C   UNL     1       4.173   4.814  18.537  0.00  0.00    +0.000 C 
ATOM      7  C   UNL     1       3.353   3.668  19.220  0.00  0.00    +0.000 C 
ATOM      8  C   UNL     1       1.773   3.847  19.431  0.00  0.00    +0.000 C 
ATOM      9  C   UNL     1       1.039   3.461  20.468  0.00  0.00    +0.000 C 
ATOM     10  C   UNL     1       1.706   2.880  21.628  0.00  0.00    +0.000 C 
ATOM     11  O   UNL     1       1.057   2.510  22.598  0.00  0.00    +0.000 OA
ATOM     12  C   UNL     1       3.187   2.766  21.561  0.00  0.00    +0.000 C 
ATOM     13  C   UNL     1       3.932   3.062  20.464  0.00  0.00    +0.000 C 
ENDROOT
BRANCH   6  14
ATOM     14  C   UNL     1       5.477   5.558  18.561  0.00  0.00    +0.000 A 
ATOM     15  C   UNL     1       5.928   6.447  17.591  0.00  0.00    +0.000 A 
ATOM     16  C   UNL     1       7.264   6.922  17.614  0.00  0.00    +0.000 A 
ATOM     17  C   UNL     1       8.156   6.527  18.606  0.00  0.00    +0.000 A 
ATOM     18  C   UNL     1       7.740   5.669  19.602  0.00  0.00    +0.000 A 
ATOM     19  C   UNL     1       6.420   5.211  19.585  0.00  0.00    +0.000 A 
ENDBRANCH   6  14
BRANCH   5  20
ATOM     20  C   UNL     1       2.573   6.385  18.437  0.00  0.00    +0.000 A 
ATOM     21  C   UNL     1       2.487   6.431  19.850  0.00  0.00    +0.000 A 
ATOM     22  C   UNL     1       1.845   7.540  20.400  0.00  0.00    +0.000 A 
ATOM     23  C   UNL     1       1.513   8.416  19.410  0.00  0.00    +0.000 A 
ATOM     24  S   UNL     1       1.845   7.818  17.832  0.00  0.00    +0.000 S 
BRANCH  23  25
ATOM     25  C   UNL     1       0.962   9.741  19.647  0.00  0.00    +0.000 C 
ATOM     26  O   UNL     1       0.734  10.196  20.769  0.00  0.00    +0.000 OA
ENDBRANCH  23  25
ENDBRANCH   5  20
TORSDOF 3
ENDMDL
MODEL 4
REMARK VINA RESULT:      -7.1      9.014     11.710
REMARK  Name = 
REMARK  4 active torsions:
REMARK  status: ('A' for Active; 'I' for Inactive)
REMARK    1  A    between atoms: C_1  and  N_2
REMARK    2  A    between atoms: C_5  and  C_6
REMARK    3  A    between atoms: C_9  and  C_10
REMARK    4  A    between atoms: C_13  and  C_14
REMARK                            x       y       z     vdW  Elec       q    Type
REMARK                         _______ _______ _______ _____ _____    ______ ____
ROOT
ATOM      1  C   UNL     1      12.259  13.252  17.373  0.00  0.00    +0.000 C 
ATOM      2  N   UNL     1      11.438  14.139  18.185  0.00  0.00    +0.000 N 
ATOM      3  C   UNL     1      10.704  15.253  17.631  0.00  0.00    +0.000 C 
ATOM      4  O   UNL     1      10.952  15.810  16.575  0.00  0.00    +0.000 OA
ATOM      5  C   UNL     1       9.618  15.725  18.660  0.00  0.00    +0.000 C 
ATOM      6  C   UNL     1      10.265  15.124  19.671  0.00  0.00    +0.000 C 
ATOM      7  C   UNL     1      10.533  13.668  19.165  0.00  0.00    +0.000 C 
ATOM      8  C   UNL     1       9.476  12.966  18.183  0.00  0.00    +0.000 C 
ATOM      9  C   UNL     1       9.090  11.696  18.172  0.00  0.00    +0.000 C 
ATOM     10  C   UNL     1       9.580  10.800  19.213  0.00  0.00    +0.000 C 
ATOM     11  O   UNL     1       9.246   9.623  19.229  0.00  0.00    +0.000 OA
ATOM     12  C   UNL     1      10.491  11.390  20.230  0.00  0.00    +0.000 C 
ATOM     13  C   UNL     1      10.973  12.660  20.186  0.00  0.00    +0.000 C 
ENDROOT
BRANCH   6  14
ATOM     14  C   UNL     1      10.375  16.041  20.856  0.00  0.00    +0.000 A 
ATOM     15  C   UNL     1      10.684  17.397  20.813  0.00  0.00    +0.000 A 
ATOM     16  C   UNL     1      10.971  18.109  22.005  0.00  0.00    +0.000 A 
ATOM     17  C   UNL     1      10.943  17.482  23.247  0.00  0.00    +0.000 A 
ATOM     18  C   UNL     1      10.614  16.146  23.336  0.00  0.00    +0.000 A 
ATOM     19  C   UNL     1      10.319  15.448  22.160  0.00  0.00    +0.000 A 
ENDBRANCH   6  14
BRANCH   5  20
ATOM     20  C   UNL     1       8.184  15.400  18.876  0.00  0.00    +0.000 A 
ATOM     21  C   UNL     1       7.498  15.515  20.110  0.00  0.00    +0.000 A 
ATOM     22  C   UNL     1       6.122  15.287  20.082  0.00  0.00    +0.000 A 
ATOM     23  C   UNL     1       5.716  15.089  18.796  0.00  0.00    +0.000 A 
ATOM     24  S   UNL     1       7.016  15.033  17.672  0.00  0.00    +0.000 S 
BRANCH  23  25
ATOM     25  C   UNL     1       4.324  14.969  18.393  0.00  0.00    +0.000 C 
ATOM     26  O   UNL     1       3.860  15.486  17.376  0.00  0.00    +0.000 OA
ENDBRANCH  23  25
ENDBRANCH   5  20
TORSDOF 3
ENDMDL
MODEL 5
REMARK VINA RESULT:      -7.0      8.718     11.271
REMARK  Name = 
REMARK  4 active torsions:
REMARK  status: ('A' for Active; 'I' for Inactive)
REMARK    1  A    between atoms: C_1  and  N_2
REMARK    2  A    between atoms: C_5  and  C_6
REMARK    3  A    between atoms: C_9  and  C_10
REMARK    4  A    between atoms: C_13  and  C_14
REMARK                            x       y       z     vdW  Elec       q    Type
REMARK                         _______ _______ _______ _____ _____    ______ ____
ROOT
ATOM      1  C   UNL     1      12.281  12.970  19.042  0.00  0.00    +0.000 C 
ATOM      2  N   UNL     1      11.257  13.649  19.823  0.00  0.00    +0.000 N 
ATOM      3  C   UNL     1      10.856  15.014  19.573  0.00  0.00    +0.000 C 
ATOM      4  O   UNL     1      11.525  15.854  18.996  0.00  0.00    +0.000 OA
ATOM      5  C   UNL     1       9.482  15.292  20.277  0.00  0.00    +0.000 C 
ATOM      6  C   UNL     1       9.652  14.243  21.099  0.00  0.00    +0.000 C 
ATOM      7  C   UNL     1      10.018  13.050  20.154  0.00  0.00    +0.000 C 
ATOM      8  C   UNL     1       9.391  12.992  18.678  0.00  0.00    +0.000 C 
ATOM      9  C   UNL     1       8.973  11.923  18.011  0.00  0.00    +0.000 C 
ATOM     10  C   UNL     1       8.970  10.628  18.682  0.00  0.00    +0.000 C 
ATOM     11  O   UNL     1       8.595   9.623  18.093  0.00  0.00    +0.000 OA
ATOM     12  C   UNL     1       9.444  10.603  20.092  0.00  0.00    +0.000 C 
ATOM     13  C   UNL     1       9.971  11.673  20.744  0.00  0.00    +0.000 C 
ENDROOT
BRANCH   6  14
ATOM     14  C   UNL     1       9.341  14.620  22.519  0.00  0.00    +0.000 A 
ATOM     15  C   UNL     1       9.779  15.766  23.174  0.00  0.00    +0.000 A 
ATOM     16  C   UNL     1       9.602  15.908  24.574  0.00  0.00    +0.000 A 
ATOM     17  C   UNL     1       8.979  14.918  25.329  0.00  0.00    +0.000 A 
ATOM     18  C   UNL     1       8.505  13.780  24.713  0.00  0.00    +0.000 A 
ATOM     19  C   UNL     1       8.669  13.646  23.331  0.00  0.00    +0.000 A 
ENDBRANCH   6  14
BRANCH   5  20
ATOM     20  C   UNL     1       8.063  15.215  19.846  0.00  0.00    +0.000 A 
ATOM     21  C   UNL     1       6.987  14.766  20.652  0.00  0.00    +0.000 A 
ATOM     22  C   UNL     1       5.708  14.890  20.111  0.00  0.00    +0.000 A 
ATOM     23  C   UNL     1       5.777  15.533  18.911  0.00  0.00    +0.000 A 
ATOM     24  S   UNL     1       7.389  15.837  18.394  0.00  0.00    +0.000 S 
BRANCH  23  25
ATOM     25  C   UNL     1       4.615  15.956  18.147  0.00  0.00    +0.000 C 
ATOM     26  O   UNL     1       4.162  17.102  18.169  0.00  0.00    +0.000 OA
ENDBRANCH  23  25
ENDBRANCH   5  20
TORSDOF 3
ENDMDL
MODEL 6
REMARK VINA RESULT:      -7.0      8.921     11.592
REMARK  Name = 
REMARK  4 active torsions:
REMARK  status: ('A' for Active; 'I' for Inactive)
REMARK    1  A    between atoms: C_1  and  N_2
REMARK    2  A    between atoms: C_5  and  C_6
REMARK    3  A    between atoms: C_9  and  C_10
REMARK    4  A    between atoms: C_13  and  C_14
REMARK                            x       y       z     vdW  Elec       q    Type
REMARK                         _______ _______ _______ _____ _____    ______ ____
ROOT
ATOM      1  C   UNL     1      12.156  13.144  17.175  0.00  0.00    +0.000 C 
ATOM      2  N   UNL     1      11.414  14.015  18.075  0.00  0.00    +0.000 N 
ATOM      3  C   UNL     1      10.691  15.180  17.620  0.00  0.00    +0.000 C 
ATOM      4  O   UNL     1      10.901  15.783  16.581  0.00  0.00    +0.000 OA
ATOM      5  C   UNL     1       9.682  15.634  18.731  0.00  0.00    +0.000 C 
ATOM      6  C   UNL     1      10.361  14.961  19.673  0.00  0.00    +0.000 C 
ATOM      7  C   UNL     1      10.548  13.524  19.081  0.00  0.00    +0.000 C 
ATOM      8  C   UNL     1       9.414  12.911  18.126  0.00  0.00    +0.000 C 
ATOM      9  C   UNL     1       8.981  11.657  18.074  0.00  0.00    +0.000 C 
ATOM     10  C   UNL     1       9.494  10.692  19.040  0.00  0.00    +0.000 C 
ATOM     11  O   UNL     1       9.119   9.528  19.016  0.00  0.00    +0.000 OA
ATOM     12  C   UNL     1      10.481  11.197  20.031  0.00  0.00    +0.000 C 
ATOM     13  C   UNL     1      11.006  12.452  20.023  0.00  0.00    +0.000 C 
ENDROOT
BRANCH   6  14
ATOM     14  C   UNL     1      10.570  15.811  20.893  0.00  0.00    +0.000 A 
ATOM     15  C   UNL     1      10.379  15.409  22.211  0.00  0.00    +0.000 A 
ATOM     16  C   UNL     1      10.398  16.358  23.264  0.00  0.00    +0.000 A 
ATOM     17  C   UNL     1      10.619  17.710  23.017  0.00  0.00    +0.000 A 
ATOM     18  C   UNL     1      10.841  18.145  21.728  0.00  0.00    +0.000 A 
ATOM     19  C   UNL     1      10.833  17.207  20.692  0.00  0.00    +0.000 A 
ENDBRANCH   6  14
BRANCH   5  20
ATOM     20  C   UNL     1       8.251  15.347  19.011  0.00  0.00    +0.000 A 
ATOM     21  C   UNL     1       7.646  15.386  20.292  0.00  0.00    +0.000 A 
ATOM     22  C   UNL     1       6.263  15.214  20.335  0.00  0.00    +0.000 A 
ATOM     23  C   UNL     1       5.771  15.137  19.066  0.00  0.00    +0.000 A 
ATOM     24  S   UNL     1       6.997  15.125  17.860  0.00  0.00    +0.000 S 
BRANCH  23  25
ATOM     25  C   UNL     1       4.354  15.103  18.744  0.00  0.00    +0.000 C 
ATOM     26  O   UNL     1       3.512  14.517  19.427  0.00  0.00    +0.000 OA
ENDBRANCH  23  25
ENDBRANCH   5  20
TORSDOF 3
ENDMDL
MODEL 7
REMARK VINA RESULT:      -6.8      4.109      8.346
REMARK  Name = 
REMARK  4 active torsions:
REMARK  status: ('A' for Active; 'I' for Inactive)
REMARK    1  A    between atoms: C_1  and  N_2
REMARK    2  A    between atoms: C_5  and  C_6
REMARK    3  A    between atoms: C_9  and  C_10
REMARK    4  A    between atoms: C_13  and  C_14
REMARK                            x       y       z     vdW  Elec       q    Type
REMARK                         _______ _______ _______ _____ _____    ______ ____
ROOT
ATOM      1  C   UNL     1      -3.101  12.258  20.456  0.00  0.00    +0.000 C 
ATOM      2  N   UNL     1      -1.662  12.082  20.327  0.00  0.00    +0.000 N 
ATOM      3  C   UNL     1      -0.869  11.361  21.296  0.00  0.00    +0.000 C 
ATOM      4  O   UNL     1      -1.183  11.158  22.457  0.00  0.00    +0.000 OA
ATOM      5  C   UNL     1       0.519  10.994  20.666  0.00  0.00    +0.000 C 
ATOM      6  C   UNL     1       0.382  11.942  19.725  0.00  0.00    +0.000 C 
ATOM      7  C   UNL     1      -1.039  11.696  19.116  0.00  0.00    +0.000 C 
ATOM      8  C   UNL     1      -1.614  10.201  19.030  0.00  0.00    +0.000 C 
ATOM      9  C   UNL     1      -2.336   9.658  18.057  0.00  0.00    +0.000 C 
ATOM     10  C   UNL     1      -2.594  10.437  16.851  0.00  0.00    +0.000 C 
ATOM     11  O   UNL     1      -3.260   9.968  15.938  0.00  0.00    +0.000 OA
ATOM     12  C   UNL     1      -2.014  11.806  16.800  0.00  0.00    +0.000 C 
ATOM     13  C   UNL     1      -1.364  12.404  17.834  0.00  0.00    +0.000 C 
ENDROOT
BRANCH   6  14
ATOM     14  C   UNL     1       1.639  12.752  19.593  0.00  0.00    +0.000 A 
ATOM     15  C   UNL     1       2.369  13.303  20.641  0.00  0.00    +0.000 A 
ATOM     16  C   UNL     1       3.414  14.226  20.384  0.00  0.00    +0.000 A 
ATOM     17  C   UNL     1       3.747  14.601  19.086  0.00  0.00    +0.000 A 
ATOM     18  C   UNL     1       3.066  14.056  18.018  0.00  0.00    +0.000 A 
ATOM     19  C   UNL     1       2.044  13.137  18.272  0.00  0.00    +0.000 A 
ENDBRANCH   6  14
BRANCH   5  20
ATOM     20  C   UNL     1       1.048   9.809  19.942  0.00  0.00    +0.000 A 
ATOM     21  C   UNL     1       1.538   9.816  18.612  0.00  0.00    +0.000 A 
ATOM     22  C   UNL     1       2.113   8.631  18.154  0.00  0.00    +0.000 A 
ATOM     23  C   UNL     1       2.161   7.722  19.167  0.00  0.00    +0.000 A 
ATOM     24  S   UNL     1       1.380   8.259  20.602  0.00  0.00    +0.000 S 
BRANCH  23  25
ATOM     25  C   UNL     1       2.831   6.434  19.074  0.00  0.00    +0.000 C 
ATOM     26  O   UNL     1       2.370   5.467  18.466  0.00  0.00    +0.000 OA
ENDBRANCH  23  25
ENDBRANCH   5  20
TORSDOF 3
ENDMDL
MODEL 8
REMARK VINA RESULT:      -6.8      7.806     10.537
REMARK  Name = 
REMARK  4 active torsions:
REMARK  status: ('A' for Active; 'I' for Inactive)
REMARK    1  A    between atoms: C_1  and  N_2
REMARK    2  A    between atoms: C_5  and  C_6
REMARK    3  A    between atoms: C_9  and  C_10
REMARK    4  A    between atoms: C_13  and  C_14
REMARK                            x       y       z     vdW  Elec       q    Type
REMARK                         _______ _______ _______ _____ _____    ______ ____
ROOT
ATOM      1  C   UNL     1       2.422  13.383  20.069  0.00  0.00    +0.000 C 
ATOM      2  N   UNL     1       1.118  12.747  19.953  0.00  0.00    +0.000 N 
ATOM      3  C   UNL     1       0.655  11.734  20.872  0.00  0.00    +0.000 C 
ATOM      4  O   UNL     1       1.366  11.034  21.573  0.00  0.00    +0.000 OA
ATOM      5  C   UNL     1      -0.900  11.574  20.733  0.00  0.00    +0.000 C 
ATOM      6  C   UNL     1      -0.885  12.149  19.519  0.00  0.00    +0.000 C 
ATOM      7  C   UNL     1      -0.074  13.473  19.714  0.00  0.00    +0.000 C 
ATOM      8  C   UNL     1      -0.154  14.249  21.116  0.00  0.00    +0.000 C 
ATOM      9  C   UNL     1      -0.184  15.560  21.323  0.00  0.00    +0.000 C 
ATOM     10  C   UNL     1      -0.247  16.455  20.173  0.00  0.00    +0.000 C 
ATOM     11  O   UNL     1      -0.272  17.668  20.330  0.00  0.00    +0.000 OA
ATOM     12  C   UNL     1      -0.277  15.818  18.829  0.00  0.00    +0.000 C 
ATOM     13  C   UNL     1      -0.141  14.484  18.608  0.00  0.00    +0.000 C 
ENDROOT
BRANCH   6  14
ATOM     14  C   UNL     1      -1.701  11.354  18.541  0.00  0.00    +0.000 A 
ATOM     15  C   UNL     1      -1.317  10.162  17.935  0.00  0.00    +0.000 A 
ATOM     16  C   UNL     1      -2.077   9.617  16.869  0.00  0.00    +0.000 A 
ATOM     17  C   UNL     1      -3.229  10.247  16.405  0.00  0.00    +0.000 A 
ATOM     18  C   UNL     1      -3.659  11.415  16.997  0.00  0.00    +0.000 A 
ATOM     19  C   UNL     1      -2.915  11.945  18.056  0.00  0.00    +0.000 A 
ENDBRANCH   6  14
BRANCH   5  20
ATOM     20  C   UNL     1      -2.069  12.173  21.426  0.00  0.00    +0.000 A 
ATOM     21  C   UNL     1      -3.168  12.797  20.784  0.00  0.00    +0.000 A 
ATOM     22  C   UNL     1      -4.231  13.182  21.601  0.00  0.00    +0.000 A 
ATOM     23  C   UNL     1      -4.002  12.767  22.878  0.00  0.00    +0.000 A 
ATOM     24  S   UNL     1      -2.450  12.058  23.096  0.00  0.00    +0.000 S 
BRANCH  23  25
ATOM     25  C   UNL     1      -4.973  12.876  23.955  0.00  0.00    +0.000 C 
ATOM     26  O   UNL     1      -5.058  12.069  24.883  0.00  0.00    +0.000 OA
ENDBRANCH  23  25
ENDBRANCH   5  20
TORSDOF 3
ENDMDL
MODEL 9
REMARK VINA RESULT:      -6.7      7.693     11.192
REMARK  Name = 
REMARK  4 active torsions:
REMARK  status: ('A' for Active; 'I' for Inactive)
REMARK    1  A    between atoms: C_1  and  N_2
REMARK    2  A    between atoms: C_5  and  C_6
REMARK    3  A    between atoms: C_9  and  C_10
REMARK    4  A    between atoms: C_13  and  C_14
REMARK                            x       y       z     vdW  Elec       q    Type
REMARK                         _______ _______ _______ _____ _____    ______ ____
ROOT
ATOM      1  C   UNL     1       0.935  16.156  22.653  0.00  0.00    +0.000 C 
ATOM      2  N   UNL     1       0.250  14.886  22.462  0.00  0.00    +0.000 N 
ATOM      3  C   UNL     1      -0.799  14.420  23.339  0.00  0.00    +0.000 C 
ATOM      4  O   UNL     1      -0.977  14.788  24.488  0.00  0.00    +0.000 OA
ATOM      5  C   UNL     1      -1.594  13.267  22.633  0.00  0.00    +0.000 C 
ATOM      6  C   UNL     1      -0.581  13.041  21.782  0.00  0.00    +0.000 C 
ATOM      7  C   UNL     1      -0.225  14.450  21.202  0.00  0.00    +0.000 C 
ATOM      8  C   UNL     1      -1.386  15.540  21.007  0.00  0.00    +0.000 C 
ATOM      9  C   UNL     1      -1.530  16.411  20.015  0.00  0.00    +0.000 C 
ATOM     10  C   UNL     1      -0.604  16.359  18.890  0.00  0.00    +0.000 C 
ATOM     11  O   UNL     1      -0.707  17.151  17.962  0.00  0.00    +0.000 OA
ATOM     12  C   UNL     1       0.451  15.311  18.938  0.00  0.00    +0.000 C 
ATOM     13  C   UNL     1       0.667  14.487  19.997  0.00  0.00    +0.000 C 
ENDROOT
BRANCH   6  14
ATOM     14  C   UNL     1      -0.285  11.572  21.679  0.00  0.00    +0.000 A 
ATOM     15  C   UNL     1       0.110  10.898  20.529  0.00  0.00    +0.000 A 
ATOM     16  C   UNL     1       0.151   9.480  20.502  0.00  0.00    +0.000 A 
ATOM     17  C   UNL     1      -0.190   8.725  21.620  0.00  0.00    +0.000 A 
ATOM     18  C   UNL     1      -0.560   9.356  22.789  0.00  0.00    +0.000 A 
ATOM     19  C   UNL     1      -0.588  10.754  22.817  0.00  0.00    +0.000 A 
ENDBRANCH   6  14
BRANCH   5  20
ATOM     20  C   UNL     1      -2.819  13.216  21.793  0.00  0.00    +0.000 A 
ATOM     21  C   UNL     1      -2.912  12.596  20.523  0.00  0.00    +0.000 A 
ATOM     22  C   UNL     1      -4.182  12.540  19.948  0.00  0.00    +0.000 A 
ATOM     23  C   UNL     1      -5.103  13.034  20.821  0.00  0.00    +0.000 A 
ATOM     24  S   UNL     1      -4.405  13.689  22.250  0.00  0.00    +0.000 S 
BRANCH  23  25
ATOM     25  C   UNL     1      -6.540  12.989  20.600  0.00  0.00    +0.000 C 
ATOM     26  O   UNL     1      -7.091  12.183  19.848  0.00  0.00    +0.000 OA
ENDBRANCH  23  25
ENDBRANCH   5  20
TORSDOF 3
ENDMDL
