MODEL 1
REMARK VINA RESULT:      -7.5      0.000      0.000
REMARK  Name = 
REMARK  8 active torsions:
REMARK  status: ('A' for Active; 'I' for Inactive)
REMARK    1  A    between atoms: C_1  and  C_2
REMARK    2  A    between atoms: C_6  and  C_7
REMARK    3  A    between atoms: C_8  and  O_9
REMARK    4  A    between atoms: O_9  and  C_10
REMARK    5  A    between atoms: C_10  and  C_11
REMARK    6  A    between atoms: N_13  and  C_14
REMARK    7  A    between atoms: N_13  and  C_20
REMARK    8  A    between atoms: C_14  and  C_15
REMARK                            x       y       z     vdW  Elec       q    Type
REMARK                         _______ _______ _______ _____ _____    ______ ____
ROOT
ATOM      1  C   UNL     1       2.154   8.351  18.368  0.00  0.00    +0.000 C 
ATOM      2  O   UNL     1       2.532   8.770  17.268  0.00  0.00    +0.000 OA
ATOM      3  N   UNL     1       1.285   9.099  19.191  0.00  0.00    +0.000 N 
ENDROOT
BRANCH   3   4
ATOM      4  C   UNL     1       1.305   8.884  20.658  0.00  0.00    +0.000 C 
ATOM      5  C   UNL     1       0.364   7.807  21.230  0.00  0.00    +0.000 C 
ATOM      6  C   UNL     1      -0.789   8.463  21.974  0.00  0.00    +0.000 C 
ATOM      7  S   UNL     1      -0.156  10.006  22.603  0.00  0.00    +0.000 S 
ATOM      8  O   UNL     1       0.444   9.749  23.900  0.00  0.00    +0.000 OA
ATOM      9  O   UNL     1      -1.148  11.034  22.383  0.00  0.00    +0.000 OA
ATOM     10  C   UNL     1       1.154  10.200  21.425  0.00  0.00    +0.000 C 
ENDBRANCH   3   4
BRANCH   1  11
ATOM     11  C   UNL     1       2.630   6.949  18.826  0.00  0.00    +0.000 C 
BRANCH  11  12
ATOM     12  O   UNL     1       2.276   5.870  17.979  0.00  0.00    +0.000 OA
BRANCH  12  20
ATOM     13  C   UNL     1       0.856   4.210  20.283  0.00  0.00    +0.000 C 
ATOM     14  C   UNL     1       1.953   3.775  19.336  0.00  0.00    +0.000 A 
ATOM     15  C   UNL     1       2.365   2.435  19.514  0.00  0.00    +0.000 A 
ATOM     16  C   UNL     1       3.378   1.876  18.748  0.00  0.00    +0.000 A 
ATOM     17  C   UNL     1       4.010   2.653  17.795  0.00  0.00    +0.000 A 
ATOM     18  C   UNL     1       3.624   3.991  17.586  0.00  0.00    +0.000 A 
ATOM     19  C   UNL     1       4.368   4.776  16.528  0.00  0.00    +0.000 C 
ATOM     20  C   UNL     1       2.568   4.568  18.341  0.00  0.00    +0.000 A 
ENDBRANCH  12  20
ENDBRANCH  11  12
ENDBRANCH   1  11
BRANCH   3  21
ATOM     21  C   UNL     1       0.905  10.428  18.658  0.00  0.00    +0.000 C 
BRANCH  21  22
ATOM     22  C   UNL     1      -0.558  10.533  18.323  0.00  0.00    +0.000 A 
ATOM     23  C   UNL     1      -1.326   9.740  17.483  0.00  0.00    +0.000 A 
ATOM     24  C   UNL     1      -2.639  10.248  17.269  0.00  0.00    +0.000 A 
ATOM     25  C   UNL     1      -2.852  11.421  17.953  0.00  0.00    +0.000 A 
ATOM     26  S   UNL     1      -1.484  11.879  18.872  0.00  0.00    +0.000 S 
ENDBRANCH  21  22
ENDBRANCH   3  21
TORSDOF 6
ENDMDL
MODEL 2
REMARK VINA RESULT:      -7.4      0.135      1.722
REMARK  Name = 
REMARK  8 active torsions:
REMARK  status: ('A' for Active; 'I' for Inactive)
REMARK    1  A    between atoms: C_1  and  C_2
REMARK    2  A    between atoms: C_6  and  C_7
REMARK    3  A    between atoms: C_8  and  O_9
REMARK    4  A    between atoms: O_9  and  C_10
REMARK    5  A    between atoms: C_10  and  C_11
REMARK    6  A    between atoms: N_13  and  C_14
REMARK    7  A    between atoms: N_13  and  C_20
REMARK    8  A    between atoms: C_14  and  C_15
REMARK                            x       y       z     vdW  Elec       q    Type
REMARK                         _______ _______ _______ _____ _____    ______ ____
ROOT
ATOM      1  C   UNL     1       2.222   8.352  18.344  0.00  0.00    +0.000 C 
ATOM      2  O   UNL     1       2.589   8.773  17.242  0.00  0.00    +0.000 OA
ATOM      3  N   UNL     1       1.333   9.084  19.161  0.00  0.00    +0.000 N 
ENDROOT
BRANCH   3   4
ATOM      4  C   UNL     1       1.358   8.881  20.630  0.00  0.00    +0.000 C 
ATOM      5  C   UNL     1       0.443   7.785  21.210  0.00  0.00    +0.000 C 
ATOM      6  C   UNL     1      -0.726   8.418  21.949  0.00  0.00    +0.000 C 
ATOM      7  S   UNL     1      -0.132   9.981  22.567  0.00  0.00    +0.000 S 
ATOM      8  O   UNL     1       0.474   9.748  23.866  0.00  0.00    +0.000 OA
ATOM      9  O   UNL     1      -1.148  10.982  22.339  0.00  0.00    +0.000 OA
ATOM     10  C   UNL     1       1.174  10.199  21.388  0.00  0.00    +0.000 C 
ENDBRANCH   3   4
BRANCH   1  11
ATOM     11  C   UNL     1       2.733   6.967  18.814  0.00  0.00    +0.000 C 
BRANCH  11  12
ATOM     12  O   UNL     1       2.010   5.848  18.332  0.00  0.00    +0.000 OA
BRANCH  12  20
ATOM     13  C   UNL     1       4.390   4.868  16.473  0.00  0.00    +0.000 C 
ATOM     14  C   UNL     1       3.654   4.108  17.554  0.00  0.00    +0.000 A 
ATOM     15  C   UNL     1       4.127   2.791  17.752  0.00  0.00    +0.000 A 
ATOM     16  C   UNL     1       3.553   1.942  18.686  0.00  0.00    +0.000 A 
ATOM     17  C   UNL     1       2.480   2.390  19.434  0.00  0.00    +0.000 A 
ATOM     18  C   UNL     1       1.982   3.697  19.268  0.00  0.00    +0.000 A 
ATOM     19  C   UNL     1       0.802   4.109  20.121  0.00  0.00    +0.000 C 
ATOM     20  C   UNL     1       2.580   4.588  18.337  0.00  0.00    +0.000 A 
ENDBRANCH  12  20
ENDBRANCH  11  12
ENDBRANCH   1  11
BRANCH   3  21
ATOM     21  C   UNL     1       0.919  10.399  18.619  0.00  0.00    +0.000 C 
BRANCH  21  22
ATOM     22  C   UNL     1      -0.549  10.470  18.302  0.00  0.00    +0.000 A 
ATOM     23  C   UNL     1      -1.304   9.676  17.450  0.00  0.00    +0.000 A 
ATOM     24  C   UNL     1      -2.634  10.152  17.263  0.00  0.00    +0.000 A 
ATOM     25  C   UNL     1      -2.871  11.302  17.976  0.00  0.00    +0.000 A 
ATOM     26  S   UNL     1      -1.506  11.777  18.892  0.00  0.00    +0.000 S 
ENDBRANCH  21  22
ENDBRANCH   3  21
TORSDOF 6
ENDMDL
MODEL 3
REMARK VINA RESULT:      -7.2      3.312      7.614
REMARK  Name = 
REMARK  8 active torsions:
REMARK  status: ('A' for Active; 'I' for Inactive)
REMARK    1  A    between atoms: C_1  and  C_2
REMARK    2  A    between atoms: C_6  and  C_7
REMARK    3  A    between atoms: C_8  and  O_9
REMARK    4  A    between atoms: O_9  and  C_10
REMARK    5  A    between atoms: C_10  and  C_11
REMARK    6  A    between atoms: N_13  and  C_14
REMARK    7  A    between atoms: N_13  and  C_20
REMARK    8  A    between atoms: C_14  and  C_15
REMARK                            x       y       z     vdW  Elec       q    Type
REMARK                         _______ _______ _______ _____ _____    ______ ____
ROOT
ATOM      1  C   UNL     1       2.390   7.648  19.181  0.00  0.00    +0.000 C 
ATOM      2  O   UNL     1       2.675   8.570  18.409  0.00  0.00    +0.000 OA
ATOM      3  N   UNL     1       2.797   6.319  18.935  0.00  0.00    +0.000 N 
ENDROOT
BRANCH   3   4
ATOM      4  C   UNL     1       2.009   5.198  19.502  0.00  0.00    +0.000 C 
ATOM      5  C   UNL     1       2.604   4.454  20.713  0.00  0.00    +0.000 C 
ATOM      6  C   UNL     1       3.087   3.075  20.292  0.00  0.00    +0.000 C 
ATOM      7  S   UNL     1       2.044   2.580  18.933  0.00  0.00    +0.000 S 
ATOM      8  O   UNL     1       0.870   1.926  19.483  0.00  0.00    +0.000 OA
ATOM      9  O   UNL     1       2.873   1.983  17.911  0.00  0.00    +0.000 OA
ATOM     10  C   UNL     1       1.570   4.209  18.419  0.00  0.00    +0.000 C 
ENDBRANCH   3   4
BRANCH   1  11
ATOM     11  C   UNL     1       1.592   7.982  20.467  0.00  0.00    +0.000 C 
BRANCH  11  12
ATOM     12  O   UNL     1       0.262   8.428  20.269  0.00  0.00    +0.000 OA
BRANCH  12  20
ATOM     13  C   UNL     1       0.053   9.422  23.277  0.00  0.00    +0.000 C 
ATOM     14  C   UNL     1      -0.211  10.191  22.001  0.00  0.00    +0.000 A 
ATOM     15  C   UNL     1      -0.580  11.539  22.211  0.00  0.00    +0.000 A 
ATOM     16  C   UNL     1      -0.882  12.385  21.154  0.00  0.00    +0.000 A 
ATOM     17  C   UNL     1      -0.836  11.894  19.863  0.00  0.00    +0.000 A 
ATOM     18  C   UNL     1      -0.468  10.558  19.614  0.00  0.00    +0.000 A 
ATOM     19  C   UNL     1      -0.446  10.096  18.173  0.00  0.00    +0.000 C 
ATOM     20  C   UNL     1      -0.126   9.688  20.683  0.00  0.00    +0.000 A 
ENDBRANCH  12  20
ENDBRANCH  11  12
ENDBRANCH   1  11
BRANCH   3  21
ATOM     21  C   UNL     1       3.542   6.114  17.671  0.00  0.00    +0.000 C 
BRANCH  21  22
ATOM     22  C   UNL     1       5.032   6.232  17.839  0.00  0.00    +0.000 A 
ATOM     23  C   UNL     1       5.943   6.982  17.109  0.00  0.00    +0.000 A 
ATOM     24  C   UNL     1       7.300   6.705  17.442  0.00  0.00    +0.000 A 
ATOM     25  C   UNL     1       7.402   5.748  18.423  0.00  0.00    +0.000 A 
ATOM     26  S   UNL     1       5.866   5.219  18.957  0.00  0.00    +0.000 S 
ENDBRANCH  21  22
ENDBRANCH   3  21
TORSDOF 6
ENDMDL
MODEL 4
REMARK VINA RESULT:      -7.1      1.191      1.577
REMARK  Name = 
REMARK  8 active torsions:
REMARK  status: ('A' for Active; 'I' for Inactive)
REMARK    1  A    between atoms: C_1  and  C_2
REMARK    2  A    between atoms: C_6  and  C_7
REMARK    3  A    between atoms: C_8  and  O_9
REMARK    4  A    between atoms: O_9  and  C_10
REMARK    5  A    between atoms: C_10  and  C_11
REMARK    6  A    between atoms: N_13  and  C_14
REMARK    7  A    between atoms: N_13  and  C_20
REMARK    8  A    between atoms: C_14  and  C_15
REMARK                            x       y       z     vdW  Elec       q    Type
REMARK                         _______ _______ _______ _____ _____    ______ ____
ROOT
ATOM      1  C   UNL     1       1.881   9.053  18.265  0.00  0.00    +0.000 C 
ATOM      2  O   UNL     1       2.104   9.626  17.193  0.00  0.00    +0.000 OA
ATOM      3  N   UNL     1       0.979   9.579  19.216  0.00  0.00    +0.000 N 
ENDROOT
BRANCH   3   4
ATOM      4  C   UNL     1       1.147   9.234  20.649  0.00  0.00    +0.000 C 
ATOM      5  C   UNL     1       0.368   8.016  21.181  0.00  0.00    +0.000 C 
ATOM      6  C   UNL     1      -0.775   8.475  22.072  0.00  0.00    +0.000 C 
ATOM      7  S   UNL     1      -0.243  10.012  22.802  0.00  0.00    +0.000 S 
ATOM      8  O   UNL     1       0.489   9.702  24.017  0.00  0.00    +0.000 OA
ATOM      9  O   UNL     1      -1.346  10.945  22.763  0.00  0.00    +0.000 OA
ATOM     10  C   UNL     1       0.935  10.451  21.553  0.00  0.00    +0.000 C 
ENDBRANCH   3   4
BRANCH   1  11
ATOM     11  C   UNL     1       2.592   7.704  18.544  0.00  0.00    +0.000 C 
BRANCH  11  12
ATOM     12  O   UNL     1       3.568   7.314  17.594  0.00  0.00    +0.000 OA
BRANCH  12  20
ATOM     13  C   UNL     1       1.639   4.806  17.857  0.00  0.00    +0.000 C 
ATOM     14  C   UNL     1       3.120   4.838  17.552  0.00  0.00    +0.000 A 
ATOM     15  C   UNL     1       3.689   3.562  17.341  0.00  0.00    +0.000 A 
ATOM     16  C   UNL     1       5.040   3.401  17.073  0.00  0.00    +0.000 A 
ATOM     17  C   UNL     1       5.856   4.516  17.026  0.00  0.00    +0.000 A 
ATOM     18  C   UNL     1       5.325   5.804  17.227  0.00  0.00    +0.000 A 
ATOM     19  C   UNL     1       6.284   6.973  17.164  0.00  0.00    +0.000 C 
ATOM     20  C   UNL     1       3.938   5.988  17.471  0.00  0.00    +0.000 A 
ENDBRANCH  12  20
ENDBRANCH  11  12
ENDBRANCH   1  11
BRANCH   3  21
ATOM     21  C   UNL     1       0.368  10.878  18.850  0.00  0.00    +0.000 C 
BRANCH  21  22
ATOM     22  C   UNL     1      -1.071  10.754  18.429  0.00  0.00    +0.000 A 
ATOM     23  C   UNL     1      -1.633   9.949  17.448  0.00  0.00    +0.000 A 
ATOM     24  C   UNL     1      -3.009  10.231  17.206  0.00  0.00    +0.000 A 
ATOM     25  C   UNL     1      -3.473  11.246  18.008  0.00  0.00    +0.000 A 
ATOM     26  S   UNL     1      -2.261  11.824  19.068  0.00  0.00    +0.000 S 
ENDBRANCH  21  22
ENDBRANCH   3  21
TORSDOF 6
ENDMDL
MODEL 5
REMARK VINA RESULT:      -7.1      3.367      7.697
REMARK  Name = 
REMARK  8 active torsions:
REMARK  status: ('A' for Active; 'I' for Inactive)
REMARK    1  A    between atoms: C_1  and  C_2
REMARK    2  A    between atoms: C_6  and  C_7
REMARK    3  A    between atoms: C_8  and  O_9
REMARK    4  A    between atoms: O_9  and  C_10
REMARK    5  A    between atoms: C_10  and  C_11
REMARK    6  A    between atoms: N_13  and  C_14
REMARK    7  A    between atoms: N_13  and  C_20
REMARK    8  A    between atoms: C_14  and  C_15
REMARK                            x       y       z     vdW  Elec       q    Type
REMARK                         _______ _______ _______ _____ _____    ______ ____
ROOT
ATOM      1  C   UNL     1       2.530   7.738  18.324  0.00  0.00    +0.000 C 
ATOM      2  O   UNL     1       2.993   8.540  17.506  0.00  0.00    +0.000 OA
ATOM      3  N   UNL     1       2.964   6.396  18.376  0.00  0.00    +0.000 N 
ENDROOT
BRANCH   3   4
ATOM      4  C   UNL     1       2.054   5.355  18.913  0.00  0.00    +0.000 C 
ATOM      5  C   UNL     1       2.459   4.670  20.232  0.00  0.00    +0.000 C 
ATOM      6  C   UNL     1       2.912   3.244  19.962  0.00  0.00    +0.000 C 
ATOM      7  S   UNL     1       2.011   2.706  18.521  0.00  0.00    +0.000 S 
ATOM      8  O   UNL     1       0.746   2.148  18.965  0.00  0.00    +0.000 OA
ATOM      9  O   UNL     1       2.921   2.000  17.647  0.00  0.00    +0.000 OA
ATOM     10  C   UNL     1       1.692   4.315  17.850  0.00  0.00    +0.000 C 
ENDBRANCH   3   4
BRANCH   1  11
ATOM     11  C   UNL     1       1.469   8.243  19.334  0.00  0.00    +0.000 C 
BRANCH  11  12
ATOM     12  O   UNL     1       1.309   9.649  19.408  0.00  0.00    +0.000 OA
BRANCH  12  20
ATOM     13  C   UNL     1       1.395   9.136  22.540  0.00  0.00    +0.000 C 
ATOM     14  C   UNL     1       0.475  10.039  21.751  0.00  0.00    +0.000 A 
ATOM     15  C   UNL     1      -0.449  10.753  22.547  0.00  0.00    +0.000 A 
ATOM     16  C   UNL     1      -1.385  11.610  21.988  0.00  0.00    +0.000 A 
ATOM     17  C   UNL     1      -1.427  11.759  20.614  0.00  0.00    +0.000 A 
ATOM     18  C   UNL     1      -0.520  11.068  19.788  0.00  0.00    +0.000 A 
ATOM     19  C   UNL     1      -0.634  11.281  18.294  0.00  0.00    +0.000 C 
ATOM     20  C   UNL     1       0.464  10.211  20.348  0.00  0.00    +0.000 A 
ENDBRANCH  12  20
ENDBRANCH  11  12
ENDBRANCH   1  11
BRANCH   3  21
ATOM     21  C   UNL     1       3.971   6.021  17.357  0.00  0.00    +0.000 C 
BRANCH  21  22
ATOM     22  C   UNL     1       5.369   5.954  17.906  0.00  0.00    +0.000 A 
ATOM     23  C   UNL     1       5.843   5.286  19.026  0.00  0.00    +0.000 A 
ATOM     24  C   UNL     1       7.197   5.597  19.340  0.00  0.00    +0.000 A 
ATOM     25  C   UNL     1       7.735   6.497  18.452  0.00  0.00    +0.000 A 
ATOM     26  S   UNL     1       6.618   6.931  17.230  0.00  0.00    +0.000 S 
ENDBRANCH  21  22
ENDBRANCH   3  21
TORSDOF 6
ENDMDL
MODEL 6
REMARK VINA RESULT:      -7.0      3.448      7.837
REMARK  Name = 
REMARK  8 active torsions:
REMARK  status: ('A' for Active; 'I' for Inactive)
REMARK    1  A    between atoms: C_1  and  C_2
REMARK    2  A    between atoms: C_6  and  C_7
REMARK    3  A    between atoms: C_8  and  O_9
REMARK    4  A    between atoms: O_9  and  C_10
REMARK    5  A    between atoms: C_10  and  C_11
REMARK    6  A    between atoms: N_13  and  C_14
REMARK    7  A    between atoms: N_13  and  C_20
REMARK    8  A    between atoms: C_14  and  C_15
REMARK                            x       y       z     vdW  Elec       q    Type
REMARK                         _______ _______ _______ _____ _____    ______ ____
ROOT
ATOM      1  C   UNL     1       2.608   7.686  18.670  0.00  0.00    +0.000 C 
ATOM      2  O   UNL     1       3.028   8.528  17.869  0.00  0.00    +0.000 OA
ATOM      3  N   UNL     1       2.996   6.331  18.595  0.00  0.00    +0.000 N 
ENDROOT
BRANCH   3   4
ATOM      4  C   UNL     1       2.099   5.284  19.141  0.00  0.00    +0.000 C 
ATOM      5  C   UNL     1       2.597   4.489  20.363  0.00  0.00    +0.000 C 
ATOM      6  C   UNL     1       2.965   3.072  19.950  0.00  0.00    +0.000 C 
ATOM      7  S   UNL     1       1.913   2.674  18.567  0.00  0.00    +0.000 S 
ATOM      8  O   UNL     1       0.674   2.127  19.088  0.00  0.00    +0.000 OA
ATOM      9  O   UNL     1       2.709   2.006  17.562  0.00  0.00    +0.000 OA
ATOM     10  C   UNL     1       1.598   4.339  18.046  0.00  0.00    +0.000 C 
ENDBRANCH   3   4
BRANCH   1  11
ATOM     11  C   UNL     1       1.658   8.152  19.801  0.00  0.00    +0.000 C 
BRANCH  11  12
ATOM     12  O   UNL     1       0.670   9.096  19.426  0.00  0.00    +0.000 OA
BRANCH  12  20
ATOM     13  C   UNL     1       1.678  12.010  18.669  0.00  0.00    +0.000 C 
ATOM     14  C   UNL     1       0.877  11.565  19.872  0.00  0.00    +0.000 A 
ATOM     15  C   UNL     1       0.530  12.616  20.750  0.00  0.00    +0.000 A 
ATOM     16  C   UNL     1      -0.183  12.386  21.918  0.00  0.00    +0.000 A 
ATOM     17  C   UNL     1      -0.551  11.093  22.239  0.00  0.00    +0.000 A 
ATOM     18  C   UNL     1      -0.226  10.020  21.387  0.00  0.00    +0.000 A 
ATOM     19  C   UNL     1      -0.661   8.634  21.813  0.00  0.00    +0.000 C 
ATOM     20  C   UNL     1       0.476  10.244  20.173  0.00  0.00    +0.000 A 
ENDBRANCH  12  20
ENDBRANCH  11  12
ENDBRANCH   1  11
BRANCH   3  21
ATOM     21  C   UNL     1       3.897   5.996  17.467  0.00  0.00    +0.000 C 
BRANCH  21  22
ATOM     22  C   UNL     1       5.351   6.190  17.797  0.00  0.00    +0.000 A 
ATOM     23  C   UNL     1       6.294   6.996  17.175  0.00  0.00    +0.000 A 
ATOM     24  C   UNL     1       7.620   6.787  17.651  0.00  0.00    +0.000 A 
ATOM     25  C   UNL     1       7.667   5.825  18.631  0.00  0.00    +0.000 A 
ATOM     26  S   UNL     1       6.112   5.209  18.993  0.00  0.00    +0.000 S 
ENDBRANCH  21  22
ENDBRANCH   3  21
TORSDOF 6
ENDMDL
MODEL 7
REMARK VINA RESULT:      -6.9      0.896      1.498
REMARK  Name = 
REMARK  8 active torsions:
REMARK  status: ('A' for Active; 'I' for Inactive)
REMARK    1  A    between atoms: C_1  and  C_2
REMARK    2  A    between atoms: C_6  and  C_7
REMARK    3  A    between atoms: C_8  and  O_9
REMARK    4  A    between atoms: O_9  and  C_10
REMARK    5  A    between atoms: C_10  and  C_11
REMARK    6  A    between atoms: N_13  and  C_14
REMARK    7  A    between atoms: N_13  and  C_20
REMARK    8  A    between atoms: C_14  and  C_15
REMARK                            x       y       z     vdW  Elec       q    Type
REMARK                         _______ _______ _______ _____ _____    ______ ____
ROOT
ATOM      1  C   UNL     1       2.089   8.395  18.416  0.00  0.00    +0.000 C 
ATOM      2  O   UNL     1       2.467   8.776  17.303  0.00  0.00    +0.000 OA
ATOM      3  N   UNL     1       1.223   9.174  19.214  0.00  0.00    +0.000 N 
ENDROOT
BRANCH   3   4
ATOM      4  C   UNL     1       1.244   9.009  20.688  0.00  0.00    +0.000 C 
ATOM      5  C   UNL     1       0.370   7.891  21.289  0.00  0.00    +0.000 C 
ATOM      6  C   UNL     1      -0.831   8.494  22.002  0.00  0.00    +0.000 C 
ATOM      7  S   UNL     1      -0.305  10.094  22.585  0.00  0.00    +0.000 S 
ATOM      8  O   UNL     1       0.299   9.920  23.894  0.00  0.00    +0.000 OA
ATOM      9  O   UNL     1      -1.360  11.048  22.324  0.00  0.00    +0.000 OA
ATOM     10  C   UNL     1       1.000  10.336  21.410  0.00  0.00    +0.000 C 
ENDBRANCH   3   4
BRANCH   1  11
ATOM     11  C   UNL     1       2.560   7.008  18.921  0.00  0.00    +0.000 C 
BRANCH  11  12
ATOM     12  O   UNL     1       3.026   6.115  17.925  0.00  0.00    +0.000 OA
BRANCH  12  20
ATOM     13  C   UNL     1       5.813   5.201  19.141  0.00  0.00    +0.000 C 
ATOM     14  C   UNL     1       4.595   4.363  18.820  0.00  0.00    +0.000 A 
ATOM     15  C   UNL     1       4.744   2.993  19.134  0.00  0.00    +0.000 A 
ATOM     16  C   UNL     1       3.736   2.074  18.884  0.00  0.00    +0.000 A 
ATOM     17  C   UNL     1       2.560   2.505  18.298  0.00  0.00    +0.000 A 
ATOM     18  C   UNL     1       2.374   3.863  17.975  0.00  0.00    +0.000 A 
ATOM     19  C   UNL     1       1.061   4.254  17.332  0.00  0.00    +0.000 C 
ATOM     20  C   UNL     1       3.384   4.821  18.254  0.00  0.00    +0.000 A 
ENDBRANCH  12  20
ENDBRANCH  11  12
ENDBRANCH   1  11
BRANCH   3  21
ATOM     21  C   UNL     1       0.847  10.486  18.638  0.00  0.00    +0.000 C 
BRANCH  21  22
ATOM     22  C   UNL     1      -0.616  10.586  18.305  0.00  0.00    +0.000 A 
ATOM     23  C   UNL     1      -1.389   9.776  17.487  0.00  0.00    +0.000 A 
ATOM     24  C   UNL     1      -2.702  10.283  17.266  0.00  0.00    +0.000 A 
ATOM     25  C   UNL     1      -2.909  11.472  17.922  0.00  0.00    +0.000 A 
ATOM     26  S   UNL     1      -1.536  11.948  18.824  0.00  0.00    +0.000 S 
ENDBRANCH  21  22
ENDBRANCH   3  21
TORSDOF 6
ENDMDL
MODEL 8
REMARK VINA RESULT:      -6.9      3.377      7.706
REMARK  Name = 
REMARK  8 active torsions:
REMARK  status: ('A' for Active; 'I' for Inactive)
REMARK    1  A    between atoms: C_1  and  C_2
REMARK    2  A    between atoms: C_6  and  C_7
REMARK    3  A    between atoms: C_8  and  O_9
REMARK    4  A    between atoms: O_9  and  C_10
REMARK    5  A    between atoms: C_10  and  C_11
REMARK    6  A    between atoms: N_13  and  C_14
REMARK    7  A    between atoms: N_13  and  C_20
REMARK    8  A    between atoms: C_14  and  C_15
REMARK                            x       y       z     vdW  Elec       q    Type
REMARK                         _______ _______ _______ _____ _____    ______ ____
ROOT
ATOM      1  C   UNL     1       2.611   7.896  17.838  0.00  0.00    +0.000 C 
ATOM      2  O   UNL     1       3.147   8.540  16.930  0.00  0.00    +0.000 OA
ATOM      3  N   UNL     1       3.006   6.577  18.147  0.00  0.00    +0.000 N 
ENDROOT
BRANCH   3   4
ATOM      4  C   UNL     1       2.037   5.656  18.790  0.00  0.00    +0.000 C 
ATOM      5  C   UNL     1       2.411   5.082  20.169  0.00  0.00    +0.000 C 
ATOM      6  C   UNL     1       2.768   3.610  20.043  0.00  0.00    +0.000 C 
ATOM      7  S   UNL     1       1.821   2.989  18.666  0.00  0.00    +0.000 S 
ATOM      8  O   UNL     1       0.527   2.561  19.168  0.00  0.00    +0.000 OA
ATOM      9  O   UNL     1       2.675   2.142  17.865  0.00  0.00    +0.000 OA
ATOM     10  C   UNL     1       1.599   4.540  17.838  0.00  0.00    +0.000 C 
ENDBRANCH   3   4
BRANCH   1  11
ATOM     11  C   UNL     1       1.500   8.581  18.673  0.00  0.00    +0.000 C 
BRANCH  11  12
ATOM     12  O   UNL     1       0.893   9.715  18.078  0.00  0.00    +0.000 OA
BRANCH  12  20
ATOM     13  C   UNL     1       1.396  11.240  20.818  0.00  0.00    +0.000 C 
ATOM     14  C   UNL     1       0.137  11.179  19.981  0.00  0.00    +0.000 A 
ATOM     15  C   UNL     1      -0.938  11.930  20.509  0.00  0.00    +0.000 A 
ATOM     16  C   UNL     1      -2.176  11.968  19.885  0.00  0.00    +0.000 A 
ATOM     17  C   UNL     1      -2.369  11.241  18.725  0.00  0.00    +0.000 A 
ATOM     18  C   UNL     1      -1.321  10.485  18.167  0.00  0.00    +0.000 A 
ATOM     19  C   UNL     1      -1.614   9.713  16.898  0.00  0.00    +0.000 C 
ATOM     20  C   UNL     1      -0.039  10.461  18.777  0.00  0.00    +0.000 A 
ENDBRANCH  12  20
ENDBRANCH  11  12
ENDBRANCH   1  11
BRANCH   3  21
ATOM     21  C   UNL     1       4.067   6.018  17.277  0.00  0.00    +0.000 C 
BRANCH  21  22
ATOM     22  C   UNL     1       5.453   6.249  17.815  0.00  0.00    +0.000 A 
ATOM     23  C   UNL     1       6.445   7.101  17.351  0.00  0.00    +0.000 A 
ATOM     24  C   UNL     1       7.697   6.921  18.007  0.00  0.00    +0.000 A 
ATOM     25  C   UNL     1       7.638   5.936  18.962  0.00  0.00    +0.000 A 
ATOM     26  S   UNL     1       6.070   5.262  19.085  0.00  0.00    +0.000 S 
ENDBRANCH  21  22
ENDBRANCH   3  21
TORSDOF 6
ENDMDL
MODEL 9
REMARK VINA RESULT:      -6.9      3.274      7.680
REMARK  Name = 
REMARK  8 active torsions:
REMARK  status: ('A' for Active; 'I' for Inactive)
REMARK    1  A    between atoms: C_1  and  C_2
REMARK    2  A    between atoms: C_6  and  C_7
REMARK    3  A    between atoms: C_8  and  O_9
REMARK    4  A    between atoms: O_9  and  C_10
REMARK    5  A    between atoms: C_10  and  C_11
REMARK    6  A    between atoms: N_13  and  C_14
REMARK    7  A    between atoms: N_13  and  C_20
REMARK    8  A    between atoms: C_14  and  C_15
REMARK                            x       y       z     vdW  Elec       q    Type
REMARK                         _______ _______ _______ _____ _____    ______ ____
ROOT
ATOM      1  C   UNL     1       2.246   7.624  19.455  0.00  0.00    +0.000 C 
ATOM      2  O   UNL     1       2.478   8.578  18.705  0.00  0.00    +0.000 OA
ATOM      3  N   UNL     1       2.640   6.308  19.129  0.00  0.00    +0.000 N 
ENDROOT
BRANCH   3   4
ATOM      4  C   UNL     1       1.893   5.160  19.699  0.00  0.00    +0.000 C 
ATOM      5  C   UNL     1       2.502   4.458  20.927  0.00  0.00    +0.000 C 
ATOM      6  C   UNL     1       3.051   3.096  20.531  0.00  0.00    +0.000 C 
ATOM      7  S   UNL     1       2.051   2.540  19.165  0.00  0.00    +0.000 S 
ATOM      8  O   UNL     1       0.899   1.842  19.706  0.00  0.00    +0.000 OA
ATOM      9  O   UNL     1       2.920   1.967  18.162  0.00  0.00    +0.000 OA
ATOM     10  C   UNL     1       1.513   4.140  18.623  0.00  0.00    +0.000 C 
ENDBRANCH   3   4
BRANCH   1  11
ATOM     11  C   UNL     1       1.533   7.901  20.803  0.00  0.00    +0.000 C 
BRANCH  11  12
ATOM     12  O   UNL     1       0.171   8.282  20.713  0.00  0.00    +0.000 OA
BRANCH  12  20
ATOM     13  C   UNL     1      -0.412  10.069  18.154  0.00  0.00    +0.000 C 
ATOM     14  C   UNL     1      -0.482  10.451  19.615  0.00  0.00    +0.000 A 
ATOM     15  C   UNL     1      -0.884  11.787  19.840  0.00  0.00    +0.000 A 
ATOM     16  C   UNL     1      -0.980  12.315  21.119  0.00  0.00    +0.000 A 
ATOM     17  C   UNL     1      -0.660  11.519  22.202  0.00  0.00    +0.000 A 
ATOM     18  C   UNL     1      -0.259  10.182  22.019  0.00  0.00    +0.000 A 
ATOM     19  C   UNL     1       0.079   9.378  23.256  0.00  0.00    +0.000 C 
ATOM     20  C   UNL     1      -0.186   9.617  20.718  0.00  0.00    +0.000 A 
ENDBRANCH  12  20
ENDBRANCH  11  12
ENDBRANCH   1  11
BRANCH   3  21
ATOM     21  C   UNL     1       3.302   6.159  17.812  0.00  0.00    +0.000 C 
BRANCH  21  22
ATOM     22  C   UNL     1       4.802   6.226  17.895  0.00  0.00    +0.000 A 
ATOM     23  C   UNL     1       5.694   6.941  17.109  0.00  0.00    +0.000 A 
ATOM     24  C   UNL     1       7.058   6.620  17.367  0.00  0.00    +0.000 A 
ATOM     25  C   UNL     1       7.183   5.666  18.348  0.00  0.00    +0.000 A 
ATOM     26  S   UNL     1       5.662   5.193  18.973  0.00  0.00    +0.000 S 
ENDBRANCH  21  22
ENDBRANCH   3  21
TORSDOF 6
ENDMDL
