MODEL 1
REMARK VINA RESULT:      -7.6      0.000      0.000
REMARK  Name = 
REMARK  7 active torsions:
REMARK  status: ('A' for Active; 'I' for Inactive)
REMARK    1  A    between atoms: C_1  and  S_2
REMARK    2  A    between atoms: S_2  and  N_5
REMARK    3  A    between atoms: C_6  and  C_8
REMARK    4  A    between atoms: C_12  and  O_13
REMARK    5  A    between atoms: O_13  and  C_14
REMARK    6  A    between atoms: C_14  and  C_15
REMARK    7  A    between atoms: C_18  and  C_19
REMARK                            x       y       z     vdW  Elec       q    Type
REMARK                         _______ _______ _______ _____ _____    ______ ____
ROOT
ATOM      1  C   UNL     1       1.545   8.656  19.352  0.00  0.00    +0.000 A 
ATOM      2  C   UNL     1       1.728   7.481  20.097  0.00  0.00    +0.000 A 
ATOM      3  C   UNL     1       2.562   6.463  19.627  0.00  0.00    +0.000 A 
ATOM      4 CL   UNL     1       2.756   5.056  20.612  0.00  0.00    +0.000 Cl
ATOM      5  C   UNL     1       3.242   6.599  18.408  0.00  0.00    +0.000 A 
ATOM      6  C   UNL     1       3.036   7.760  17.654  0.00  0.00    +0.000 A 
ATOM      7  C   UNL     1       2.198   8.774  18.128  0.00  0.00    +0.000 A 
ATOM      8  F   UNL     1       2.049   9.871  17.371  0.00  0.00    +0.000 F 
ENDROOT
BRANCH   1  10
ATOM      9  N   UNL     1       1.271  10.969  20.167  0.00  0.00    +0.000 N 
ATOM     10  C   UNL     1       0.688   9.722  19.934  0.00  0.00    +0.000 C 
ATOM     11  O   UNL     1      -0.464   9.464  20.247  0.00  0.00    +0.000 OA
ATOM     12  H   UNL     1       2.246  11.167  19.955  0.00  0.00    +0.000 HD
BRANCH   9  14
ATOM     13  C   UNL     1       1.693  13.548  20.792  0.00  0.00    +0.000 C 
ATOM     14  S   UNL     1       0.445  12.273  20.788  0.00  0.00    +0.000 S 
ATOM     15  O   UNL     1       0.034  11.980  22.142  0.00  0.00    +0.000 OA
ATOM     16  O   UNL     1      -0.529  12.620  19.775  0.00  0.00    +0.000 OA
ENDBRANCH   9  14
ENDBRANCH   1  10
BRANCH   5  17
ATOM     17  O   UNL     1       4.042   5.560  18.000  0.00  0.00    +0.000 OA
BRANCH  17  18
ATOM     18  C   UNL     1       5.353   5.918  17.560  0.00  0.00    +0.000 C 
BRANCH  18  19
ATOM     19  C   UNL     1       5.567   5.558  16.079  0.00  0.00    +0.000 C 
ATOM     20  C   UNL     1       7.032   5.229  15.771  0.00  0.00    +0.000 C 
ATOM     21  C   UNL     1       7.232   4.978  14.278  0.00  0.00    +0.000 C 
ATOM     22  C   UNL     1       6.331   3.849  13.756  0.00  0.00    +0.000 C 
ATOM     23  C   UNL     1       4.860   4.101  14.128  0.00  0.00    +0.000 C 
ATOM     24  C   UNL     1       4.672   4.396  15.621  0.00  0.00    +0.000 C 
BRANCH  22  25
ATOM     25  C   UNL     1       6.516   3.635  12.249  0.00  0.00    +0.000 C 
ATOM     26  F   UNL     1       5.339   3.646  11.582  0.00  0.00    +0.000 F 
ATOM     27  F   UNL     1       7.279   4.621  11.723  0.00  0.00    +0.000 F 
ATOM     28  F   UNL     1       7.125   2.464  11.965  0.00  0.00    +0.000 F 
ENDBRANCH  22  25
ENDBRANCH  18  19
ENDBRANCH  17  18
ENDBRANCH   5  17
TORSDOF 6
ENDMDL
MODEL 2
REMARK VINA RESULT:      -7.4      6.018      8.840
REMARK  Name = 
REMARK  7 active torsions:
REMARK  status: ('A' for Active; 'I' for Inactive)
REMARK    1  A    between atoms: C_1  and  S_2
REMARK    2  A    between atoms: S_2  and  N_5
REMARK    3  A    between atoms: C_6  and  C_8
REMARK    4  A    between atoms: C_12  and  O_13
REMARK    5  A    between atoms: O_13  and  C_14
REMARK    6  A    between atoms: C_14  and  C_15
REMARK    7  A    between atoms: C_18  and  C_19
REMARK                            x       y       z     vdW  Elec       q    Type
REMARK                         _______ _______ _______ _____ _____    ______ ____
ROOT
ATOM      1  C   UNL     1       5.271   5.263  17.773  0.00  0.00    +0.000 A 
ATOM      2  C   UNL     1       6.242   5.032  18.758  0.00  0.00    +0.000 A 
ATOM      3  C   UNL     1       7.288   5.939  18.953  0.00  0.00    +0.000 A 
ATOM      4 CL   UNL     1       8.433   5.597  20.201  0.00  0.00    +0.000 Cl
ATOM      5  C   UNL     1       7.381   7.103  18.176  0.00  0.00    +0.000 A 
ATOM      6  C   UNL     1       6.426   7.317  17.176  0.00  0.00    +0.000 A 
ATOM      7  C   UNL     1       5.384   6.406  16.984  0.00  0.00    +0.000 A 
ATOM      8  F   UNL     1       4.488   6.669  16.021  0.00  0.00    +0.000 F 
ENDROOT
BRANCH   1  10
ATOM      9  N   UNL     1       3.187   4.282  18.659  0.00  0.00    +0.000 N 
ATOM     10  C   UNL     1       4.155   4.287  17.653  0.00  0.00    +0.000 C 
ATOM     11  O   UNL     1       4.152   3.488  16.730  0.00  0.00    +0.000 OA
ATOM     12  H   UNL     1       3.220   4.914  19.456  0.00  0.00    +0.000 HD
BRANCH   9  14
ATOM     13  C   UNL     1       1.000   3.781  20.138  0.00  0.00    +0.000 C 
ATOM     14  S   UNL     1       1.864   3.273  18.662  0.00  0.00    +0.000 S 
ATOM     15  O   UNL     1       2.306   1.904  18.795  0.00  0.00    +0.000 OA
ATOM     16  O   UNL     1       1.069   3.690  17.526  0.00  0.00    +0.000 OA
ENDBRANCH   9  14
ENDBRANCH   1  10
BRANCH   5  17
ATOM     17  O   UNL     1       8.435   7.951  18.415  0.00  0.00    +0.000 OA
BRANCH  17  18
ATOM     18  C   UNL     1       8.471   9.138  17.623  0.00  0.00    +0.000 C 
BRANCH  18  19
ATOM     19  C   UNL     1       8.618  10.395  18.499  0.00  0.00    +0.000 C 
ATOM     20  C   UNL     1       9.304  10.089  19.836  0.00  0.00    +0.000 C 
ATOM     21  C   UNL     1       9.341  11.330  20.726  0.00  0.00    +0.000 C 
ATOM     22  C   UNL     1      10.049  12.509  20.042  0.00  0.00    +0.000 C 
ATOM     23  C   UNL     1       9.446  12.787  18.655  0.00  0.00    +0.000 C 
ATOM     24  C   UNL     1       9.370  11.527  17.783  0.00  0.00    +0.000 C 
BRANCH  22  25
ATOM     25  C   UNL     1      10.045  13.758  20.932  0.00  0.00    +0.000 C 
ATOM     26  F   UNL     1       9.035  14.603  20.625  0.00  0.00    +0.000 F 
ATOM     27  F   UNL     1       9.890  13.411  22.231  0.00  0.00    +0.000 F 
ATOM     28  F   UNL     1      11.195  14.460  20.841  0.00  0.00    +0.000 F 
ENDBRANCH  22  25
ENDBRANCH  18  19
ENDBRANCH  17  18
ENDBRANCH   5  17
TORSDOF 6
ENDMDL
MODEL 3
REMARK VINA RESULT:      -7.4      2.916      3.789
REMARK  Name = 
REMARK  7 active torsions:
REMARK  status: ('A' for Active; 'I' for Inactive)
REMARK    1  A    between atoms: C_1  and  S_2
REMARK    2  A    between atoms: S_2  and  N_5
REMARK    3  A    between atoms: C_6  and  C_8
REMARK    4  A    between atoms: C_12  and  O_13
REMARK    5  A    between atoms: O_13  and  C_14
REMARK    6  A    between atoms: C_14  and  C_15
REMARK    7  A    between atoms: C_18  and  C_19
REMARK                            x       y       z     vdW  Elec       q    Type
REMARK                         _______ _______ _______ _____ _____    ______ ____
ROOT
ATOM      1  C   UNL     1      -0.044  10.291  21.298  0.00  0.00    +0.000 A 
ATOM      2  C   UNL     1       0.572  10.840  20.164  0.00  0.00    +0.000 A 
ATOM      3  C   UNL     1       1.361  10.044  19.327  0.00  0.00    +0.000 A 
ATOM      4 CL   UNL     1       2.068  10.785  17.936  0.00  0.00    +0.000 Cl
ATOM      5  C   UNL     1       1.542   8.679  19.599  0.00  0.00    +0.000 A 
ATOM      6  C   UNL     1       0.950   8.142  20.747  0.00  0.00    +0.000 A 
ATOM      7  C   UNL     1       0.164   8.943  21.581  0.00  0.00    +0.000 A 
ATOM      8  F   UNL     1      -0.393   8.372  22.659  0.00  0.00    +0.000 F 
ENDROOT
BRANCH   1  10
ATOM      9  N   UNL     1      -1.991  11.797  21.479  0.00  0.00    +0.000 N 
ATOM     10  C   UNL     1      -0.913  11.180  22.115  0.00  0.00    +0.000 C 
ATOM     11  O   UNL     1      -0.626  11.392  23.283  0.00  0.00    +0.000 OA
ATOM     12  H   UNL     1      -2.197  11.660  20.492  0.00  0.00    +0.000 HD
BRANCH   9  14
ATOM     13  C   UNL     1      -2.049  14.190  22.700  0.00  0.00    +0.000 C 
ATOM     14  S   UNL     1      -3.071  12.797  22.254  0.00  0.00    +0.000 S 
ATOM     15  O   UNL     1      -3.561  12.142  23.445  0.00  0.00    +0.000 OA
ATOM     16  O   UNL     1      -3.984  13.239  21.221  0.00  0.00    +0.000 OA
ENDBRANCH   9  14
ENDBRANCH   1  10
BRANCH   5  17
ATOM     17  O   UNL     1       2.333   7.954  18.741  0.00  0.00    +0.000 OA
BRANCH  17  18
ATOM     18  C   UNL     1       2.644   6.624  19.155  0.00  0.00    +0.000 C 
BRANCH  18  19
ATOM     19  C   UNL     1       3.811   6.039  18.340  0.00  0.00    +0.000 C 
ATOM     20  C   UNL     1       3.433   4.718  17.658  0.00  0.00    +0.000 C 
ATOM     21  C   UNL     1       4.640   4.110  16.945  0.00  0.00    +0.000 C 
ATOM     22  C   UNL     1       5.242   5.070  15.908  0.00  0.00    +0.000 C 
ATOM     23  C   UNL     1       5.549   6.440  16.537  0.00  0.00    +0.000 C 
ATOM     24  C   UNL     1       4.348   7.024  17.291  0.00  0.00    +0.000 C 
BRANCH  22  25
ATOM     25  C   UNL     1       6.473   4.460  15.228  0.00  0.00    +0.000 C 
ATOM     26  F   UNL     1       7.008   5.286  14.300  0.00  0.00    +0.000 F 
ATOM     27  F   UNL     1       7.440   4.210  16.140  0.00  0.00    +0.000 F 
ATOM     28  F   UNL     1       6.196   3.292  14.610  0.00  0.00    +0.000 F 
ENDBRANCH  22  25
ENDBRANCH  18  19
ENDBRANCH  17  18
ENDBRANCH   5  17
TORSDOF 6
ENDMDL
MODEL 4
REMARK VINA RESULT:      -7.4      0.767      1.211
REMARK  Name = 
REMARK  7 active torsions:
REMARK  status: ('A' for Active; 'I' for Inactive)
REMARK    1  A    between atoms: C_1  and  S_2
REMARK    2  A    between atoms: S_2  and  N_5
REMARK    3  A    between atoms: C_6  and  C_8
REMARK    4  A    between atoms: C_12  and  O_13
REMARK    5  A    between atoms: O_13  and  C_14
REMARK    6  A    between atoms: C_14  and  C_15
REMARK    7  A    between atoms: C_18  and  C_19
REMARK                            x       y       z     vdW  Elec       q    Type
REMARK                         _______ _______ _______ _____ _____    ______ ____
ROOT
ATOM      1  C   UNL     1       1.508   8.611  19.361  0.00  0.00    +0.000 A 
ATOM      2  C   UNL     1       1.669   7.432  20.104  0.00  0.00    +0.000 A 
ATOM      3  C   UNL     1       2.541   6.430  19.669  0.00  0.00    +0.000 A 
ATOM      4 CL   UNL     1       2.705   5.017  20.651  0.00  0.00    +0.000 Cl
ATOM      5  C   UNL     1       3.281   6.587  18.488  0.00  0.00    +0.000 A 
ATOM      6  C   UNL     1       3.097   7.751  17.734  0.00  0.00    +0.000 A 
ATOM      7  C   UNL     1       2.221   8.749  18.172  0.00  0.00    +0.000 A 
ATOM      8  F   UNL     1       2.095   9.851  17.418  0.00  0.00    +0.000 F 
ENDROOT
BRANCH   1  10
ATOM      9  N   UNL     1       1.190  10.833  20.385  0.00  0.00    +0.000 N 
ATOM     10  C   UNL     1       0.605   9.659  19.906  0.00  0.00    +0.000 C 
ATOM     11  O   UNL     1      -0.594   9.442  19.979  0.00  0.00    +0.000 OA
ATOM     12  H   UNL     1       2.195  10.991  20.372  0.00  0.00    +0.000 HD
BRANCH   9  14
ATOM     13  C   UNL     1      -0.516  11.368  22.392  0.00  0.00    +0.000 C 
ATOM     14  S   UNL     1       0.322  12.111  21.002  0.00  0.00    +0.000 S 
ATOM     15  O   UNL     1      -0.644  12.553  20.023  0.00  0.00    +0.000 OA
ATOM     16  O   UNL     1       1.315  13.023  21.530  0.00  0.00    +0.000 OA
ENDBRANCH   9  14
ENDBRANCH   1  10
BRANCH   5  17
ATOM     17  O   UNL     1       4.117   5.563  18.113  0.00  0.00    +0.000 OA
BRANCH  17  18
ATOM     18  C   UNL     1       5.399   5.954  17.621  0.00  0.00    +0.000 C 
BRANCH  18  19
ATOM     19  C   UNL     1       5.570   5.580  16.138  0.00  0.00    +0.000 C 
ATOM     20  C   UNL     1       7.040   5.345  15.768  0.00  0.00    +0.000 C 
ATOM     21  C   UNL     1       7.189   5.080  14.271  0.00  0.00    +0.000 C 
ATOM     22  C   UNL     1       6.344   3.883  13.810  0.00  0.00    +0.000 C 
ATOM     23  C   UNL     1       4.877   4.041  14.246  0.00  0.00    +0.000 C 
ATOM     24  C   UNL     1       4.737   4.352  15.741  0.00  0.00    +0.000 C 
BRANCH  22  25
ATOM     25  C   UNL     1       6.475   3.652  12.300  0.00  0.00    +0.000 C 
ATOM     26  F   UNL     1       7.342   4.515  11.723  0.00  0.00    +0.000 F 
ATOM     27  F   UNL     1       6.934   2.404  12.052  0.00  0.00    +0.000 F 
ATOM     28  F   UNL     1       5.296   3.781  11.654  0.00  0.00    +0.000 F 
ENDBRANCH  22  25
ENDBRANCH  18  19
ENDBRANCH  17  18
ENDBRANCH   5  17
TORSDOF 6
ENDMDL
MODEL 5
REMARK VINA RESULT:      -7.4      4.677     10.320
REMARK  Name = 
REMARK  7 active torsions:
REMARK  status: ('A' for Active; 'I' for Inactive)
REMARK    1  A    between atoms: C_1  and  S_2
REMARK    2  A    between atoms: S_2  and  N_5
REMARK    3  A    between atoms: C_6  and  C_8
REMARK    4  A    between atoms: C_12  and  O_13
REMARK    5  A    between atoms: O_13  and  C_14
REMARK    6  A    between atoms: C_14  and  C_15
REMARK    7  A    between atoms: C_18  and  C_19
REMARK                            x       y       z     vdW  Elec       q    Type
REMARK                         _______ _______ _______ _____ _____    ______ ____
ROOT
ATOM      1  C   UNL     1       3.830   5.597  18.448  0.00  0.00    +0.000 A 
ATOM      2  C   UNL     1       3.431   6.841  17.936  0.00  0.00    +0.000 A 
ATOM      3  C   UNL     1       2.507   7.631  18.627  0.00  0.00    +0.000 A 
ATOM      4 CL   UNL     1       2.083   9.161  17.946  0.00  0.00    +0.000 Cl
ATOM      5  C   UNL     1       1.969   7.201  19.849  0.00  0.00    +0.000 A 
ATOM      6  C   UNL     1       2.347   5.947  20.342  0.00  0.00    +0.000 A 
ATOM      7  C   UNL     1       3.270   5.161  19.646  0.00  0.00    +0.000 A 
ATOM      8  F   UNL     1       3.608   3.974  20.172  0.00  0.00    +0.000 F 
ENDROOT
BRANCH   1  10
ATOM      9  N   UNL     1       5.886   5.552  17.083  0.00  0.00    +0.000 N 
ATOM     10  C   UNL     1       4.857   4.831  17.691  0.00  0.00    +0.000 C 
ATOM     11  O   UNL     1       4.737   3.622  17.571  0.00  0.00    +0.000 OA
ATOM     12  H   UNL     1       5.955   6.565  17.140  0.00  0.00    +0.000 HD
BRANCH   9  14
ATOM     13  C   UNL     1       6.254   3.694  15.176  0.00  0.00    +0.000 C 
ATOM     14  S   UNL     1       7.124   4.846  16.225  0.00  0.00    +0.000 S 
ATOM     15  O   UNL     1       7.990   4.130  17.132  0.00  0.00    +0.000 OA
ATOM     16  O   UNL     1       7.644   5.899  15.377  0.00  0.00    +0.000 OA
ENDBRANCH   9  14
ENDBRANCH   1  10
BRANCH   5  17
ATOM     17  O   UNL     1       1.062   8.022  20.474  0.00  0.00    +0.000 OA
BRANCH  17  18
ATOM     18  C   UNL     1       1.492   8.601  21.706  0.00  0.00    +0.000 C 
BRANCH  18  19
ATOM     19  C   UNL     1       0.715   9.892  22.022  0.00  0.00    +0.000 C 
ATOM     20  C   UNL     1       0.368  10.681  20.754  0.00  0.00    +0.000 C 
ATOM     21  C   UNL     1      -0.308  12.005  21.105  0.00  0.00    +0.000 C 
ATOM     22  C   UNL     1      -1.576  11.801  21.948  0.00  0.00    +0.000 C 
ATOM     23  C   UNL     1      -1.283  10.933  23.184  0.00  0.00    +0.000 C 
ATOM     24  C   UNL     1      -0.564   9.626  22.829  0.00  0.00    +0.000 C 
BRANCH  22  25
ATOM     25  C   UNL     1      -2.222  13.140  22.323  0.00  0.00    +0.000 C 
ATOM     26  F   UNL     1      -1.677  14.178  21.649  0.00  0.00    +0.000 F 
ATOM     27  F   UNL     1      -3.542  13.125  22.029  0.00  0.00    +0.000 F 
ATOM     28  F   UNL     1      -2.109  13.416  23.640  0.00  0.00    +0.000 F 
ENDBRANCH  22  25
ENDBRANCH  18  19
ENDBRANCH  17  18
ENDBRANCH   5  17
TORSDOF 6
ENDMDL
MODEL 6
REMARK VINA RESULT:      -7.3      3.137      4.084
REMARK  Name = 
REMARK  7 active torsions:
REMARK  status: ('A' for Active; 'I' for Inactive)
REMARK    1  A    between atoms: C_1  and  S_2
REMARK    2  A    between atoms: S_2  and  N_5
REMARK    3  A    between atoms: C_6  and  C_8
REMARK    4  A    between atoms: C_12  and  O_13
REMARK    5  A    between atoms: O_13  and  C_14
REMARK    6  A    between atoms: C_14  and  C_15
REMARK    7  A    between atoms: C_18  and  C_19
REMARK                            x       y       z     vdW  Elec       q    Type
REMARK                         _______ _______ _______ _____ _____    ______ ____
ROOT
ATOM      1  C   UNL     1      -0.185  10.432  21.591  0.00  0.00    +0.000 A 
ATOM      2  C   UNL     1       0.186  10.529  20.242  0.00  0.00    +0.000 A 
ATOM      3  C   UNL     1       1.064   9.599  19.676  0.00  0.00    +0.000 A 
ATOM      4 CL   UNL     1       1.456   9.770  18.002  0.00  0.00    +0.000 Cl
ATOM      5  C   UNL     1       1.581   8.545  20.443  0.00  0.00    +0.000 A 
ATOM      6  C   UNL     1       1.232   8.468  21.796  0.00  0.00    +0.000 A 
ATOM      7  C   UNL     1       0.356   9.402  22.356  0.00  0.00    +0.000 A 
ATOM      8  F   UNL     1       0.043   9.271  23.654  0.00  0.00    +0.000 F 
ENDROOT
BRANCH   1  10
ATOM      9  N   UNL     1      -2.193  11.830  21.265  0.00  0.00    +0.000 N 
ATOM     10  C   UNL     1      -1.164  11.422  22.116  0.00  0.00    +0.000 C 
ATOM     11  O   UNL     1      -1.007  11.889  23.233  0.00  0.00    +0.000 OA
ATOM     12  H   UNL     1      -2.292  11.479  20.315  0.00  0.00    +0.000 HD
BRANCH   9  14
ATOM     13  C   UNL     1      -4.427  12.935  20.260  0.00  0.00    +0.000 C 
ATOM     14  S   UNL     1      -3.381  12.908  21.705  0.00  0.00    +0.000 S 
ATOM     15  O   UNL     1      -2.793  14.211  21.913  0.00  0.00    +0.000 OA
ATOM     16  O   UNL     1      -4.117  12.248  22.763  0.00  0.00    +0.000 OA
ENDBRANCH   9  14
ENDBRANCH   1  10
BRANCH   5  17
ATOM     17  O   UNL     1       2.443   7.668  19.830  0.00  0.00    +0.000 OA
BRANCH  17  18
ATOM     18  C   UNL     1       1.839   6.534  19.208  0.00  0.00    +0.000 C 
BRANCH  18  19
ATOM     19  C   UNL     1       2.731   5.962  18.092  0.00  0.00    +0.000 C 
ATOM     20  C   UNL     1       3.870   6.918  17.718  0.00  0.00    +0.000 C 
ATOM     21  C   UNL     1       4.674   6.371  16.539  0.00  0.00    +0.000 C 
ATOM     22  C   UNL     1       5.247   4.976  16.828  0.00  0.00    +0.000 C 
ATOM     23  C   UNL     1       4.143   4.012  17.296  0.00  0.00    +0.000 C 
ATOM     24  C   UNL     1       3.311   4.585  18.450  0.00  0.00    +0.000 C 
BRANCH  22  25
ATOM     25  C   UNL     1       6.019   4.426  15.623  0.00  0.00    +0.000 C 
ATOM     26  F   UNL     1       5.888   3.086  15.499  0.00  0.00    +0.000 F 
ATOM     27  F   UNL     1       5.557   4.977  14.476  0.00  0.00    +0.000 F 
ATOM     28  F   UNL     1       7.341   4.694  15.691  0.00  0.00    +0.000 F 
ENDBRANCH  22  25
ENDBRANCH  18  19
ENDBRANCH  17  18
ENDBRANCH   5  17
TORSDOF 6
ENDMDL
MODEL 7
REMARK VINA RESULT:      -7.3      4.963     10.113
REMARK  Name = 
REMARK  7 active torsions:
REMARK  status: ('A' for Active; 'I' for Inactive)
REMARK    1  A    between atoms: C_1  and  S_2
REMARK    2  A    between atoms: S_2  and  N_5
REMARK    3  A    between atoms: C_6  and  C_8
REMARK    4  A    between atoms: C_12  and  O_13
REMARK    5  A    between atoms: O_13  and  C_14
REMARK    6  A    between atoms: C_14  and  C_15
REMARK    7  A    between atoms: C_18  and  C_19
REMARK                            x       y       z     vdW  Elec       q    Type
REMARK                         _______ _______ _______ _____ _____    ______ ____
ROOT
ATOM      1  C   UNL     1       2.312   7.332  19.298  0.00  0.00    +0.000 A 
ATOM      2  C   UNL     1       1.666   7.580  20.518  0.00  0.00    +0.000 A 
ATOM      3  C   UNL     1       0.943   8.760  20.714  0.00  0.00    +0.000 A 
ATOM      4 CL   UNL     1       0.155   8.983  22.236  0.00  0.00    +0.000 Cl
ATOM      5  C   UNL     1       0.839   9.715  19.691  0.00  0.00    +0.000 A 
ATOM      6  C   UNL     1       1.508   9.478  18.486  0.00  0.00    +0.000 A 
ATOM      7  C   UNL     1       2.232   8.297  18.296  0.00  0.00    +0.000 A 
ATOM      8  F   UNL     1       2.840   8.115  17.115  0.00  0.00    +0.000 F 
ENDROOT
BRANCH   1  10
ATOM      9  N   UNL     1       2.356   5.016  18.447  0.00  0.00    +0.000 N 
ATOM     10  C   UNL     1       3.019   6.034  19.136  0.00  0.00    +0.000 C 
ATOM     11  O   UNL     1       4.112   5.875  19.656  0.00  0.00    +0.000 OA
ATOM     12  H   UNL     1       1.423   5.133  18.060  0.00  0.00    +0.000 HD
BRANCH   9  14
ATOM     13  C   UNL     1       2.833   2.707  19.737  0.00  0.00    +0.000 C 
ATOM     14  S   UNL     1       3.016   3.517  18.158  0.00  0.00    +0.000 S 
ATOM     15  O   UNL     1       4.418   3.663  17.839  0.00  0.00    +0.000 OA
ATOM     16  O   UNL     1       2.106   2.876  17.232  0.00  0.00    +0.000 OA
ENDBRANCH   9  14
ENDBRANCH   1  10
BRANCH   5  17
ATOM     17  O   UNL     1       0.118  10.855  19.950  0.00  0.00    +0.000 OA
BRANCH  17  18
ATOM     18  C   UNL     1      -0.555  11.433  18.831  0.00  0.00    +0.000 C 
BRANCH  18  19
ATOM     19  C   UNL     1      -2.077  11.222  18.920  0.00  0.00    +0.000 C 
ATOM     20  C   UNL     1      -2.799  12.452  19.481  0.00  0.00    +0.000 C 
ATOM     21  C   UNL     1      -4.291  12.176  19.656  0.00  0.00    +0.000 C 
ATOM     22  C   UNL     1      -4.956  11.744  18.341  0.00  0.00    +0.000 C 
ATOM     23  C   UNL     1      -4.201  10.567  17.700  0.00  0.00    +0.000 C 
ATOM     24  C   UNL     1      -2.697  10.833  17.569  0.00  0.00    +0.000 C 
BRANCH  22  25
ATOM     25  C   UNL     1      -6.445  11.434  18.540  0.00  0.00    +0.000 C 
ATOM     26  F   UNL     1      -6.940  11.998  19.665  0.00  0.00    +0.000 F 
ATOM     27  F   UNL     1      -7.169  11.915  17.503  0.00  0.00    +0.000 F 
ATOM     28  F   UNL     1      -6.690  10.108  18.617  0.00  0.00    +0.000 F 
ENDBRANCH  22  25
ENDBRANCH  18  19
ENDBRANCH  17  18
ENDBRANCH   5  17
TORSDOF 6
ENDMDL
MODEL 8
REMARK VINA RESULT:      -7.3      4.844      6.242
REMARK  Name = 
REMARK  7 active torsions:
REMARK  status: ('A' for Active; 'I' for Inactive)
REMARK    1  A    between atoms: C_1  and  S_2
REMARK    2  A    between atoms: S_2  and  N_5
REMARK    3  A    between atoms: C_6  and  C_8
REMARK    4  A    between atoms: C_12  and  O_13
REMARK    5  A    between atoms: O_13  and  C_14
REMARK    6  A    between atoms: C_14  and  C_15
REMARK    7  A    between atoms: C_18  and  C_19
REMARK                            x       y       z     vdW  Elec       q    Type
REMARK                         _______ _______ _______ _____ _____    ______ ____
ROOT
ATOM      1  C   UNL     1      -0.969  11.139  22.123  0.00  0.00    +0.000 A 
ATOM      2  C   UNL     1      -0.941  11.366  20.739  0.00  0.00    +0.000 A 
ATOM      3  C   UNL     1      -0.257  10.493  19.888  0.00  0.00    +0.000 A 
ATOM      4 CL   UNL     1      -0.287  10.825  18.192  0.00  0.00    +0.000 Cl
ATOM      5  C   UNL     1       0.406   9.367  20.399  0.00  0.00    +0.000 A 
ATOM      6  C   UNL     1       0.400   9.160  21.783  0.00  0.00    +0.000 A 
ATOM      7  C   UNL     1      -0.284  10.037  22.629  0.00  0.00    +0.000 A 
ATOM      8  F   UNL     1      -0.269   9.781  23.946  0.00  0.00    +0.000 F 
ENDROOT
BRANCH   1  10
ATOM      9  N   UNL     1      -3.152  11.994  22.895  0.00  0.00    +0.000 N 
ATOM     10  C   UNL     1      -1.760  12.076  22.965  0.00  0.00    +0.000 C 
ATOM     11  O   UNL     1      -1.181  12.918  23.634  0.00  0.00    +0.000 OA
ATOM     12  H   UNL     1      -3.633  11.326  22.297  0.00  0.00    +0.000 HD
BRANCH   9  14
ATOM     13  C   UNL     1      -4.054  14.524  22.962  0.00  0.00    +0.000 C 
ATOM     14  S   UNL     1      -4.179  12.948  23.790  0.00  0.00    +0.000 S 
ATOM     15  O   UNL     1      -3.676  13.059  25.140  0.00  0.00    +0.000 OA
ATOM     16  O   UNL     1      -5.503  12.424  23.531  0.00  0.00    +0.000 OA
ENDBRANCH   9  14
ENDBRANCH   1  10
BRANCH   5  17
ATOM     17  O   UNL     1       1.064   8.552  19.511  0.00  0.00    +0.000 OA
BRANCH  17  18
ATOM     18  C   UNL     1       2.298   7.999  19.969  0.00  0.00    +0.000 C 
BRANCH  18  19
ATOM     19  C   UNL     1       2.349   6.477  19.746  0.00  0.00    +0.000 C 
ATOM     20  C   UNL     1       1.427   5.721  20.710  0.00  0.00    +0.000 C 
ATOM     21  C   UNL     1       1.578   4.211  20.536  0.00  0.00    +0.000 C 
ATOM     22  C   UNL     1       1.293   3.764  19.095  0.00  0.00    +0.000 C 
ATOM     23  C   UNL     1       2.137   4.568  18.091  0.00  0.00    +0.000 C 
ATOM     24  C   UNL     1       2.016   6.082  18.299  0.00  0.00    +0.000 C 
BRANCH  22  25
ATOM     25  C   UNL     1       1.485   2.252  18.928  0.00  0.00    +0.000 C 
ATOM     26  F   UNL     1       2.535   1.954  18.129  0.00  0.00    +0.000 F 
ATOM     27  F   UNL     1       1.722   1.672  20.127  0.00  0.00    +0.000 F 
ATOM     28  F   UNL     1       0.398   1.649  18.400  0.00  0.00    +0.000 F 
ENDBRANCH  22  25
ENDBRANCH  18  19
ENDBRANCH  17  18
ENDBRANCH   5  17
TORSDOF 6
ENDMDL
MODEL 9
REMARK VINA RESULT:      -7.3      5.032      9.820
REMARK  Name = 
REMARK  7 active torsions:
REMARK  status: ('A' for Active; 'I' for Inactive)
REMARK    1  A    between atoms: C_1  and  S_2
REMARK    2  A    between atoms: S_2  and  N_5
REMARK    3  A    between atoms: C_6  and  C_8
REMARK    4  A    between atoms: C_12  and  O_13
REMARK    5  A    between atoms: O_13  and  C_14
REMARK    6  A    between atoms: C_14  and  C_15
REMARK    7  A    between atoms: C_18  and  C_19
REMARK                            x       y       z     vdW  Elec       q    Type
REMARK                         _______ _______ _______ _____ _____    ______ ____
ROOT
ATOM      1  C   UNL     1       2.173   7.181  19.629  0.00  0.00    +0.000 A 
ATOM      2  C   UNL     1       1.521   7.586  20.803  0.00  0.00    +0.000 A 
ATOM      3  C   UNL     1       0.919   8.844  20.885  0.00  0.00    +0.000 A 
ATOM      4 CL   UNL     1       0.115   9.263  22.356  0.00  0.00    +0.000 Cl
ATOM      5  C   UNL     1       0.943   9.723  19.791  0.00  0.00    +0.000 A 
ATOM      6  C   UNL     1       1.618   9.327  18.631  0.00  0.00    +0.000 A 
ATOM      7  C   UNL     1       2.221   8.068  18.556  0.00  0.00    +0.000 A 
ATOM      8  F   UNL     1       2.842   7.735  17.414  0.00  0.00    +0.000 F 
ENDROOT
BRANCH   1  10
ATOM      9  N   UNL     1       1.858   4.737  19.486  0.00  0.00    +0.000 N 
ATOM     10  C   UNL     1       2.747   5.809  19.589  0.00  0.00    +0.000 C 
ATOM     11  O   UNL     1       3.952   5.658  19.711  0.00  0.00    +0.000 OA
ATOM     12  H   UNL     1       0.850   4.863  19.437  0.00  0.00    +0.000 HD
BRANCH   9  14
ATOM     13  C   UNL     1       2.706   2.770  21.109  0.00  0.00    +0.000 C 
ATOM     14  S   UNL     1       2.337   3.147  19.404  0.00  0.00    +0.000 S 
ATOM     15  O   UNL     1       3.538   3.047  18.606  0.00  0.00    +0.000 OA
ATOM     16  O   UNL     1       1.144   2.411  19.044  0.00  0.00    +0.000 OA
ENDBRANCH   9  14
ENDBRANCH   1  10
BRANCH   5  17
ATOM     17  O   UNL     1       0.337  10.946  19.938  0.00  0.00    +0.000 OA
BRANCH  17  18
ATOM     18  C   UNL     1       0.164  11.704  18.740  0.00  0.00    +0.000 C 
BRANCH  18  19
ATOM     19  C   UNL     1      -1.325  11.957  18.444  0.00  0.00    +0.000 C 
ATOM     20  C   UNL     1      -1.908  10.913  17.484  0.00  0.00    +0.000 C 
ATOM     21  C   UNL     1      -3.355  11.250  17.128  0.00  0.00    +0.000 C 
ATOM     22  C   UNL     1      -4.247  11.358  18.374  0.00  0.00    +0.000 C 
ATOM     23  C   UNL     1      -3.643  12.330  19.402  0.00  0.00    +0.000 C 
ATOM     24  C   UNL     1      -2.177  12.015  19.721  0.00  0.00    +0.000 C 
BRANCH  22  25
ATOM     25  C   UNL     1      -5.686  11.733  18.002  0.00  0.00    +0.000 C 
ATOM     26  F   UNL     1      -5.784  12.201  16.737  0.00  0.00    +0.000 F 
ATOM     27  F   UNL     1      -6.492  10.650  18.087  0.00  0.00    +0.000 F 
ATOM     28  F   UNL     1      -6.200  12.678  18.819  0.00  0.00    +0.000 F 
ENDBRANCH  22  25
ENDBRANCH  18  19
ENDBRANCH  17  18
ENDBRANCH   5  17
TORSDOF 6
ENDMDL
