MODEL 1
REMARK VINA RESULT:      -8.9      0.000      0.000
REMARK  Name = 
REMARK  10 active torsions:
REMARK  status: ('A' for Active; 'I' for Inactive)
REMARK    1  A    between atoms: C_1  and  C_2
REMARK    2  A    between atoms: C_5  and  C_6
REMARK    3  A    between atoms: C_11  and  C_12
REMARK    4  A    between atoms: C_12  and  C_13
REMARK    5  A    between atoms: C_12  and  C_14
REMARK    6  A    between atoms: C_12  and  C_15
REMARK    7  A    between atoms: C_19  and  N_20
REMARK    8  A    between atoms: C_22  and  C_23
REMARK    9  A    between atoms: C_27  and  N_28
REMARK   10  A    between atoms: N_28  and  C_29
REMARK                            x       y       z     vdW  Elec       q    Type
REMARK                         _______ _______ _______ _____ _____    ______ ____
ROOT
ATOM      1  C   UNL     1       0.863  14.155  19.738  0.00  0.00    +0.000 C 
ATOM      2  C   UNL     1       1.091  12.712  19.359  0.00  0.00    +0.000 A 
ATOM      3  C   UNL     1       1.990  12.454  18.316  0.00  0.00    +0.000 A 
ATOM      4  C   UNL     1       2.317  11.146  17.960  0.00  0.00    +0.000 A 
ATOM      5  C   UNL     1       1.754  10.057  18.636  0.00  0.00    +0.000 A 
ATOM      6  C   UNL     1       0.863  10.287  19.690  0.00  0.00    +0.000 A 
ATOM      7  C   UNL     1       0.516  11.613  20.040  0.00  0.00    +0.000 A 
ENDROOT
BRANCH   5   8
ATOM      8  C   UNL     1       2.212   8.704  18.226  0.00  0.00    +0.000 C 
ATOM      9  O   UNL     1       2.643   8.602  17.078  0.00  0.00    +0.000 OA
ATOM     10  N   UNL     1       2.092   7.681  19.149  0.00  0.00    +0.000 N 
ATOM     11  C   UNL     1       2.415   6.363  18.844  0.00  0.00    +0.000 A 
ATOM     12  C   UNL     1       2.306   5.272  19.742  0.00  0.00    +0.000 A 
ATOM     13  C   UNL     1       2.736   4.173  19.027  0.00  0.00    +0.000 A 
ATOM     14  O   UNL     1       3.064   4.582  17.773  0.00  0.00    +0.000 OA
ATOM     15  N   UNL     1       2.869   5.936  17.662  0.00  0.00    +0.000 NA
ATOM     16  H   UNL     1       1.692   7.852  20.059  0.00  0.00    +0.000 HD
BRANCH  13  17
ATOM     17  C   UNL     1       2.926   2.708  19.315  0.00  0.00    +0.000 C 
ATOM     18  C   UNL     1       3.904   2.515  20.488  0.00  0.00    +0.000 C 
ATOM     19  C   UNL     1       1.578   2.057  19.679  0.00  0.00    +0.000 C 
ATOM     20  C   UNL     1       3.502   2.002  18.073  0.00  0.00    +0.000 C 
ENDBRANCH  13  17
ENDBRANCH   5   8
BRANCH   7  21
ATOM     21  N   UNL     1      -0.408  11.810  21.098  0.00  0.00    +0.000 N 
ATOM     22  C   UNL     1      -1.749  12.109  21.002  0.00  0.00    +0.000 A 
ATOM     23  C   UNL     1      -2.182  12.190  22.306  0.00  0.00    +0.000 A 
ATOM     24  N   UNL     1      -1.118  12.006  23.141  0.00  0.00    +0.000 NA
ATOM     25  N   UNL     1      -0.050  11.757  22.399  0.00  0.00    +0.000 NA
BRANCH  23  26
ATOM     26  C   UNL     1      -3.541  12.353  22.776  0.00  0.00    +0.000 A 
ATOM     27  C   UNL     1      -3.872  12.293  24.125  0.00  0.00    +0.000 A 
ATOM     28  N   UNL     1      -5.109  12.536  24.610  0.00  0.00    +0.000 NA
ATOM     29  C   UNL     1      -6.052  12.871  23.697  0.00  0.00    +0.000 A 
ATOM     30  C   UNL     1      -5.862  12.929  22.312  0.00  0.00    +0.000 A 
ATOM     31  C   UNL     1      -4.567  12.654  21.869  0.00  0.00    +0.000 A 
BRANCH  30  32
ATOM     32  N   UNL     1      -6.887  13.356  21.469  0.00  0.00    +0.000 N 
ATOM     33  H   UNL     1      -7.574  13.941  21.938  0.00  0.00    +0.000 HD
BRANCH  32  34
ATOM     34  C   UNL     1      -7.465  12.475  20.455  0.00  0.00    +0.000 C 
ATOM     35  C   UNL     1      -6.591  12.377  19.206  0.00  0.00    +0.000 C 
ATOM     36  C   UNL     1      -6.874  11.000  18.624  0.00  0.00    +0.000 C 
ATOM     37  C   UNL     1      -7.305  10.121  19.789  0.00  0.00    +0.000 C 
ATOM     38  C   UNL     1      -7.508  11.040  20.989  0.00  0.00    +0.000 C 
ENDBRANCH  32  34
ENDBRANCH  30  32
ENDBRANCH  23  26
ENDBRANCH   7  21
TORSDOF 6
ENDMDL
MODEL 2
REMARK VINA RESULT:      -8.8      4.751      9.294
REMARK  Name = 
REMARK  10 active torsions:
REMARK  status: ('A' for Active; 'I' for Inactive)
REMARK    1  A    between atoms: C_1  and  C_2
REMARK    2  A    between atoms: C_5  and  C_6
REMARK    3  A    between atoms: C_11  and  C_12
REMARK    4  A    between atoms: C_12  and  C_13
REMARK    5  A    between atoms: C_12  and  C_14
REMARK    6  A    between atoms: C_12  and  C_15
REMARK    7  A    between atoms: C_19  and  N_20
REMARK    8  A    between atoms: C_22  and  C_23
REMARK    9  A    between atoms: C_27  and  N_28
REMARK   10  A    between atoms: N_28  and  C_29
REMARK                            x       y       z     vdW  Elec       q    Type
REMARK                         _______ _______ _______ _____ _____    ______ ____
ROOT
ATOM      1  C   UNL     1      -0.504  14.027  18.695  0.00  0.00    +0.000 C 
ATOM      2  C   UNL     1       0.232  12.710  18.657  0.00  0.00    +0.000 A 
ATOM      3  C   UNL     1      -0.540  11.541  18.623  0.00  0.00    +0.000 A 
ATOM      4  C   UNL     1       0.062  10.289  18.505  0.00  0.00    +0.000 A 
ATOM      5  C   UNL     1       1.454  10.168  18.417  0.00  0.00    +0.000 A 
ATOM      6  C   UNL     1       2.248  11.320  18.436  0.00  0.00    +0.000 A 
ATOM      7  C   UNL     1       1.640  12.590  18.575  0.00  0.00    +0.000 A 
ENDROOT
BRANCH   5   8
ATOM      8  C   UNL     1       1.998   8.798  18.230  0.00  0.00    +0.000 C 
ATOM      9  O   UNL     1       2.563   8.581  17.159  0.00  0.00    +0.000 OA
ATOM     10  N   UNL     1       1.803   7.886  19.252  0.00  0.00    +0.000 N 
ATOM     11  C   UNL     1       2.200   6.558  19.148  0.00  0.00    +0.000 A 
ATOM     12  C   UNL     1       2.020   5.576  20.155  0.00  0.00    +0.000 A 
ATOM     13  C   UNL     1       2.563   4.420  19.632  0.00  0.00    +0.000 A 
ATOM     14  O   UNL     1       3.023   4.692  18.382  0.00  0.00    +0.000 OA
ATOM     15  N   UNL     1       2.801   6.014  18.085  0.00  0.00    +0.000 NA
ATOM     16  H   UNL     1       1.294   8.145  20.083  0.00  0.00    +0.000 HD
BRANCH  13  17
ATOM     17  C   UNL     1       2.764   3.010  20.116  0.00  0.00    +0.000 C 
ATOM     18  C   UNL     1       4.236   2.590  19.951  0.00  0.00    +0.000 C 
ATOM     19  C   UNL     1       2.380   2.898  21.604  0.00  0.00    +0.000 C 
ATOM     20  C   UNL     1       1.883   2.046  19.299  0.00  0.00    +0.000 C 
ENDBRANCH  13  17
ENDBRANCH   5   8
BRANCH   7  21
ATOM     21  N   UNL     1       2.475  13.736  18.615  0.00  0.00    +0.000 N 
ATOM     22  C   UNL     1       3.849  13.782  18.538  0.00  0.00    +0.000 A 
ATOM     23  C   UNL     1       4.158  15.120  18.617  0.00  0.00    +0.000 A 
ATOM     24  N   UNL     1       3.008  15.833  18.798  0.00  0.00    +0.000 NA
ATOM     25  N   UNL     1       1.991  14.987  18.775  0.00  0.00    +0.000 NA
BRANCH  23  26
ATOM     26  C   UNL     1       5.457  15.736  18.456  0.00  0.00    +0.000 A 
ATOM     27  C   UNL     1       5.738  17.013  18.932  0.00  0.00    +0.000 A 
ATOM     28  N   UNL     1       6.961  17.583  18.887  0.00  0.00    +0.000 NA
ATOM     29  C   UNL     1       7.952  16.828  18.355  0.00  0.00    +0.000 A 
ATOM     30  C   UNL     1       7.798  15.550  17.807  0.00  0.00    +0.000 A 
ATOM     31  C   UNL     1       6.508  15.019  17.869  0.00  0.00    +0.000 A 
BRANCH  30  32
ATOM     32  N   UNL     1       8.903  14.832  17.351  0.00  0.00    +0.000 N 
ATOM     33  H   UNL     1       8.859  14.620  16.357  0.00  0.00    +0.000 HD
BRANCH  32  34
ATOM     34  C   UNL     1       9.511  13.768  18.150  0.00  0.00    +0.000 C 
ATOM     35  C   UNL     1       8.995  12.384  17.761  0.00  0.00    +0.000 C 
ATOM     36  C   UNL     1      10.133  11.426  18.082  0.00  0.00    +0.000 C 
ATOM     37  C   UNL     1      11.418  12.236  17.985  0.00  0.00    +0.000 C 
ATOM     38  C   UNL     1      11.012  13.700  17.852  0.00  0.00    +0.000 C 
ENDBRANCH  32  34
ENDBRANCH  30  32
ENDBRANCH  23  26
ENDBRANCH   7  21
TORSDOF 6
ENDMDL
MODEL 3
REMARK VINA RESULT:      -8.4      4.897     10.706
REMARK  Name = 
REMARK  10 active torsions:
REMARK  status: ('A' for Active; 'I' for Inactive)
REMARK    1  A    between atoms: C_1  and  C_2
REMARK    2  A    between atoms: C_5  and  C_6
REMARK    3  A    between atoms: C_11  and  C_12
REMARK    4  A    between atoms: C_12  and  C_13
REMARK    5  A    between atoms: C_12  and  C_14
REMARK    6  A    between atoms: C_12  and  C_15
REMARK    7  A    between atoms: C_19  and  N_20
REMARK    8  A    between atoms: C_22  and  C_23
REMARK    9  A    between atoms: C_27  and  N_28
REMARK   10  A    between atoms: N_28  and  C_29
REMARK                            x       y       z     vdW  Elec       q    Type
REMARK                         _______ _______ _______ _____ _____    ______ ____
ROOT
ATOM      1  C   UNL     1      -1.342   9.960  18.253  0.00  0.00    +0.000 C 
ATOM      2  C   UNL     1      -0.321  11.065  18.372  0.00  0.00    +0.000 A 
ATOM      3  C   UNL     1      -0.787  12.384  18.291  0.00  0.00    +0.000 A 
ATOM      4  C   UNL     1       0.080  13.461  18.474  0.00  0.00    +0.000 A 
ATOM      5  C   UNL     1       1.438  13.251  18.743  0.00  0.00    +0.000 A 
ATOM      6  C   UNL     1       1.926  11.944  18.842  0.00  0.00    +0.000 A 
ATOM      7  C   UNL     1       1.052  10.850  18.638  0.00  0.00    +0.000 A 
ENDROOT
BRANCH   5   8
ATOM      8  C   UNL     1       2.268  14.460  18.984  0.00  0.00    +0.000 C 
ATOM      9  O   UNL     1       1.667  15.533  19.014  0.00  0.00    +0.000 OA
ATOM     10  N   UNL     1       3.632  14.282  19.128  0.00  0.00    +0.000 N 
ATOM     11  C   UNL     1       4.509  15.350  19.278  0.00  0.00    +0.000 A 
ATOM     12  C   UNL     1       5.915  15.232  19.421  0.00  0.00    +0.000 A 
ATOM     13  C   UNL     1       6.374  16.527  19.547  0.00  0.00    +0.000 A 
ATOM     14  O   UNL     1       5.308  17.367  19.467  0.00  0.00    +0.000 OA
ATOM     15  N   UNL     1       4.156  16.639  19.304  0.00  0.00    +0.000 NA
ATOM     16  H   UNL     1       4.042  13.364  19.053  0.00  0.00    +0.000 HD
BRANCH  13  17
ATOM     17  C   UNL     1       7.713  17.179  19.759  0.00  0.00    +0.000 C 
ATOM     18  C   UNL     1       8.515  17.197  18.445  0.00  0.00    +0.000 C 
ATOM     19  C   UNL     1       7.528  18.629  20.247  0.00  0.00    +0.000 C 
ATOM     20  C   UNL     1       8.516  16.395  20.814  0.00  0.00    +0.000 C 
ENDBRANCH  13  17
ENDBRANCH   5   8
BRANCH   7  21
ATOM     21  N   UNL     1       1.584   9.538  18.723  0.00  0.00    +0.000 N 
ATOM     22  C   UNL     1       2.154   8.792  17.715  0.00  0.00    +0.000 A 
ATOM     23  C   UNL     1       2.508   7.607  18.317  0.00  0.00    +0.000 A 
ATOM     24  N   UNL     1       2.104   7.630  19.621  0.00  0.00    +0.000 NA
ATOM     25  N   UNL     1       1.562   8.813  19.863  0.00  0.00    +0.000 NA
BRANCH  23  26
ATOM     26  C   UNL     1       3.262   6.515  17.739  0.00  0.00    +0.000 A 
ATOM     27  C   UNL     1       4.449   6.717  17.045  0.00  0.00    +0.000 A 
ATOM     28  N   UNL     1       5.229   5.720  16.576  0.00  0.00    +0.000 NA
ATOM     29  C   UNL     1       4.804   4.459  16.833  0.00  0.00    +0.000 A 
ATOM     30  C   UNL     1       3.614   4.118  17.484  0.00  0.00    +0.000 A 
ATOM     31  C   UNL     1       2.842   5.191  17.933  0.00  0.00    +0.000 A 
BRANCH  30  32
ATOM     32  N   UNL     1       3.309   2.785  17.759  0.00  0.00    +0.000 N 
ATOM     33  H   UNL     1       2.826   2.319  16.995  0.00  0.00    +0.000 HD
BRANCH  32  34
ATOM     34  C   UNL     1       2.856   2.359  19.084  0.00  0.00    +0.000 C 
ATOM     35  C   UNL     1       3.352   3.286  20.192  0.00  0.00    +0.000 C 
ATOM     36  C   UNL     1       2.303   3.196  21.290  0.00  0.00    +0.000 C 
ATOM     37  C   UNL     1       0.994   2.829  20.607  0.00  0.00    +0.000 C 
ATOM     38  C   UNL     1       1.331   2.470  19.163  0.00  0.00    +0.000 C 
ENDBRANCH  32  34
ENDBRANCH  30  32
ENDBRANCH  23  26
ENDBRANCH   7  21
TORSDOF 6
ENDMDL
MODEL 4
REMARK VINA RESULT:      -8.3      4.996      9.540
REMARK  Name = 
REMARK  10 active torsions:
REMARK  status: ('A' for Active; 'I' for Inactive)
REMARK    1  A    between atoms: C_1  and  C_2
REMARK    2  A    between atoms: C_5  and  C_6
REMARK    3  A    between atoms: C_11  and  C_12
REMARK    4  A    between atoms: C_12  and  C_13
REMARK    5  A    between atoms: C_12  and  C_14
REMARK    6  A    between atoms: C_12  and  C_15
REMARK    7  A    between atoms: C_19  and  N_20
REMARK    8  A    between atoms: C_22  and  C_23
REMARK    9  A    between atoms: C_27  and  N_28
REMARK   10  A    between atoms: N_28  and  C_29
REMARK                            x       y       z     vdW  Elec       q    Type
REMARK                         _______ _______ _______ _____ _____    ______ ____
ROOT
ATOM      1  C   UNL     1      -0.541  14.006  19.022  0.00  0.00    +0.000 C 
ATOM      2  C   UNL     1       0.191  12.692  18.897  0.00  0.00    +0.000 A 
ATOM      3  C   UNL     1      -0.574  11.520  18.952  0.00  0.00    +0.000 A 
ATOM      4  C   UNL     1       0.016  10.270  18.764  0.00  0.00    +0.000 A 
ATOM      5  C   UNL     1       1.389  10.156  18.515  0.00  0.00    +0.000 A 
ATOM      6  C   UNL     1       2.174  11.312  18.442  0.00  0.00    +0.000 A 
ATOM      7  C   UNL     1       1.580  12.579  18.652  0.00  0.00    +0.000 A 
ENDROOT
BRANCH   5   8
ATOM      8  C   UNL     1       1.913   8.789  18.265  0.00  0.00    +0.000 C 
ATOM      9  O   UNL     1       2.366   8.579  17.140  0.00  0.00    +0.000 OA
ATOM     10  N   UNL     1       1.825   7.870  19.296  0.00  0.00    +0.000 N 
ATOM     11  C   UNL     1       2.212   6.543  19.143  0.00  0.00    +0.000 A 
ATOM     12  C   UNL     1       2.138   5.555  20.158  0.00  0.00    +0.000 A 
ATOM     13  C   UNL     1       2.627   4.404  19.575  0.00  0.00    +0.000 A 
ATOM     14  O   UNL     1       2.956   4.685  18.286  0.00  0.00    +0.000 OA
ATOM     15  N   UNL     1       2.702   6.008  18.022  0.00  0.00    +0.000 NA
ATOM     16  H   UNL     1       1.403   8.123  20.176  0.00  0.00    +0.000 HD
BRANCH  13  17
ATOM     17  C   UNL     1       2.879   2.991  20.028  0.00  0.00    +0.000 C 
ATOM     18  C   UNL     1       2.059   2.002  19.180  0.00  0.00    +0.000 C 
ATOM     19  C   UNL     1       4.374   2.646  19.887  0.00  0.00    +0.000 C 
ATOM     20  C   UNL     1       2.467   2.834  21.503  0.00  0.00    +0.000 C 
ENDBRANCH  13  17
ENDBRANCH   5   8
BRANCH   7  21
ATOM     21  N   UNL     1       2.409  13.729  18.594  0.00  0.00    +0.000 N 
ATOM     22  C   UNL     1       3.784  13.782  18.656  0.00  0.00    +0.000 A 
ATOM     23  C   UNL     1       4.086  15.120  18.552  0.00  0.00    +0.000 A 
ATOM     24  N   UNL     1       2.924  15.836  18.493  0.00  0.00    +0.000 NA
ATOM     25  N   UNL     1       1.914  14.982  18.500  0.00  0.00    +0.000 NA
BRANCH  23  26
ATOM     26  C   UNL     1       5.396  15.722  18.431  0.00  0.00    +0.000 A 
ATOM     27  C   UNL     1       5.652  17.030  18.827  0.00  0.00    +0.000 A 
ATOM     28  N   UNL     1       6.878  17.595  18.820  0.00  0.00    +0.000 NA
ATOM     29  C   UNL     1       7.898  16.801  18.414  0.00  0.00    +0.000 A 
ATOM     30  C   UNL     1       7.773  15.486  17.955  0.00  0.00    +0.000 A 
ATOM     31  C   UNL     1       6.479  14.961  17.970  0.00  0.00    +0.000 A 
BRANCH  30  32
ATOM     32  N   UNL     1       8.902  14.735  17.627  0.00  0.00    +0.000 N 
ATOM     33  H   UNL     1       8.676  13.816  17.255  0.00  0.00    +0.000 HD
BRANCH  32  34
ATOM     34  C   UNL     1      10.103  14.750  18.462  0.00  0.00    +0.000 C 
ATOM     35  C   UNL     1      10.012  13.764  19.626  0.00  0.00    +0.000 C 
ATOM     36  C   UNL     1      11.448  13.359  19.923  0.00  0.00    +0.000 C 
ATOM     37  C   UNL     1      12.220  13.524  18.622  0.00  0.00    +0.000 C 
ATOM     38  C   UNL     1      11.299  14.249  17.647  0.00  0.00    +0.000 C 
ENDBRANCH  32  34
ENDBRANCH  30  32
ENDBRANCH  23  26
ENDBRANCH   7  21
TORSDOF 6
ENDMDL
MODEL 5
REMARK VINA RESULT:      -8.3      3.272     11.409
REMARK  Name = 
REMARK  10 active torsions:
REMARK  status: ('A' for Active; 'I' for Inactive)
REMARK    1  A    between atoms: C_1  and  C_2
REMARK    2  A    between atoms: C_5  and  C_6
REMARK    3  A    between atoms: C_11  and  C_12
REMARK    4  A    between atoms: C_12  and  C_13
REMARK    5  A    between atoms: C_12  and  C_14
REMARK    6  A    between atoms: C_12  and  C_15
REMARK    7  A    between atoms: C_19  and  N_20
REMARK    8  A    between atoms: C_22  and  C_23
REMARK    9  A    between atoms: C_27  and  N_28
REMARK   10  A    between atoms: N_28  and  C_29
REMARK                            x       y       z     vdW  Elec       q    Type
REMARK                         _______ _______ _______ _____ _____    ______ ____
ROOT
ATOM      1  C   UNL     1       2.321   9.530  17.732  0.00  0.00    +0.000 C 
ATOM      2  C   UNL     1       1.487   9.988  18.904  0.00  0.00    +0.000 A 
ATOM      3  C   UNL     1       1.047  11.318  18.901  0.00  0.00    +0.000 A 
ATOM      4  C   UNL     1       0.205  11.796  19.905  0.00  0.00    +0.000 A 
ATOM      5  C   UNL     1      -0.222  10.958  20.941  0.00  0.00    +0.000 A 
ATOM      6  C   UNL     1       0.192   9.621  20.961  0.00  0.00    +0.000 A 
ATOM      7  C   UNL     1       1.061   9.140  19.953  0.00  0.00    +0.000 A 
ENDROOT
BRANCH   5   8
ATOM      8  C   UNL     1      -1.168  11.540  21.928  0.00  0.00    +0.000 C 
ATOM      9  O   UNL     1      -0.858  11.420  23.113  0.00  0.00    +0.000 OA
ATOM     10  N   UNL     1      -2.316  12.138  21.439  0.00  0.00    +0.000 N 
ATOM     11  C   UNL     1      -3.304  12.643  22.277  0.00  0.00    +0.000 A 
ATOM     12  C   UNL     1      -4.504  13.257  21.837  0.00  0.00    +0.000 A 
ATOM     13  C   UNL     1      -5.173  13.608  22.991  0.00  0.00    +0.000 A 
ATOM     14  O   UNL     1      -4.426  13.211  24.055  0.00  0.00    +0.000 OA
ATOM     15  N   UNL     1      -3.270  12.617  23.612  0.00  0.00    +0.000 NA
ATOM     16  H   UNL     1      -2.505  12.158  20.449  0.00  0.00    +0.000 HD
BRANCH  13  17
ATOM     17  C   UNL     1      -6.465  14.307  23.317  0.00  0.00    +0.000 C 
ATOM     18  C   UNL     1      -6.186  15.664  23.989  0.00  0.00    +0.000 C 
ATOM     19  C   UNL     1      -7.279  14.549  22.032  0.00  0.00    +0.000 C 
ATOM     20  C   UNL     1      -7.299  13.443  24.282  0.00  0.00    +0.000 C 
ENDBRANCH  13  17
ENDBRANCH   5   8
BRANCH   7  21
ATOM     21  N   UNL     1       1.480   7.786  20.016  0.00  0.00    +0.000 N 
ATOM     22  C   UNL     1       2.075   7.040  19.023  0.00  0.00    +0.000 A 
ATOM     23  C   UNL     1       2.283   5.805  19.592  0.00  0.00    +0.000 A 
ATOM     24  N   UNL     1       1.771   5.805  20.858  0.00  0.00    +0.000 NA
ATOM     25  N   UNL     1       1.304   7.017  21.112  0.00  0.00    +0.000 NA
BRANCH  23  26
ATOM     26  C   UNL     1       2.996   4.681  19.025  0.00  0.00    +0.000 A 
ATOM     27  C   UNL     1       2.591   3.366  19.227  0.00  0.00    +0.000 A 
ATOM     28  N   UNL     1       3.172   2.299  18.638  0.00  0.00    +0.000 NA
ATOM     29  C   UNL     1       4.196   2.568  17.792  0.00  0.00    +0.000 A 
ATOM     30  C   UNL     1       4.725   3.836  17.531  0.00  0.00    +0.000 A 
ATOM     31  C   UNL     1       4.093   4.898  18.180  0.00  0.00    +0.000 A 
BRANCH  30  32
ATOM     32  N   UNL     1       5.735   4.006  16.585  0.00  0.00    +0.000 N 
ATOM     33  H   UNL     1       6.006   3.138  16.129  0.00  0.00    +0.000 HD
BRANCH  32  34
ATOM     34  C   UNL     1       6.854   4.921  16.813  0.00  0.00    +0.000 C 
ATOM     35  C   UNL     1       6.450   6.384  16.640  0.00  0.00    +0.000 C 
ATOM     36  C   UNL     1       7.382   7.168  17.551  0.00  0.00    +0.000 C 
ATOM     37  C   UNL     1       7.791   6.219  18.669  0.00  0.00    +0.000 C 
ATOM     38  C   UNL     1       7.299   4.831  18.276  0.00  0.00    +0.000 C 
ENDBRANCH  32  34
ENDBRANCH  30  32
ENDBRANCH  23  26
ENDBRANCH   7  21
TORSDOF 6
ENDMDL
MODEL 6
REMARK VINA RESULT:      -8.2      4.490      8.851
REMARK  Name = 
REMARK  10 active torsions:
REMARK  status: ('A' for Active; 'I' for Inactive)
REMARK    1  A    between atoms: C_1  and  C_2
REMARK    2  A    between atoms: C_5  and  C_6
REMARK    3  A    between atoms: C_11  and  C_12
REMARK    4  A    between atoms: C_12  and  C_13
REMARK    5  A    between atoms: C_12  and  C_14
REMARK    6  A    between atoms: C_12  and  C_15
REMARK    7  A    between atoms: C_19  and  N_20
REMARK    8  A    between atoms: C_22  and  C_23
REMARK    9  A    between atoms: C_27  and  N_28
REMARK   10  A    between atoms: N_28  and  C_29
REMARK                            x       y       z     vdW  Elec       q    Type
REMARK                         _______ _______ _______ _____ _____    ______ ____
ROOT
ATOM      1  C   UNL     1      -0.940  14.334  20.537  0.00  0.00    +0.000 C 
ATOM      2  C   UNL     1      -0.429  12.922  20.685  0.00  0.00    +0.000 A 
ATOM      3  C   UNL     1      -1.373  11.887  20.646  0.00  0.00    +0.000 A 
ATOM      4  C   UNL     1      -0.974  10.552  20.694  0.00  0.00    +0.000 A 
ATOM      5  C   UNL     1       0.381  10.212  20.782  0.00  0.00    +0.000 A 
ATOM      6  C   UNL     1       1.346  11.225  20.808  0.00  0.00    +0.000 A 
ATOM      7  C   UNL     1       0.941  12.581  20.779  0.00  0.00    +0.000 A 
ENDROOT
BRANCH   5   8
ATOM      8  C   UNL     1       0.711   8.763  20.763  0.00  0.00    +0.000 C 
ATOM      9  O   UNL     1       0.078   8.053  21.544  0.00  0.00    +0.000 OA
ATOM     10  N   UNL     1       1.706   8.344  19.898  0.00  0.00    +0.000 N 
ATOM     11  C   UNL     1       2.148   7.026  19.858  0.00  0.00    +0.000 A 
ATOM     12  C   UNL     1       3.168   6.539  19.002  0.00  0.00    +0.000 A 
ATOM     13  C   UNL     1       3.269   5.193  19.292  0.00  0.00    +0.000 A 
ATOM     14  O   UNL     1       2.375   4.901  20.273  0.00  0.00    +0.000 OA
ATOM     15  N   UNL     1       1.681   6.033  20.620  0.00  0.00    +0.000 NA
ATOM     16  H   UNL     1       2.197   9.006  19.318  0.00  0.00    +0.000 HD
BRANCH  13  17
ATOM     17  C   UNL     1       4.089   4.040  18.781  0.00  0.00    +0.000 C 
ATOM     18  C   UNL     1       3.912   2.811  19.690  0.00  0.00    +0.000 C 
ATOM     19  C   UNL     1       3.651   3.667  17.351  0.00  0.00    +0.000 C 
ATOM     20  C   UNL     1       5.580   4.427  18.762  0.00  0.00    +0.000 C 
ENDBRANCH  13  17
ENDBRANCH   5   8
BRANCH   7  21
ATOM     21  N   UNL     1       1.943  13.583  20.831  0.00  0.00    +0.000 N 
ATOM     22  C   UNL     1       2.904  13.866  19.886  0.00  0.00    +0.000 A 
ATOM     23  C   UNL     1       3.613  14.920  20.414  0.00  0.00    +0.000 A 
ATOM     24  N   UNL     1       3.125  15.208  21.657  0.00  0.00    +0.000 NA
ATOM     25  N   UNL     1       2.100  14.404  21.892  0.00  0.00    +0.000 NA
BRANCH  23  26
ATOM     26  C   UNL     1       4.655  15.692  19.773  0.00  0.00    +0.000 A 
ATOM     27  C   UNL     1       4.848  17.043  20.038  0.00  0.00    +0.000 A 
ATOM     28  N   UNL     1       5.867  17.773  19.534  0.00  0.00    +0.000 NA
ATOM     29  C   UNL     1       6.742  17.109  18.742  0.00  0.00    +0.000 A 
ATOM     30  C   UNL     1       6.643  15.766  18.366  0.00  0.00    +0.000 A 
ATOM     31  C   UNL     1       5.561  15.066  18.905  0.00  0.00    +0.000 A 
BRANCH  30  32
ATOM     32  N   UNL     1       7.641  15.163  17.601  0.00  0.00    +0.000 N 
ATOM     33  H   UNL     1       7.334  14.918  16.663  0.00  0.00    +0.000 HD
BRANCH  32  34
ATOM     34  C   UNL     1       8.576  14.199  18.181  0.00  0.00    +0.000 C 
ATOM     35  C   UNL     1       8.448  12.815  17.549  0.00  0.00    +0.000 C 
ATOM     36  C   UNL     1       9.828  12.187  17.673  0.00  0.00    +0.000 C 
ATOM     37  C   UNL     1      10.823  13.338  17.711  0.00  0.00    +0.000 C 
ATOM     38  C   UNL     1      10.013  14.622  17.857  0.00  0.00    +0.000 C 
ENDBRANCH  32  34
ENDBRANCH  30  32
ENDBRANCH  23  26
ENDBRANCH   7  21
TORSDOF 6
ENDMDL
MODEL 7
REMARK VINA RESULT:      -8.2      4.507     10.714
REMARK  Name = 
REMARK  10 active torsions:
REMARK  status: ('A' for Active; 'I' for Inactive)
REMARK    1  A    between atoms: C_1  and  C_2
REMARK    2  A    between atoms: C_5  and  C_6
REMARK    3  A    between atoms: C_11  and  C_12
REMARK    4  A    between atoms: C_12  and  C_13
REMARK    5  A    between atoms: C_12  and  C_14
REMARK    6  A    between atoms: C_12  and  C_15
REMARK    7  A    between atoms: C_19  and  N_20
REMARK    8  A    between atoms: C_22  and  C_23
REMARK    9  A    between atoms: C_27  and  N_28
REMARK   10  A    between atoms: N_28  and  C_29
REMARK                            x       y       z     vdW  Elec       q    Type
REMARK                         _______ _______ _______ _____ _____    ______ ____
ROOT
ATOM      1  C   UNL     1      -1.756  10.586  18.774  0.00  0.00    +0.000 C 
ATOM      2  C   UNL     1      -0.629  11.590  18.734  0.00  0.00    +0.000 A 
ATOM      3  C   UNL     1      -0.918  12.862  18.224  0.00  0.00    +0.000 A 
ATOM      4  C   UNL     1       0.045  13.871  18.228  0.00  0.00    +0.000 A 
ATOM      5  C   UNL     1       1.326  13.637  18.743  0.00  0.00    +0.000 A 
ATOM      6  C   UNL     1       1.636  12.378  19.271  0.00  0.00    +0.000 A 
ATOM      7  C   UNL     1       0.666  11.349  19.250  0.00  0.00    +0.000 A 
ENDROOT
BRANCH   5   8
ATOM      8  C   UNL     1       2.262  14.790  18.762  0.00  0.00    +0.000 C 
ATOM      9  O   UNL     1       1.810  15.861  18.358  0.00  0.00    +0.000 OA
ATOM     10  N   UNL     1       3.553  14.561  19.202  0.00  0.00    +0.000 N 
ATOM     11  C   UNL     1       4.530  15.549  19.185  0.00  0.00    +0.000 A 
ATOM     12  C   UNL     1       5.870  15.373  19.614  0.00  0.00    +0.000 A 
ATOM     13  C   UNL     1       6.472  16.601  19.430  0.00  0.00    +0.000 A 
ATOM     14  O   UNL     1       5.551  17.453  18.907  0.00  0.00    +0.000 OA
ATOM     15  N   UNL     1       4.351  16.803  18.759  0.00  0.00    +0.000 NA
ATOM     16  H   UNL     1       3.845  13.637  19.481  0.00  0.00    +0.000 HD
BRANCH  13  17
ATOM     17  C   UNL     1       7.838  17.179  19.681  0.00  0.00    +0.000 C 
ATOM     18  C   UNL     1       8.433  17.736  18.376  0.00  0.00    +0.000 C 
ATOM     19  C   UNL     1       7.752  18.319  20.713  0.00  0.00    +0.000 C 
ATOM     20  C   UNL     1       8.778  16.085  20.222  0.00  0.00    +0.000 C 
ENDBRANCH  13  17
ENDBRANCH   5   8
BRANCH   7  21
ATOM     21  N   UNL     1       1.021  10.079  19.772  0.00  0.00    +0.000 N 
ATOM     22  C   UNL     1       1.382   8.949  19.071  0.00  0.00    +0.000 A 
ATOM     23  C   UNL     1       1.630   8.003  20.038  0.00  0.00    +0.000 A 
ATOM     24  N   UNL     1       1.364   8.540  21.266  0.00  0.00    +0.000 NA
ATOM     25  N   UNL     1       1.014   9.805  21.095  0.00  0.00    +0.000 NA
BRANCH  23  26
ATOM     26  C   UNL     1       2.167   6.673  19.854  0.00  0.00    +0.000 A 
ATOM     27  C   UNL     1       2.068   5.689  20.832  0.00  0.00    +0.000 A 
ATOM     28  N   UNL     1       2.470   4.412  20.662  0.00  0.00    +0.000 NA
ATOM     29  C   UNL     1       2.980   4.104  19.444  0.00  0.00    +0.000 A 
ATOM     30  C   UNL     1       3.171   5.004  18.391  0.00  0.00    +0.000 A 
ATOM     31  C   UNL     1       2.750   6.313  18.631  0.00  0.00    +0.000 A 
BRANCH  30  32
ATOM     32  N   UNL     1       3.639   4.563  17.153  0.00  0.00    +0.000 N 
ATOM     33  H   UNL     1       2.936   4.064  16.614  0.00  0.00    +0.000 HD
BRANCH  32  34
ATOM     34  C   UNL     1       4.990   4.028  16.989  0.00  0.00    +0.000 C 
ATOM     35  C   UNL     1       5.550   4.285  15.591  0.00  0.00    +0.000 C 
ATOM     36  C   UNL     1       7.058   4.364  15.770  0.00  0.00    +0.000 C 
ATOM     37  C   UNL     1       7.299   4.826  17.200  0.00  0.00    +0.000 C 
ATOM     38  C   UNL     1       5.953   4.777  17.915  0.00  0.00    +0.000 C 
ENDBRANCH  32  34
ENDBRANCH  30  32
ENDBRANCH  23  26
ENDBRANCH   7  21
TORSDOF 6
ENDMDL
MODEL 8
REMARK VINA RESULT:      -8.1      3.239     11.278
REMARK  Name = 
REMARK  10 active torsions:
REMARK  status: ('A' for Active; 'I' for Inactive)
REMARK    1  A    between atoms: C_1  and  C_2
REMARK    2  A    between atoms: C_5  and  C_6
REMARK    3  A    between atoms: C_11  and  C_12
REMARK    4  A    between atoms: C_12  and  C_13
REMARK    5  A    between atoms: C_12  and  C_14
REMARK    6  A    between atoms: C_12  and  C_15
REMARK    7  A    between atoms: C_19  and  N_20
REMARK    8  A    between atoms: C_22  and  C_23
REMARK    9  A    between atoms: C_27  and  N_28
REMARK   10  A    between atoms: N_28  and  C_29
REMARK                            x       y       z     vdW  Elec       q    Type
REMARK                         _______ _______ _______ _____ _____    ______ ____
ROOT
ATOM      1  C   UNL     1       2.174   9.548  17.706  0.00  0.00    +0.000 C 
ATOM      2  C   UNL     1       1.399  10.174  18.840  0.00  0.00    +0.000 A 
ATOM      3  C   UNL     1       1.002  11.509  18.689  0.00  0.00    +0.000 A 
ATOM      4  C   UNL     1       0.214  12.134  19.654  0.00  0.00    +0.000 A 
ATOM      5  C   UNL     1      -0.201  11.444  20.799  0.00  0.00    +0.000 A 
ATOM      6  C   UNL     1       0.171  10.105  20.968  0.00  0.00    +0.000 A 
ATOM      7  C   UNL     1       0.987   9.475  19.999  0.00  0.00    +0.000 A 
ENDROOT
BRANCH   5   8
ATOM      8  C   UNL     1      -1.090  12.175  21.738  0.00  0.00    +0.000 C 
ATOM      9  O   UNL     1      -0.589  12.506  22.812  0.00  0.00    +0.000 OA
ATOM     10  N   UNL     1      -2.397  12.397  21.341  0.00  0.00    +0.000 N 
ATOM     11  C   UNL     1      -3.333  12.999  22.174  0.00  0.00    +0.000 A 
ATOM     12  C   UNL     1      -4.686  13.246  21.828  0.00  0.00    +0.000 A 
ATOM     13  C   UNL     1      -5.235  13.858  22.936  0.00  0.00    +0.000 A 
ATOM     14  O   UNL     1      -4.272  13.956  23.890  0.00  0.00    +0.000 OA
ATOM     15  N   UNL     1      -3.096  13.428  23.417  0.00  0.00    +0.000 NA
ATOM     16  H   UNL     1      -2.730  12.056  20.453  0.00  0.00    +0.000 HD
BRANCH  13  17
ATOM     17  C   UNL     1      -6.581  14.426  23.297  0.00  0.00    +0.000 C 
ATOM     18  C   UNL     1      -7.355  13.443  24.194  0.00  0.00    +0.000 C 
ATOM     19  C   UNL     1      -6.412  15.759  24.051  0.00  0.00    +0.000 C 
ATOM     20  C   UNL     1      -7.403  14.677  22.018  0.00  0.00    +0.000 C 
ENDBRANCH  13  17
ENDBRANCH   5   8
BRANCH   7  21
ATOM     21  N   UNL     1       1.365   8.125  20.212  0.00  0.00    +0.000 N 
ATOM     22  C   UNL     1       2.254   7.371  19.479  0.00  0.00    +0.000 A 
ATOM     23  C   UNL     1       2.266   6.144  20.100  0.00  0.00    +0.000 A 
ATOM     24  N   UNL     1       1.366   6.155  21.127  0.00  0.00    +0.000 NA
ATOM     25  N   UNL     1       0.839   7.367  21.200  0.00  0.00    +0.000 NA
BRANCH  23  26
ATOM     26  C   UNL     1       3.129   5.018  19.813  0.00  0.00    +0.000 A 
ATOM     27  C   UNL     1       2.691   3.702  19.915  0.00  0.00    +0.000 A 
ATOM     28  N   UNL     1       3.434   2.630  19.564  0.00  0.00    +0.000 NA
ATOM     29  C   UNL     1       4.668   2.895  19.071  0.00  0.00    +0.000 A 
ATOM     30  C   UNL     1       5.242   4.165  18.953  0.00  0.00    +0.000 A 
ATOM     31  C   UNL     1       4.432   5.233  19.345  0.00  0.00    +0.000 A 
BRANCH  30  32
ATOM     32  N   UNL     1       6.495   4.328  18.364  0.00  0.00    +0.000 N 
ATOM     33  H   UNL     1       7.168   4.785  18.975  0.00  0.00    +0.000 HD
BRANCH  32  34
ATOM     34  C   UNL     1       6.640   4.697  16.956  0.00  0.00    +0.000 C 
ATOM     35  C   UNL     1       5.806   3.808  16.035  0.00  0.00    +0.000 C 
ATOM     36  C   UNL     1       5.472   4.677  14.832  0.00  0.00    +0.000 C 
ATOM     37  C   UNL     1       5.489   6.118  15.322  0.00  0.00    +0.000 C 
ATOM     38  C   UNL     1       6.067   6.100  16.733  0.00  0.00    +0.000 C 
ENDBRANCH  32  34
ENDBRANCH  30  32
ENDBRANCH  23  26
ENDBRANCH   7  21
TORSDOF 6
ENDMDL
MODEL 9
REMARK VINA RESULT:      -8.1      3.319     11.340
REMARK  Name = 
REMARK  10 active torsions:
REMARK  status: ('A' for Active; 'I' for Inactive)
REMARK    1  A    between atoms: C_1  and  C_2
REMARK    2  A    between atoms: C_5  and  C_6
REMARK    3  A    between atoms: C_11  and  C_12
REMARK    4  A    between atoms: C_12  and  C_13
REMARK    5  A    between atoms: C_12  and  C_14
REMARK    6  A    between atoms: C_12  and  C_15
REMARK    7  A    between atoms: C_19  and  N_20
REMARK    8  A    between atoms: C_22  and  C_23
REMARK    9  A    between atoms: C_27  and  N_28
REMARK   10  A    between atoms: N_28  and  C_29
REMARK                            x       y       z     vdW  Elec       q    Type
REMARK                         _______ _______ _______ _____ _____    ______ ____
ROOT
ATOM      1  C   UNL     1       2.974  10.980  17.884  0.00  0.00    +0.000 C 
ATOM      2  C   UNL     1       1.575  11.183  18.412  0.00  0.00    +0.000 A 
ATOM      3  C   UNL     1       0.984  12.436  18.205  0.00  0.00    +0.000 A 
ATOM      4  C   UNL     1      -0.334  12.678  18.590  0.00  0.00    +0.000 A 
ATOM      5  C   UNL     1      -1.101  11.674  19.192  0.00  0.00    +0.000 A 
ATOM      6  C   UNL     1      -0.539  10.408  19.398  0.00  0.00    +0.000 A 
ATOM      7  C   UNL     1       0.804  10.167  19.026  0.00  0.00    +0.000 A 
ENDROOT
BRANCH   5   8
ATOM      8  C   UNL     1      -2.514  12.007  19.508  0.00  0.00    +0.000 C 
ATOM      9  O   UNL     1      -3.344  11.726  18.645  0.00  0.00    +0.000 OA
ATOM     10  N   UNL     1      -2.771  12.622  20.721  0.00  0.00    +0.000 N 
ATOM     11  C   UNL     1      -4.044  13.049  21.082  0.00  0.00    +0.000 A 
ATOM     12  C   UNL     1      -4.368  13.691  22.304  0.00  0.00    +0.000 A 
ATOM     13  C   UNL     1      -5.727  13.924  22.239  0.00  0.00    +0.000 A 
ATOM     14  O   UNL     1      -6.181  13.464  21.043  0.00  0.00    +0.000 OA
ATOM     15  N   UNL     1      -5.142  12.920  20.330  0.00  0.00    +0.000 NA
ATOM     16  H   UNL     1      -2.019  12.848  21.353  0.00  0.00    +0.000 HD
BRANCH  13  17
ATOM     17  C   UNL     1      -6.761  14.525  23.151  0.00  0.00    +0.000 C 
ATOM     18  C   UNL     1      -7.333  13.451  24.094  0.00  0.00    +0.000 C 
ATOM     19  C   UNL     1      -6.135  15.648  24.000  0.00  0.00    +0.000 C 
ATOM     20  C   UNL     1      -7.916  15.113  22.318  0.00  0.00    +0.000 C 
ENDBRANCH  13  17
ENDBRANCH   5   8
BRANCH   7  21
ATOM     21  N   UNL     1       1.350   8.881  19.270  0.00  0.00    +0.000 N 
ATOM     22  C   UNL     1       1.768   7.952  18.343  0.00  0.00    +0.000 A 
ATOM     23  C   UNL     1       2.213   6.888  19.093  0.00  0.00    +0.000 A 
ATOM     24  N   UNL     1       2.007   7.157  20.416  0.00  0.00    +0.000 NA
ATOM     25  N   UNL     1       1.501   8.376  20.513  0.00  0.00    +0.000 NA
BRANCH  23  26
ATOM     26  C   UNL     1       2.879   5.693  18.621  0.00  0.00    +0.000 A 
ATOM     27  C   UNL     1       2.248   4.768  17.796  0.00  0.00    +0.000 A 
ATOM     28  N   UNL     1       2.863   3.693  17.258  0.00  0.00    +0.000 NA
ATOM     29  C   UNL     1       4.179   3.552  17.548  0.00  0.00    +0.000 A 
ATOM     30  C   UNL     1       4.921   4.385  18.392  0.00  0.00    +0.000 A 
ATOM     31  C   UNL     1       4.227   5.470  18.930  0.00  0.00    +0.000 A 
BRANCH  30  32
ATOM     32  N   UNL     1       6.291   4.187  18.564  0.00  0.00    +0.000 N 
ATOM     33  H   UNL     1       6.531   3.841  19.489  0.00  0.00    +0.000 HD
BRANCH  32  34
ATOM     34  C   UNL     1       7.276   5.118  18.013  0.00  0.00    +0.000 C 
ATOM     35  C   UNL     1       6.642   6.149  17.082  0.00  0.00    +0.000 C 
ATOM     36  C   UNL     1       7.532   7.379  17.180  0.00  0.00    +0.000 C 
ATOM     37  C   UNL     1       8.188   7.329  18.552  0.00  0.00    +0.000 C 
ATOM     38  C   UNL     1       7.873   5.959  19.145  0.00  0.00    +0.000 C 
ENDBRANCH  32  34
ENDBRANCH  30  32
ENDBRANCH  23  26
ENDBRANCH   7  21
TORSDOF 6
ENDMDL
