MODEL 1
REMARK VINA RESULT:      -9.1      0.000      0.000
REMARK  Name = 
REMARK  10 active torsions:
REMARK  status: ('A' for Active; 'I' for Inactive)
REMARK    1  A    between atoms: C_1  and  C_2
REMARK    2  A    between atoms: C_2  and  C_3
REMARK    3  A    between atoms: C_2  and  C_23
REMARK    4  A    between atoms: N_5  and  C_6
REMARK    5  A    between atoms: C_6  and  C_7
REMARK    6  A    between atoms: C_8  and  C_9
REMARK    7  A    between atoms: C_8  and  C_16
REMARK    8  A    between atoms: C_26  and  N_27
REMARK    9  A    between atoms: N_27  and  S_28
REMARK   10  A    between atoms: S_28  and  C_29
REMARK                            x       y       z     vdW  Elec       q    Type
REMARK                         _______ _______ _______ _____ _____    ______ ____
ROOT
ATOM      1  C   UNL     1       1.020  10.767  18.601  0.00  0.00    +0.000 C 
ATOM      2  O   UNL     1       1.296  11.951  18.436  0.00  0.00    +0.000 OA
ATOM      3  N   UNL     1       2.017   9.839  18.455  0.00  0.00    +0.000 N 
ATOM      4  H   UNL     1       2.915  10.244  18.217  0.00  0.00    +0.000 HD
ENDROOT
BRANCH   1   6
ATOM      5  C   UNL     1      -1.180  10.034  17.631  0.00  0.00    +0.000 C 
ATOM      6  C   UNL     1      -0.393  10.265  18.924  0.00  0.00    +0.000 C 
BRANCH   6   7
ATOM      7  C   UNL     1      -1.151  11.165  19.888  0.00  0.00    +0.000 A 
ATOM      8  C   UNL     1      -2.117  12.075  19.433  0.00  0.00    +0.000 A 
ATOM      9  C   UNL     1      -2.835  12.863  20.335  0.00  0.00    +0.000 A 
ATOM     10  C   UNL     1      -2.578  12.769  21.700  0.00  0.00    +0.000 A 
ATOM     11  C   UNL     1      -1.616  11.868  22.162  0.00  0.00    +0.000 A 
ATOM     12  F   UNL     1      -1.354  11.771  23.474  0.00  0.00    +0.000 F 
ATOM     13  C   UNL     1      -0.903  11.074  21.269  0.00  0.00    +0.000 A 
BRANCH  10  14
ATOM     14  N   UNL     1      -3.348  13.575  22.596  0.00  0.00    +0.000 N 
ATOM     15  H   UNL     1      -2.814  13.945  23.386  0.00  0.00    +0.000 HD
BRANCH  14  16
ATOM     16  S   UNL     1      -4.780  12.893  23.190  0.00  0.00    +0.000 S 
ATOM     17  C   UNL     1      -5.667  14.344  23.718  0.00  0.00    +0.000 C 
ATOM     18  O   UNL     1      -5.517  12.260  22.119  0.00  0.00    +0.000 OA
ATOM     19  O   UNL     1      -4.398  12.162  24.378  0.00  0.00    +0.000 OA
ENDBRANCH  14  16
ENDBRANCH  10  14
ENDBRANCH   6   7
ENDBRANCH   1   6
BRANCH   3  20
ATOM     20  C   UNL     1       1.899   8.399  18.465  0.00  0.00    +0.000 C 
BRANCH  20  21
ATOM     21  C   UNL     1       3.052   7.784  17.723  0.00  0.00    +0.000 C 
ATOM     22  C   UNL     1       3.437   6.498  17.851  0.00  0.00    +0.000 C 
BRANCH  22  23
ATOM     23  C   UNL     1       2.691   5.590  18.747  0.00  0.00    +0.000 A 
ATOM     24  C   UNL     1       1.775   4.670  18.214  0.00  0.00    +0.000 A 
ATOM     25  C   UNL     1       1.095   3.792  19.059  0.00  0.00    +0.000 A 
ATOM     26  C   UNL     1       1.335   3.837  20.427  0.00  0.00    +0.000 A 
ATOM     27  F   UNL     1       0.689   2.987  21.236  0.00  0.00    +0.000 F 
ATOM     28  C   UNL     1       2.239   4.744  20.970  0.00  0.00    +0.000 A 
ATOM     29  C   UNL     1       2.918   5.625  20.128  0.00  0.00    +0.000 A 
ENDBRANCH  22  23
BRANCH  22  30
ATOM     30  C   UNL     1       4.574   5.995  17.047  0.00  0.00    +0.000 A 
ATOM     31  C   UNL     1       5.801   6.673  17.037  0.00  0.00    +0.000 A 
ATOM     32  C   UNL     1       6.909   6.103  16.404  0.00  0.00    +0.000 A 
ATOM     33  C   UNL     1       6.785   4.866  15.784  0.00  0.00    +0.000 A 
ATOM     34  F   UNL     1       7.857   4.304  15.210  0.00  0.00    +0.000 F 
ATOM     35  C   UNL     1       5.569   4.193  15.765  0.00  0.00    +0.000 A 
ATOM     36  C   UNL     1       4.460   4.759  16.393  0.00  0.00    +0.000 A 
ENDBRANCH  22  30
ENDBRANCH  20  21
ENDBRANCH   3  20
TORSDOF 8
ENDMDL
MODEL 2
REMARK VINA RESULT:      -9.1      0.946      1.294
REMARK  Name = 
REMARK  10 active torsions:
REMARK  status: ('A' for Active; 'I' for Inactive)
REMARK    1  A    between atoms: C_1  and  C_2
REMARK    2  A    between atoms: C_2  and  C_3
REMARK    3  A    between atoms: C_2  and  C_23
REMARK    4  A    between atoms: N_5  and  C_6
REMARK    5  A    between atoms: C_6  and  C_7
REMARK    6  A    between atoms: C_8  and  C_9
REMARK    7  A    between atoms: C_8  and  C_16
REMARK    8  A    between atoms: C_26  and  N_27
REMARK    9  A    between atoms: N_27  and  S_28
REMARK   10  A    between atoms: S_28  and  C_29
REMARK                            x       y       z     vdW  Elec       q    Type
REMARK                         _______ _______ _______ _____ _____    ______ ____
ROOT
ATOM      1  C   UNL     1       1.054  10.761  18.693  0.00  0.00    +0.000 C 
ATOM      2  O   UNL     1       1.342  11.951  18.628  0.00  0.00    +0.000 OA
ATOM      3  N   UNL     1       2.015   9.839  18.372  0.00  0.00    +0.000 N 
ATOM      4  H   UNL     1       2.900  10.253  18.106  0.00  0.00    +0.000 HD
ENDROOT
BRANCH   1   6
ATOM      5  C   UNL     1      -1.248  10.213  17.841  0.00  0.00    +0.000 C 
ATOM      6  C   UNL     1      -0.341  10.247  19.075  0.00  0.00    +0.000 C 
BRANCH   6   7
ATOM      7  C   UNL     1      -0.980  11.021  20.218  0.00  0.00    +0.000 A 
ATOM      8  C   UNL     1      -0.733  10.684  21.557  0.00  0.00    +0.000 A 
ATOM      9  C   UNL     1      -1.293  11.434  22.595  0.00  0.00    +0.000 A 
ATOM     10  C   UNL     1      -2.125  12.511  22.306  0.00  0.00    +0.000 A 
ATOM     11  C   UNL     1      -2.379  12.852  20.976  0.00  0.00    +0.000 A 
ATOM     12  F   UNL     1      -3.183  13.885  20.682  0.00  0.00    +0.000 F 
ATOM     13  C   UNL     1      -1.817  12.115  19.936  0.00  0.00    +0.000 A 
BRANCH  10  14
ATOM     14  N   UNL     1      -2.662  13.269  23.394  0.00  0.00    +0.000 N 
ATOM     15  H   UNL     1      -2.107  13.215  24.252  0.00  0.00    +0.000 HD
BRANCH  14  16
ATOM     16  S   UNL     1      -4.285  12.986  23.787  0.00  0.00    +0.000 S 
ATOM     17  C   UNL     1      -4.934  14.644  23.806  0.00  0.00    +0.000 C 
ATOM     18  O   UNL     1      -4.936  12.243  22.731  0.00  0.00    +0.000 OA
ATOM     19  O   UNL     1      -4.276  12.508  25.152  0.00  0.00    +0.000 OA
ENDBRANCH  14  16
ENDBRANCH  10  14
ENDBRANCH   6   7
ENDBRANCH   1   6
BRANCH   3  20
ATOM     20  C   UNL     1       1.865   8.407  18.243  0.00  0.00    +0.000 C 
BRANCH  20  21
ATOM     21  C   UNL     1       3.106   7.814  17.637  0.00  0.00    +0.000 C 
ATOM     22  C   UNL     1       3.520   6.548  17.843  0.00  0.00    +0.000 C 
BRANCH  22  23
ATOM     23  C   UNL     1       2.722   5.640  18.692  0.00  0.00    +0.000 A 
ATOM     24  C   UNL     1       1.933   4.639  18.105  0.00  0.00    +0.000 A 
ATOM     25  C   UNL     1       1.204   3.762  18.910  0.00  0.00    +0.000 A 
ATOM     26  C   UNL     1       1.271   3.888  20.293  0.00  0.00    +0.000 A 
ATOM     27  F   UNL     1       0.578   3.040  21.064  0.00  0.00    +0.000 F 
ATOM     28  C   UNL     1       2.048   4.875  20.889  0.00  0.00    +0.000 A 
ATOM     29  C   UNL     1       2.775   5.756  20.087  0.00  0.00    +0.000 A 
ENDBRANCH  22  23
BRANCH  22  30
ATOM     30  C   UNL     1       4.747   6.064  17.170  0.00  0.00    +0.000 A 
ATOM     31  C   UNL     1       5.656   5.237  17.844  0.00  0.00    +0.000 A 
ATOM     32  C   UNL     1       6.724   4.660  17.150  0.00  0.00    +0.000 A 
ATOM     33  C   UNL     1       6.880   4.917  15.793  0.00  0.00    +0.000 A 
ATOM     34  F   UNL     1       7.881   4.335  15.121  0.00  0.00    +0.000 F 
ATOM     35  C   UNL     1       6.001   5.755  15.116  0.00  0.00    +0.000 A 
ATOM     36  C   UNL     1       4.935   6.333  15.806  0.00  0.00    +0.000 A 
ENDBRANCH  22  30
ENDBRANCH  20  21
ENDBRANCH   3  20
TORSDOF 8
ENDMDL
MODEL 3
REMARK VINA RESULT:      -9.0      3.514      5.984
REMARK  Name = 
REMARK  10 active torsions:
REMARK  status: ('A' for Active; 'I' for Inactive)
REMARK    1  A    between atoms: C_1  and  C_2
REMARK    2  A    between atoms: C_2  and  C_3
REMARK    3  A    between atoms: C_2  and  C_23
REMARK    4  A    between atoms: N_5  and  C_6
REMARK    5  A    between atoms: C_6  and  C_7
REMARK    6  A    between atoms: C_8  and  C_9
REMARK    7  A    between atoms: C_8  and  C_16
REMARK    8  A    between atoms: C_26  and  N_27
REMARK    9  A    between atoms: N_27  and  S_28
REMARK   10  A    between atoms: S_28  and  C_29
REMARK                            x       y       z     vdW  Elec       q    Type
REMARK                         _______ _______ _______ _____ _____    ______ ____
ROOT
ATOM      1  C   UNL     1       2.074   4.229  18.845  0.00  0.00    +0.000 C 
ATOM      2  O   UNL     1       0.923   3.813  18.758  0.00  0.00    +0.000 OA
ATOM      3  N   UNL     1       2.977   3.855  17.886  0.00  0.00    +0.000 N 
ATOM      4  H   UNL     1       2.585   3.249  17.174  0.00  0.00    +0.000 HD
ENDROOT
BRANCH   1   6
ATOM      5  C   UNL     1       2.166   4.508  21.343  0.00  0.00    +0.000 C 
ATOM      6  C   UNL     1       2.568   5.117  19.996  0.00  0.00    +0.000 C 
BRANCH   6   7
ATOM      7  C   UNL     1       2.119   6.565  19.880  0.00  0.00    +0.000 A 
ATOM      8  C   UNL     1       1.510   7.231  20.954  0.00  0.00    +0.000 A 
ATOM      9  C   UNL     1       1.144   8.574  20.845  0.00  0.00    +0.000 A 
ATOM     10  C   UNL     1       1.359   9.260  19.653  0.00  0.00    +0.000 A 
ATOM     11  C   UNL     1       1.962   8.605  18.577  0.00  0.00    +0.000 A 
ATOM     12  F   UNL     1       2.171   9.252  17.420  0.00  0.00    +0.000 F 
ATOM     13  C   UNL     1       2.338   7.268  18.682  0.00  0.00    +0.000 A 
BRANCH  10  14
ATOM     14  N   UNL     1       0.992  10.641  19.585  0.00  0.00    +0.000 N 
ATOM     15  H   UNL     1       1.188  11.166  20.440  0.00  0.00    +0.000 HD
BRANCH  14  16
ATOM     16  S   UNL     1      -0.595  10.981  19.100  0.00  0.00    +0.000 S 
ATOM     17  C   UNL     1      -0.423  12.640  18.476  0.00  0.00    +0.000 C 
ATOM     18  O   UNL     1      -0.985  10.112  18.012  0.00  0.00    +0.000 OA
ATOM     19  O   UNL     1      -1.367  11.054  20.321  0.00  0.00    +0.000 OA
ENDBRANCH  14  16
ENDBRANCH  10  14
ENDBRANCH   6   7
ENDBRANCH   1   6
BRANCH   3  20
ATOM     20  C   UNL     1       4.401   4.106  17.859  0.00  0.00    +0.000 C 
BRANCH  20  21
ATOM     21  C   UNL     1       4.919   3.967  16.456  0.00  0.00    +0.000 C 
ATOM     22  C   UNL     1       5.986   4.635  15.972  0.00  0.00    +0.000 C 
BRANCH  22  23
ATOM     23  C   UNL     1       6.741   5.554  16.849  0.00  0.00    +0.000 A 
ATOM     24  C   UNL     1       6.680   6.939  16.637  0.00  0.00    +0.000 A 
ATOM     25  C   UNL     1       7.369   7.807  17.485  0.00  0.00    +0.000 A 
ATOM     26  C   UNL     1       8.109   7.286  18.540  0.00  0.00    +0.000 A 
ATOM     27  F   UNL     1       8.762   8.121  19.360  0.00  0.00    +0.000 F 
ATOM     28  C   UNL     1       8.179   5.916  18.763  0.00  0.00    +0.000 A 
ATOM     29  C   UNL     1       7.495   5.045  17.915  0.00  0.00    +0.000 A 
ENDBRANCH  22  23
BRANCH  22  30
ATOM     30  C   UNL     1       6.423   4.398  14.577  0.00  0.00    +0.000 A 
ATOM     31  C   UNL     1       5.701   3.541  13.735  0.00  0.00    +0.000 A 
ATOM     32  C   UNL     1       6.032   3.451  12.380  0.00  0.00    +0.000 A 
ATOM     33  C   UNL     1       7.081   4.211  11.876  0.00  0.00    +0.000 A 
ATOM     34  F   UNL     1       7.373   4.152  10.571  0.00  0.00    +0.000 F 
ATOM     35  C   UNL     1       7.822   5.047  12.705  0.00  0.00    +0.000 A 
ATOM     36  C   UNL     1       7.496   5.138  14.058  0.00  0.00    +0.000 A 
ENDBRANCH  22  30
ENDBRANCH  20  21
ENDBRANCH   3  20
TORSDOF 8
ENDMDL
MODEL 4
REMARK VINA RESULT:      -8.9      1.671      2.240
REMARK  Name = 
REMARK  10 active torsions:
REMARK  status: ('A' for Active; 'I' for Inactive)
REMARK    1  A    between atoms: C_1  and  C_2
REMARK    2  A    between atoms: C_2  and  C_3
REMARK    3  A    between atoms: C_2  and  C_23
REMARK    4  A    between atoms: N_5  and  C_6
REMARK    5  A    between atoms: C_6  and  C_7
REMARK    6  A    between atoms: C_8  and  C_9
REMARK    7  A    between atoms: C_8  and  C_16
REMARK    8  A    between atoms: C_26  and  N_27
REMARK    9  A    between atoms: N_27  and  S_28
REMARK   10  A    between atoms: S_28  and  C_29
REMARK                            x       y       z     vdW  Elec       q    Type
REMARK                         _______ _______ _______ _____ _____    ______ ____
ROOT
ATOM      1  C   UNL     1       1.218  10.471  18.928  0.00  0.00    +0.000 C 
ATOM      2  O   UNL     1       1.588  11.638  18.850  0.00  0.00    +0.000 OA
ATOM      3  N   UNL     1       2.135   9.480  18.701  0.00  0.00    +0.000 N 
ATOM      4  H   UNL     1       3.062   9.827  18.485  0.00  0.00    +0.000 HD
ENDROOT
BRANCH   1   6
ATOM      5  C   UNL     1      -1.074  10.130  17.950  0.00  0.00    +0.000 C 
ATOM      6  C   UNL     1      -0.231  10.061  19.227  0.00  0.00    +0.000 C 
BRANCH   6   7
ATOM      7  C   UNL     1      -0.864  10.855  20.360  0.00  0.00    +0.000 A 
ATOM      8  C   UNL     1      -0.461  10.678  21.691  0.00  0.00    +0.000 A 
ATOM      9  C   UNL     1      -1.021  11.447  22.714  0.00  0.00    +0.000 A 
ATOM     10  C   UNL     1      -2.008  12.383  22.420  0.00  0.00    +0.000 A 
ATOM     11  C   UNL     1      -2.418  12.566  21.098  0.00  0.00    +0.000 A 
ATOM     12  F   UNL     1      -3.371  13.461  20.800  0.00  0.00    +0.000 F 
ATOM     13  C   UNL     1      -1.857  11.808  20.072  0.00  0.00    +0.000 A 
BRANCH  10  14
ATOM     14  N   UNL     1      -2.543  13.169  23.489  0.00  0.00    +0.000 N 
ATOM     15  H   UNL     1      -3.563  13.248  23.477  0.00  0.00    +0.000 HD
BRANCH  14  16
ATOM     16  S   UNL     1      -1.889  14.717  23.695  0.00  0.00    +0.000 S 
ATOM     17  C   UNL     1      -2.362  15.078  25.373  0.00  0.00    +0.000 C 
ATOM     18  O   UNL     1      -0.445  14.667  23.619  0.00  0.00    +0.000 OA
ATOM     19  O   UNL     1      -2.660  15.583  22.831  0.00  0.00    +0.000 OA
ENDBRANCH  14  16
ENDBRANCH  10  14
ENDBRANCH   6   7
ENDBRANCH   1   6
BRANCH   3  20
ATOM     20  C   UNL     1       1.900   8.057  18.603  0.00  0.00    +0.000 C 
BRANCH  20  21
ATOM     21  C   UNL     1       2.973   7.416  17.769  0.00  0.00    +0.000 C 
ATOM     22  C   UNL     1       3.341   6.123  17.870  0.00  0.00    +0.000 C 
BRANCH  22  23
ATOM     23  C   UNL     1       2.654   5.233  18.830  0.00  0.00    +0.000 A 
ATOM     24  C   UNL     1       3.009   5.254  20.187  0.00  0.00    +0.000 A 
ATOM     25  C   UNL     1       2.339   4.436  21.097  0.00  0.00    +0.000 A 
ATOM     26  C   UNL     1       1.318   3.607  20.647  0.00  0.00    +0.000 A 
ATOM     27  F   UNL     1       0.668   2.829  21.524  0.00  0.00    +0.000 F 
ATOM     28  C   UNL     1       0.955   3.575  19.305  0.00  0.00    +0.000 A 
ATOM     29  C   UNL     1       1.626   4.389  18.392  0.00  0.00    +0.000 A 
ENDBRANCH  22  23
BRANCH  22  30
ATOM     30  C   UNL     1       4.395   5.593  16.976  0.00  0.00    +0.000 A 
ATOM     31  C   UNL     1       4.698   4.225  16.954  0.00  0.00    +0.000 A 
ATOM     32  C   UNL     1       5.580   3.719  15.996  0.00  0.00    +0.000 A 
ATOM     33  C   UNL     1       6.157   4.580  15.070  0.00  0.00    +0.000 A 
ATOM     34  F   UNL     1       6.974   4.089  14.130  0.00  0.00    +0.000 F 
ATOM     35  C   UNL     1       5.886   5.943  15.094  0.00  0.00    +0.000 A 
ATOM     36  C   UNL     1       5.007   6.452  16.050  0.00  0.00    +0.000 A 
ENDBRANCH  22  30
ENDBRANCH  20  21
ENDBRANCH   3  20
TORSDOF 8
ENDMDL
MODEL 5
REMARK VINA RESULT:      -8.9      1.418      1.726
REMARK  Name = 
REMARK  10 active torsions:
REMARK  status: ('A' for Active; 'I' for Inactive)
REMARK    1  A    between atoms: C_1  and  C_2
REMARK    2  A    between atoms: C_2  and  C_3
REMARK    3  A    between atoms: C_2  and  C_23
REMARK    4  A    between atoms: N_5  and  C_6
REMARK    5  A    between atoms: C_6  and  C_7
REMARK    6  A    between atoms: C_8  and  C_9
REMARK    7  A    between atoms: C_8  and  C_16
REMARK    8  A    between atoms: C_26  and  N_27
REMARK    9  A    between atoms: N_27  and  S_28
REMARK   10  A    between atoms: S_28  and  C_29
REMARK                            x       y       z     vdW  Elec       q    Type
REMARK                         _______ _______ _______ _____ _____    ______ ____
ROOT
ATOM      1  C   UNL     1       1.212  10.568  18.533  0.00  0.00    +0.000 C 
ATOM      2  O   UNL     1       1.529  11.744  18.387  0.00  0.00    +0.000 OA
ATOM      3  N   UNL     1       2.161   9.605  18.318  0.00  0.00    +0.000 N 
ATOM      4  H   UNL     1       3.065   9.979  18.051  0.00  0.00    +0.000 HD
ENDROOT
BRANCH   1   6
ATOM      5  C   UNL     1      -1.109  10.131  17.667  0.00  0.00    +0.000 C 
ATOM      6  C   UNL     1      -0.207  10.114  18.905  0.00  0.00    +0.000 C 
BRANCH   6   7
ATOM      7  C   UNL     1      -0.815  10.906  20.052  0.00  0.00    +0.000 A 
ATOM      8  C   UNL     1      -1.654  12.005  19.818  0.00  0.00    +0.000 A 
ATOM      9  C   UNL     1      -2.240  12.695  20.882  0.00  0.00    +0.000 A 
ATOM     10  C   UNL     1      -1.973  12.309  22.192  0.00  0.00    +0.000 A 
ATOM     11  C   UNL     1      -1.137  11.218  22.436  0.00  0.00    +0.000 A 
ATOM     12  F   UNL     1      -0.866  10.838  23.694  0.00  0.00    +0.000 F 
ATOM     13  C   UNL     1      -0.556  10.521  21.379  0.00  0.00    +0.000 A 
BRANCH  10  14
ATOM     14  N   UNL     1      -2.608  13.024  23.256  0.00  0.00    +0.000 N 
ATOM     15  H   UNL     1      -3.598  13.222  23.092  0.00  0.00    +0.000 HD
BRANCH  14  16
ATOM     16  S   UNL     1      -1.855  14.452  23.767  0.00  0.00    +0.000 S 
ATOM     17  C   UNL     1      -2.646  15.658  22.723  0.00  0.00    +0.000 C 
ATOM     18  O   UNL     1      -2.193  14.734  25.144  0.00  0.00    +0.000 OA
ATOM     19  O   UNL     1      -0.479  14.341  23.335  0.00  0.00    +0.000 OA
ENDBRANCH  14  16
ENDBRANCH  10  14
ENDBRANCH   6   7
ENDBRANCH   1   6
BRANCH   3  20
ATOM     20  C   UNL     1       1.983   8.170  18.294  0.00  0.00    +0.000 C 
BRANCH  20  21
ATOM     21  C   UNL     1       3.162   7.518  17.629  0.00  0.00    +0.000 C 
ATOM     22  C   UNL     1       3.538   6.240  17.836  0.00  0.00    +0.000 C 
BRANCH  22  23
ATOM     23  C   UNL     1       2.755   5.379  18.747  0.00  0.00    +0.000 A 
ATOM     24  C   UNL     1       1.787   4.504  18.231  0.00  0.00    +0.000 A 
ATOM     25  C   UNL     1       1.071   3.670  19.090  0.00  0.00    +0.000 A 
ATOM     26  C   UNL     1       1.328   3.712  20.455  0.00  0.00    +0.000 A 
ATOM     27  F   UNL     1       0.647   2.903  21.277  0.00  0.00    +0.000 F 
ATOM     28  C   UNL     1       2.285   4.573  20.981  0.00  0.00    +0.000 A 
ATOM     29  C   UNL     1       3.000   5.412  20.126  0.00  0.00    +0.000 A 
ENDBRANCH  22  23
BRANCH  22  30
ATOM     30  C   UNL     1       4.704   5.696  17.103  0.00  0.00    +0.000 A 
ATOM     31  C   UNL     1       4.584   4.540  16.319  0.00  0.00    +0.000 A 
ATOM     32  C   UNL     1       5.647   4.130  15.510  0.00  0.00    +0.000 A 
ATOM     33  C   UNL     1       6.823   4.872  15.493  0.00  0.00    +0.000 A 
ATOM     34  F   UNL     1       7.827   4.499  14.690  0.00  0.00    +0.000 F 
ATOM     35  C   UNL     1       6.966   6.006  16.283  0.00  0.00    +0.000 A 
ATOM     36  C   UNL     1       5.908   6.417  17.093  0.00  0.00    +0.000 A 
ENDBRANCH  22  30
ENDBRANCH  20  21
ENDBRANCH   3  20
TORSDOF 8
ENDMDL
MODEL 6
REMARK VINA RESULT:      -8.8      3.771      6.104
REMARK  Name = 
REMARK  10 active torsions:
REMARK  status: ('A' for Active; 'I' for Inactive)
REMARK    1  A    between atoms: C_1  and  C_2
REMARK    2  A    between atoms: C_2  and  C_3
REMARK    3  A    between atoms: C_2  and  C_23
REMARK    4  A    between atoms: N_5  and  C_6
REMARK    5  A    between atoms: C_6  and  C_7
REMARK    6  A    between atoms: C_8  and  C_9
REMARK    7  A    between atoms: C_8  and  C_16
REMARK    8  A    between atoms: C_26  and  N_27
REMARK    9  A    between atoms: N_27  and  S_28
REMARK   10  A    between atoms: S_28  and  C_29
REMARK                            x       y       z     vdW  Elec       q    Type
REMARK                         _______ _______ _______ _____ _____    ______ ____
ROOT
ATOM      1  C   UNL     1       2.175   4.476  18.848  0.00  0.00    +0.000 C 
ATOM      2  O   UNL     1       1.009   4.096  18.805  0.00  0.00    +0.000 OA
ATOM      3  N   UNL     1       3.086   3.877  18.019  0.00  0.00    +0.000 N 
ATOM      4  H   UNL     1       2.686   3.155  17.431  0.00  0.00    +0.000 HD
ENDROOT
BRANCH   1   6
ATOM      5  C   UNL     1       2.326   5.188  21.255  0.00  0.00    +0.000 C 
ATOM      6  C   UNL     1       2.677   5.560  19.811  0.00  0.00    +0.000 C 
BRANCH   6   7
ATOM      7  C   UNL     1       2.191   6.957  19.459  0.00  0.00    +0.000 A 
ATOM      8  C   UNL     1       2.387   7.498  18.180  0.00  0.00    +0.000 A 
ATOM      9  C   UNL     1       1.894   8.766  17.859  0.00  0.00    +0.000 A 
ATOM     10  C   UNL     1       1.223   9.515  18.821  0.00  0.00    +0.000 A 
ATOM     11  C   UNL     1       1.025   8.986  20.097  0.00  0.00    +0.000 A 
ATOM     12  F   UNL     1       0.384   9.699  21.036  0.00  0.00    +0.000 F 
ATOM     13  C   UNL     1       1.506   7.720  20.421  0.00  0.00    +0.000 A 
BRANCH  10  14
ATOM     14  N   UNL     1       0.713  10.799  18.450  0.00  0.00    +0.000 N 
ATOM     15  H   UNL     1       0.474  10.882  17.459  0.00  0.00    +0.000 HD
BRANCH  14  16
ATOM     16  S   UNL     1       1.647  12.142  18.889  0.00  0.00    +0.000 S 
ATOM     17  C   UNL     1       0.573  13.484  18.422  0.00  0.00    +0.000 C 
ATOM     18  O   UNL     1       1.838  12.175  20.322  0.00  0.00    +0.000 OA
ATOM     19  O   UNL     1       2.770  12.148  17.977  0.00  0.00    +0.000 OA
ENDBRANCH  14  16
ENDBRANCH  10  14
ENDBRANCH   6   7
ENDBRANCH   1   6
BRANCH   3  20
ATOM     20  C   UNL     1       4.520   4.061  17.993  0.00  0.00    +0.000 C 
BRANCH  20  21
ATOM     21  C   UNL     1       5.026   3.949  16.583  0.00  0.00    +0.000 C 
ATOM     22  C   UNL     1       6.042   4.680  16.082  0.00  0.00    +0.000 C 
BRANCH  22  23
ATOM     23  C   UNL     1       6.750   5.649  16.946  0.00  0.00    +0.000 A 
ATOM     24  C   UNL     1       7.545   5.195  18.009  0.00  0.00    +0.000 A 
ATOM     25  C   UNL     1       8.237   6.109  18.804  0.00  0.00    +0.000 A 
ATOM     26  C   UNL     1       8.134   7.468  18.530  0.00  0.00    +0.000 A 
ATOM     27  F   UNL     1       8.807   8.344  19.288  0.00  0.00    +0.000 F 
ATOM     28  C   UNL     1       7.350   7.933  17.479  0.00  0.00    +0.000 A 
ATOM     29  C   UNL     1       6.654   7.022  16.685  0.00  0.00    +0.000 A 
ENDBRANCH  22  23
BRANCH  22  30
ATOM     30  C   UNL     1       6.474   4.466  14.682  0.00  0.00    +0.000 A 
ATOM     31  C   UNL     1       5.746   3.625  13.828  0.00  0.00    +0.000 A 
ATOM     32  C   UNL     1       6.072   3.557  12.470  0.00  0.00    +0.000 A 
ATOM     33  C   UNL     1       7.122   4.323  11.976  0.00  0.00    +0.000 A 
ATOM     34  F   UNL     1       7.409   4.284  10.669  0.00  0.00    +0.000 F 
ATOM     35  C   UNL     1       7.868   5.142  12.816  0.00  0.00    +0.000 A 
ATOM     36  C   UNL     1       7.547   5.211  14.171  0.00  0.00    +0.000 A 
ENDBRANCH  22  30
ENDBRANCH  20  21
ENDBRANCH   3  20
TORSDOF 8
ENDMDL
MODEL 7
REMARK VINA RESULT:      -8.8      0.645      1.100
REMARK  Name = 
REMARK  10 active torsions:
REMARK  status: ('A' for Active; 'I' for Inactive)
REMARK    1  A    between atoms: C_1  and  C_2
REMARK    2  A    between atoms: C_2  and  C_3
REMARK    3  A    between atoms: C_2  and  C_23
REMARK    4  A    between atoms: N_5  and  C_6
REMARK    5  A    between atoms: C_6  and  C_7
REMARK    6  A    between atoms: C_8  and  C_9
REMARK    7  A    between atoms: C_8  and  C_16
REMARK    8  A    between atoms: C_26  and  N_27
REMARK    9  A    between atoms: N_27  and  S_28
REMARK   10  A    between atoms: S_28  and  C_29
REMARK                            x       y       z     vdW  Elec       q    Type
REMARK                         _______ _______ _______ _____ _____    ______ ____
ROOT
ATOM      1  C   UNL     1       1.173  10.650  18.606  0.00  0.00    +0.000 C 
ATOM      2  O   UNL     1       1.490  11.828  18.482  0.00  0.00    +0.000 OA
ATOM      3  N   UNL     1       2.123   9.691  18.371  0.00  0.00    +0.000 N 
ATOM      4  H   UNL     1       3.025  10.070  18.111  0.00  0.00    +0.000 HD
ENDROOT
BRANCH   1   6
ATOM      5  C   UNL     1      -1.042   9.874  17.702  0.00  0.00    +0.000 C 
ATOM      6  C   UNL     1      -0.245  10.189  18.971  0.00  0.00    +0.000 C 
BRANCH   6   7
ATOM      7  C   UNL     1      -0.986  11.165  19.871  0.00  0.00    +0.000 A 
ATOM      8  C   UNL     1      -2.006  11.990  19.372  0.00  0.00    +0.000 A 
ATOM      9  C   UNL     1      -2.707  12.850  20.221  0.00  0.00    +0.000 A 
ATOM     10  C   UNL     1      -2.380  12.913  21.572  0.00  0.00    +0.000 A 
ATOM     11  C   UNL     1      -1.365  12.099  22.078  0.00  0.00    +0.000 A 
ATOM     12  F   UNL     1      -1.035  12.153  23.377  0.00  0.00    +0.000 F 
ATOM     13  C   UNL     1      -0.668  11.233  21.239  0.00  0.00    +0.000 A 
BRANCH  10  14
ATOM     14  N   UNL     1      -3.134  13.789  22.415  0.00  0.00    +0.000 N 
ATOM     15  H   UNL     1      -2.564  14.322  23.077  0.00  0.00    +0.000 HD
BRANCH  14  16
ATOM     16  S   UNL     1      -4.430  13.099  23.260  0.00  0.00    +0.000 S 
ATOM     17  C   UNL     1      -5.546  12.706  21.929  0.00  0.00    +0.000 C 
ATOM     18  O   UNL     1      -4.015  11.869  23.899  0.00  0.00    +0.000 OA
ATOM     19  O   UNL     1      -5.020  14.181  24.017  0.00  0.00    +0.000 OA
ENDBRANCH  14  16
ENDBRANCH  10  14
ENDBRANCH   6   7
ENDBRANCH   1   6
BRANCH   3  20
ATOM     20  C   UNL     1       1.945   8.257  18.321  0.00  0.00    +0.000 C 
BRANCH  20  21
ATOM     21  C   UNL     1       3.131   7.616  17.659  0.00  0.00    +0.000 C 
ATOM     22  C   UNL     1       3.511   6.337  17.856  0.00  0.00    +0.000 C 
BRANCH  22  23
ATOM     23  C   UNL     1       2.724   5.464  18.753  0.00  0.00    +0.000 A 
ATOM     24  C   UNL     1       1.798   4.556  18.218  0.00  0.00    +0.000 A 
ATOM     25  C   UNL     1       1.079   3.711  19.064  0.00  0.00    +0.000 A 
ATOM     26  C   UNL     1       1.292   3.776  20.436  0.00  0.00    +0.000 A 
ATOM     27  F   UNL     1       0.608   2.958  21.247  0.00  0.00    +0.000 F 
ATOM     28  C   UNL     1       2.206   4.671  20.982  0.00  0.00    +0.000 A 
ATOM     29  C   UNL     1       2.924   5.520  20.139  0.00  0.00    +0.000 A 
ENDBRANCH  22  23
BRANCH  22  30
ATOM     30  C   UNL     1       4.685   5.805  17.128  0.00  0.00    +0.000 A 
ATOM     31  C   UNL     1       4.538   4.782  16.181  0.00  0.00    +0.000 A 
ATOM     32  C   UNL     1       5.625   4.401  15.390  0.00  0.00    +0.000 A 
ATOM     33  C   UNL     1       6.850   5.038  15.552  0.00  0.00    +0.000 A 
ATOM     34  F   UNL     1       7.881   4.698  14.769  0.00  0.00    +0.000 F 
ATOM     35  C   UNL     1       7.017   6.037  16.504  0.00  0.00    +0.000 A 
ATOM     36  C   UNL     1       5.935   6.418  17.297  0.00  0.00    +0.000 A 
ENDBRANCH  22  30
ENDBRANCH  20  21
ENDBRANCH   3  20
TORSDOF 8
ENDMDL
MODEL 8
REMARK VINA RESULT:      -8.8      3.470      4.422
REMARK  Name = 
REMARK  10 active torsions:
REMARK  status: ('A' for Active; 'I' for Inactive)
REMARK    1  A    between atoms: C_1  and  C_2
REMARK    2  A    between atoms: C_2  and  C_3
REMARK    3  A    between atoms: C_2  and  C_23
REMARK    4  A    between atoms: N_5  and  C_6
REMARK    5  A    between atoms: C_6  and  C_7
REMARK    6  A    between atoms: C_8  and  C_9
REMARK    7  A    between atoms: C_8  and  C_16
REMARK    8  A    between atoms: C_26  and  N_27
REMARK    9  A    between atoms: N_27  and  S_28
REMARK   10  A    between atoms: S_28  and  C_29
REMARK                            x       y       z     vdW  Elec       q    Type
REMARK                         _______ _______ _______ _____ _____    ______ ____
ROOT
ATOM      1  C   UNL     1       0.374   9.705  18.233  0.00  0.00    +0.000 C 
ATOM      2  O   UNL     1      -0.572   9.942  17.488  0.00  0.00    +0.000 OA
ATOM      3  N   UNL     1       1.197   8.654  17.927  0.00  0.00    +0.000 N 
ATOM      4  H   UNL     1       0.929   8.162  17.083  0.00  0.00    +0.000 HD
ENDROOT
BRANCH   1   6
ATOM      5  C   UNL     1      -0.549  10.450  20.451  0.00  0.00    +0.000 C 
ATOM      6  C   UNL     1       0.662  10.500  19.514  0.00  0.00    +0.000 C 
BRANCH   6   7
ATOM      7  C   UNL     1       1.109  11.929  19.252  0.00  0.00    +0.000 A 
ATOM      8  C   UNL     1       2.215  12.212  18.438  0.00  0.00    +0.000 A 
ATOM      9  C   UNL     1       2.586  13.533  18.172  0.00  0.00    +0.000 A 
ATOM     10  C   UNL     1       1.871  14.584  18.738  0.00  0.00    +0.000 A 
ATOM     11  C   UNL     1       0.770  14.313  19.553  0.00  0.00    +0.000 A 
ATOM     12  F   UNL     1       0.074  15.315  20.110  0.00  0.00    +0.000 F 
ATOM     13  C   UNL     1       0.390  12.998  19.815  0.00  0.00    +0.000 A 
BRANCH  10  14
ATOM     14  N   UNL     1       2.265  15.923  18.425  0.00  0.00    +0.000 N 
ATOM     15  H   UNL     1       2.653  16.034  17.485  0.00  0.00    +0.000 HD
BRANCH  14  16
ATOM     16  S   UNL     1       3.303  16.685  19.526  0.00  0.00    +0.000 S 
ATOM     17  C   UNL     1       2.255  17.978  20.158  0.00  0.00    +0.000 C 
ATOM     18  O   UNL     1       3.636  15.785  20.608  0.00  0.00    +0.000 OA
ATOM     19  O   UNL     1       4.329  17.311  18.722  0.00  0.00    +0.000 OA
ENDBRANCH  14  16
ENDBRANCH  10  14
ENDBRANCH   6   7
ENDBRANCH   1   6
BRANCH   3  20
ATOM     20  C   UNL     1       2.275   8.108  18.721  0.00  0.00    +0.000 C 
BRANCH  20  21
ATOM     21  C   UNL     1       3.258   7.398  17.834  0.00  0.00    +0.000 C 
ATOM     22  C   UNL     1       3.493   6.071  17.872  0.00  0.00    +0.000 C 
BRANCH  22  23
ATOM     23  C   UNL     1       2.741   5.216  18.814  0.00  0.00    +0.000 A 
ATOM     24  C   UNL     1       1.672   4.432  18.354  0.00  0.00    +0.000 A 
ATOM     25  C   UNL     1       0.983   3.602  19.239  0.00  0.00    +0.000 A 
ATOM     26  C   UNL     1       1.369   3.556  20.574  0.00  0.00    +0.000 A 
ATOM     27  F   UNL     1       0.713   2.751  21.420  0.00  0.00    +0.000 F 
ATOM     28  C   UNL     1       2.427   4.327  21.044  0.00  0.00    +0.000 A 
ATOM     29  C   UNL     1       3.115   5.161  20.163  0.00  0.00    +0.000 A 
ENDBRANCH  22  23
BRANCH  22  30
ATOM     30  C   UNL     1       4.467   5.476  16.929  0.00  0.00    +0.000 A 
ATOM     31  C   UNL     1       4.732   4.100  16.944  0.00  0.00    +0.000 A 
ATOM     32  C   UNL     1       5.530   3.531  15.948  0.00  0.00    +0.000 A 
ATOM     33  C   UNL     1       6.061   4.337  14.948  0.00  0.00    +0.000 A 
ATOM     34  F   UNL     1       6.796   3.785  13.974  0.00  0.00    +0.000 F 
ATOM     35  C   UNL     1       5.828   5.708  14.934  0.00  0.00    +0.000 A 
ATOM     36  C   UNL     1       5.033   6.280  15.928  0.00  0.00    +0.000 A 
ENDBRANCH  22  30
ENDBRANCH  20  21
ENDBRANCH   3  20
TORSDOF 8
ENDMDL
MODEL 9
REMARK VINA RESULT:      -8.8      3.546      4.395
REMARK  Name = 
REMARK  10 active torsions:
REMARK  status: ('A' for Active; 'I' for Inactive)
REMARK    1  A    between atoms: C_1  and  C_2
REMARK    2  A    between atoms: C_2  and  C_3
REMARK    3  A    between atoms: C_2  and  C_23
REMARK    4  A    between atoms: N_5  and  C_6
REMARK    5  A    between atoms: C_6  and  C_7
REMARK    6  A    between atoms: C_8  and  C_9
REMARK    7  A    between atoms: C_8  and  C_16
REMARK    8  A    between atoms: C_26  and  N_27
REMARK    9  A    between atoms: N_27  and  S_28
REMARK   10  A    between atoms: S_28  and  C_29
REMARK                            x       y       z     vdW  Elec       q    Type
REMARK                         _______ _______ _______ _____ _____    ______ ____
ROOT
ATOM      1  C   UNL     1       0.444   9.783  18.356  0.00  0.00    +0.000 C 
ATOM      2  O   UNL     1      -0.433  10.145  17.579  0.00  0.00    +0.000 OA
ATOM      3  N   UNL     1       1.270   8.758  17.975  0.00  0.00    +0.000 N 
ATOM      4  H   UNL     1       1.062   8.392  17.053  0.00  0.00    +0.000 HD
ENDROOT
BRANCH   1   6
ATOM      5  C   UNL     1      -0.662  10.311  20.552  0.00  0.00    +0.000 C 
ATOM      6  C   UNL     1       0.642  10.390  19.752  0.00  0.00    +0.000 C 
BRANCH   6   7
ATOM      7  C   UNL     1       1.198  11.805  19.724  0.00  0.00    +0.000 A 
ATOM      8  C   UNL     1       0.872  12.738  20.719  0.00  0.00    +0.000 A 
ATOM      9  C   UNL     1       1.426  14.021  20.703  0.00  0.00    +0.000 A 
ATOM     10  C   UNL     1       2.291  14.392  19.678  0.00  0.00    +0.000 A 
ATOM     11  C   UNL     1       2.619  13.471  18.681  0.00  0.00    +0.000 A 
ATOM     12  F   UNL     1       3.448  13.817  17.684  0.00  0.00    +0.000 F 
ATOM     13  C   UNL     1       2.077  12.188  18.696  0.00  0.00    +0.000 A 
BRANCH  10  14
ATOM     14  N   UNL     1       2.856  15.706  19.705  0.00  0.00    +0.000 N 
ATOM     15  H   UNL     1       3.034  16.062  20.648  0.00  0.00    +0.000 HD
BRANCH  14  16
ATOM     16  S   UNL     1       2.041  16.902  18.826  0.00  0.00    +0.000 S 
ATOM     17  C   UNL     1       2.980  16.927  17.314  0.00  0.00    +0.000 C 
ATOM     18  O   UNL     1       0.691  16.475  18.530  0.00  0.00    +0.000 OA
ATOM     19  O   UNL     1       2.304  18.142  19.522  0.00  0.00    +0.000 OA
ENDBRANCH  14  16
ENDBRANCH  10  14
ENDBRANCH   6   7
ENDBRANCH   1   6
BRANCH   3  20
ATOM     20  C   UNL     1       2.269   8.079  18.770  0.00  0.00    +0.000 C 
BRANCH  20  21
ATOM     21  C   UNL     1       3.246   7.375  17.872  0.00  0.00    +0.000 C 
ATOM     22  C   UNL     1       3.482   6.048  17.900  0.00  0.00    +0.000 C 
BRANCH  22  23
ATOM     23  C   UNL     1       2.735   5.186  18.841  0.00  0.00    +0.000 A 
ATOM     24  C   UNL     1       1.664   4.405  18.381  0.00  0.00    +0.000 A 
ATOM     25  C   UNL     1       0.980   3.569  19.265  0.00  0.00    +0.000 A 
ATOM     26  C   UNL     1       1.373   3.515  20.597  0.00  0.00    +0.000 A 
ATOM     27  F   UNL     1       0.722   2.704  21.442  0.00  0.00    +0.000 F 
ATOM     28  C   UNL     1       2.433   4.283  21.067  0.00  0.00    +0.000 A 
ATOM     29  C   UNL     1       3.116   5.123  20.187  0.00  0.00    +0.000 A 
ENDBRANCH  22  23
BRANCH  22  30
ATOM     30  C   UNL     1       4.451   5.459  16.948  0.00  0.00    +0.000 A 
ATOM     31  C   UNL     1       4.687   4.078  16.927  0.00  0.00    +0.000 A 
ATOM     32  C   UNL     1       5.481   3.520  15.921  0.00  0.00    +0.000 A 
ATOM     33  C   UNL     1       6.036   4.343  14.948  0.00  0.00    +0.000 A 
ATOM     34  F   UNL     1       6.766   3.803  13.964  0.00  0.00    +0.000 F 
ATOM     35  C   UNL     1       5.831   5.717  14.970  0.00  0.00    +0.000 A 
ATOM     36  C   UNL     1       5.041   6.278  15.973  0.00  0.00    +0.000 A 
ENDBRANCH  22  30
ENDBRANCH  20  21
ENDBRANCH   3  20
TORSDOF 8
ENDMDL
