MODEL 1
REMARK VINA RESULT:      -6.8      0.000      0.000
REMARK  Name = 
REMARK  4 active torsions:
REMARK  status: ('A' for Active; 'I' for Inactive)
REMARK    1  A    between atoms: C_1  and  C_2
REMARK    2  A    between atoms: C_2  and  O_3
REMARK    3  A    between atoms: O_3  and  C_4
REMARK    4  A    between atoms: C_7  and  C_8
REMARK                            x       y       z     vdW  Elec       q    Type
REMARK                         _______ _______ _______ _____ _____    ______ ____
ROOT
ATOM      1  C   UNL     1      -1.355  13.915  21.014  0.00  0.00    +0.000 C 
ATOM      2  O   UNL     1      -1.275  15.134  20.854  0.00  0.00    +0.000 OA
ATOM      3  N   UNL     1      -0.346  12.964  20.704  0.00  0.00    +0.000 N 
ATOM      4  C   UNL     1       0.758  13.286  19.838  0.00  0.00    +0.000 A 
ATOM      5  C   UNL     1       1.335  14.566  19.841  0.00  0.00    +0.000 A 
ATOM      6  C   UNL     1       2.441  14.867  19.039  0.00  0.00    +0.000 A 
ATOM      7  C   UNL     1       2.979  13.903  18.195  0.00  0.00    +0.000 A 
ATOM      8  C   UNL     1       2.412  12.633  18.156  0.00  0.00    +0.000 A 
ATOM      9  C   UNL     1       1.319  12.319  18.978  0.00  0.00    +0.000 A 
ATOM     10  S   UNL     1       0.642  10.676  18.852  0.00  0.00    +0.000 S 
ATOM     11  C   UNL     1       0.079  10.518  20.527  0.00  0.00    +0.000 A 
ATOM     12  C   UNL     1      -0.022   9.231  21.075  0.00  0.00    +0.000 A 
ATOM     13  C   UNL     1      -0.471   9.052  22.381  0.00  0.00    +0.000 A 
ATOM     14  C   UNL     1      -0.797  10.158  23.157  0.00  0.00    +0.000 A 
ATOM     15  C   UNL     1      -0.705  11.442  22.614  0.00  0.00    +0.000 A 
ATOM     16  C   UNL     1      -0.313  11.640  21.277  0.00  0.00    +0.000 A 
ENDROOT
BRANCH   1  20
ATOM     17  C   UNL     1      -5.303  12.703  22.268  0.00  0.00    +0.000 A 
ATOM     18  C   UNL     1      -4.386  13.204  23.190  0.00  0.00    +0.000 A 
ATOM     19  C   UNL     1      -3.078  13.512  22.807  0.00  0.00    +0.000 A 
ATOM     20  C   UNL     1      -2.692  13.415  21.469  0.00  0.00    +0.000 A 
ATOM     21  C   UNL     1      -3.575  12.847  20.540  0.00  0.00    +0.000 A 
ATOM     22  C   UNL     1      -4.874  12.496  20.942  0.00  0.00    +0.000 A 
ATOM     23 CL   UNL     1      -5.930  11.826  19.749  0.00  0.00    +0.000 Cl
BRANCH  17  24
ATOM     24  O   UNL     1      -6.609  12.407  22.582  0.00  0.00    +0.000 OA
BRANCH  24  26
ATOM     25  C   UNL     1      -7.913  13.824  24.049  0.00  0.00    +0.000 C 
ATOM     26  C   UNL     1      -6.992  12.625  23.942  0.00  0.00    +0.000 C 
ENDBRANCH  24  26
ENDBRANCH  17  24
ENDBRANCH   1  20
TORSDOF 3
ENDMDL
MODEL 2
REMARK VINA RESULT:      -6.4      1.344      1.624
REMARK  Name = 
REMARK  4 active torsions:
REMARK  status: ('A' for Active; 'I' for Inactive)
REMARK    1  A    between atoms: C_1  and  C_2
REMARK    2  A    between atoms: C_2  and  O_3
REMARK    3  A    between atoms: O_3  and  C_4
REMARK    4  A    between atoms: C_7  and  C_8
REMARK                            x       y       z     vdW  Elec       q    Type
REMARK                         _______ _______ _______ _____ _____    ______ ____
ROOT
ATOM      1  C   UNL     1      -1.372  14.252  20.503  0.00  0.00    +0.000 C 
ATOM      2  O   UNL     1      -1.293  15.448  20.217  0.00  0.00    +0.000 OA
ATOM      3  N   UNL     1      -0.321  13.300  20.411  0.00  0.00    +0.000 N 
ATOM      4  C   UNL     1       0.866  13.555  19.637  0.00  0.00    +0.000 A 
ATOM      5  C   UNL     1       1.419  14.842  19.558  0.00  0.00    +0.000 A 
ATOM      6  C   UNL     1       2.602  15.084  18.851  0.00  0.00    +0.000 A 
ATOM      7  C   UNL     1       3.243  14.047  18.182  0.00  0.00    +0.000 A 
ATOM      8  C   UNL     1       2.703  12.766  18.225  0.00  0.00    +0.000 A 
ATOM      9  C   UNL     1       1.532  12.514  18.956  0.00  0.00    +0.000 A 
ATOM     10  S   UNL     1       0.898  10.850  18.944  0.00  0.00    +0.000 S 
ATOM     11  C   UNL     1       0.158  10.862  20.556  0.00  0.00    +0.000 A 
ATOM     12  C   UNL     1       0.017   9.641  21.231  0.00  0.00    +0.000 A 
ATOM     13  C   UNL     1      -0.569   9.594  22.494  0.00  0.00    +0.000 A 
ATOM     14  C   UNL     1      -0.995  10.770  23.102  0.00  0.00    +0.000 A 
ATOM     15  C   UNL     1      -0.864  11.988  22.430  0.00  0.00    +0.000 A 
ATOM     16  C   UNL     1      -0.330  12.049  21.129  0.00  0.00    +0.000 A 
ENDROOT
BRANCH   1  20
ATOM     17  C   UNL     1      -5.211  12.675  21.688  0.00  0.00    +0.000 A 
ATOM     18  C   UNL     1      -4.617  12.278  20.491  0.00  0.00    +0.000 A 
ATOM     19  C   UNL     1      -3.419  12.852  20.059  0.00  0.00    +0.000 A 
ATOM     20  C   UNL     1      -2.743  13.768  20.866  0.00  0.00    +0.000 A 
ATOM     21  C   UNL     1      -3.357  14.234  22.037  0.00  0.00    +0.000 A 
ATOM     22  C   UNL     1      -4.584  13.685  22.443  0.00  0.00    +0.000 A 
ATOM     23 CL   UNL     1      -5.282  14.276  23.909  0.00  0.00    +0.000 Cl
BRANCH  17  24
ATOM     24  O   UNL     1      -6.375  12.126  22.175  0.00  0.00    +0.000 OA
BRANCH  24  26
ATOM     25  C   UNL     1      -7.916  13.656  21.105  0.00  0.00    +0.000 C 
ATOM     26  C   UNL     1      -7.515  12.209  21.317  0.00  0.00    +0.000 C 
ENDBRANCH  24  26
ENDBRANCH  17  24
ENDBRANCH   1  20
TORSDOF 3
ENDMDL
MODEL 3
REMARK VINA RESULT:      -6.3      2.988      4.533
REMARK  Name = 
REMARK  4 active torsions:
REMARK  status: ('A' for Active; 'I' for Inactive)
REMARK    1  A    between atoms: C_1  and  C_2
REMARK    2  A    between atoms: C_2  and  O_3
REMARK    3  A    between atoms: O_3  and  C_4
REMARK    4  A    between atoms: C_7  and  C_8
REMARK                            x       y       z     vdW  Elec       q    Type
REMARK                         _______ _______ _______ _____ _____    ______ ____
ROOT
ATOM      1  C   UNL     1      -4.015  12.772  20.263  0.00  0.00    +0.000 C 
ATOM      2  O   UNL     1      -5.169  12.643  19.849  0.00  0.00    +0.000 OA
ATOM      3  N   UNL     1      -2.832  12.427  19.557  0.00  0.00    +0.000 N 
ATOM      4  C   UNL     1      -2.860  11.558  18.409  0.00  0.00    +0.000 A 
ATOM      5  C   UNL     1      -3.930  11.587  17.502  0.00  0.00    +0.000 A 
ATOM      6  C   UNL     1      -3.936  10.782  16.358  0.00  0.00    +0.000 A 
ATOM      7  C   UNL     1      -2.885   9.907  16.110  0.00  0.00    +0.000 A 
ATOM      8  C   UNL     1      -1.823   9.842  17.006  0.00  0.00    +0.000 A 
ATOM      9  C   UNL     1      -1.799  10.668  18.141  0.00  0.00    +0.000 A 
ATOM     10  S   UNL     1      -0.412  10.506  19.246  0.00  0.00    +0.000 S 
ATOM     11  C   UNL     1      -0.369  12.183  19.824  0.00  0.00    +0.000 A 
ATOM     12  C   UNL     1       0.854  12.699  20.275  0.00  0.00    +0.000 A 
ATOM     13  C   UNL     1       0.939  14.005  20.752  0.00  0.00    +0.000 A 
ATOM     14  C   UNL     1      -0.193  14.813  20.757  0.00  0.00    +0.000 A 
ATOM     15  C   UNL     1      -1.415  14.301  20.317  0.00  0.00    +0.000 A 
ATOM     16  C   UNL     1      -1.535  12.966  19.889  0.00  0.00    +0.000 A 
ENDROOT
BRANCH   1  20
ATOM     17  C   UNL     1      -3.452  14.223  24.289  0.00  0.00    +0.000 A 
ATOM     18  C   UNL     1      -2.916  12.999  23.891  0.00  0.00    +0.000 A 
ATOM     19  C   UNL     1      -3.172  12.483  22.619  0.00  0.00    +0.000 A 
ATOM     20  C   UNL     1      -3.891  13.229  21.684  0.00  0.00    +0.000 A 
ATOM     21  C   UNL     1      -4.497  14.428  22.085  0.00  0.00    +0.000 A 
ATOM     22  C   UNL     1      -4.274  14.919  23.382  0.00  0.00    +0.000 A 
ATOM     23 CL   UNL     1      -5.023  16.416  23.813  0.00  0.00    +0.000 Cl
BRANCH  17  24
ATOM     24  O   UNL     1      -3.212  14.791  25.518  0.00  0.00    +0.000 OA
BRANCH  24  26
ATOM     25  C   UNL     1      -1.898  16.823  25.595  0.00  0.00    +0.000 C 
ATOM     26  C   UNL     1      -1.897  15.312  25.723  0.00  0.00    +0.000 C 
ENDBRANCH  24  26
ENDBRANCH  17  24
ENDBRANCH   1  20
TORSDOF 3
ENDMDL
MODEL 4
REMARK VINA RESULT:      -6.3      4.025      6.856
REMARK  Name = 
REMARK  4 active torsions:
REMARK  status: ('A' for Active; 'I' for Inactive)
REMARK    1  A    between atoms: C_1  and  C_2
REMARK    2  A    between atoms: C_2  and  O_3
REMARK    3  A    between atoms: O_3  and  C_4
REMARK    4  A    between atoms: C_7  and  C_8
REMARK                            x       y       z     vdW  Elec       q    Type
REMARK                         _______ _______ _______ _____ _____    ______ ____
ROOT
ATOM      1  C   UNL     1       1.187  12.155  18.810  0.00  0.00    +0.000 C 
ATOM      2  O   UNL     1       2.222  12.824  18.806  0.00  0.00    +0.000 OA
ATOM      3  N   UNL     1      -0.137  12.666  18.874  0.00  0.00    +0.000 N 
ATOM      4  C   UNL     1      -0.409  14.016  19.295  0.00  0.00    +0.000 A 
ATOM      5  C   UNL     1       0.462  15.068  18.971  0.00  0.00    +0.000 A 
ATOM      6  C   UNL     1       0.175  16.388  19.333  0.00  0.00    +0.000 A 
ATOM      7  C   UNL     1      -0.976  16.683  20.054  0.00  0.00    +0.000 A 
ATOM      8  C   UNL     1      -1.845  15.656  20.408  0.00  0.00    +0.000 A 
ATOM      9  C   UNL     1      -1.574  14.334  20.023  0.00  0.00    +0.000 A 
ATOM     10  S   UNL     1      -2.728  13.077  20.535  0.00  0.00    +0.000 S 
ATOM     11  C   UNL     1      -2.512  11.977  19.160  0.00  0.00    +0.000 A 
ATOM     12  C   UNL     1      -3.574  11.131  18.813  0.00  0.00    +0.000 A 
ATOM     13  C   UNL     1      -3.451  10.239  17.750  0.00  0.00    +0.000 A 
ATOM     14  C   UNL     1      -2.274  10.206  17.010  0.00  0.00    +0.000 A 
ATOM     15  C   UNL     1      -1.210  11.042  17.356  0.00  0.00    +0.000 A 
ATOM     16  C   UNL     1      -1.293  11.906  18.464  0.00  0.00    +0.000 A 
ENDROOT
BRANCH   1  20
ATOM     17  C   UNL     1       1.976   7.921  19.091  0.00  0.00    +0.000 A 
ATOM     18  C   UNL     1       2.294   8.630  17.933  0.00  0.00    +0.000 A 
ATOM     19  C   UNL     1       1.958   9.979  17.802  0.00  0.00    +0.000 A 
ATOM     20  C   UNL     1       1.383  10.671  18.869  0.00  0.00    +0.000 A 
ATOM     21  C   UNL     1       0.991   9.963  20.014  0.00  0.00    +0.000 A 
ATOM     22  C   UNL     1       1.291   8.595  20.120  0.00  0.00    +0.000 A 
ATOM     23 CL   UNL     1       0.809   7.778  21.564  0.00  0.00    +0.000 Cl
BRANCH  17  24
ATOM     24  O   UNL     1       2.305   6.600  19.285  0.00  0.00    +0.000 OA
BRANCH  24  26
ATOM     25  C   UNL     1       1.888   4.675  17.876  0.00  0.00    +0.000 C 
ATOM     26  C   UNL     1       2.760   5.890  18.130  0.00  0.00    +0.000 C 
ENDBRANCH  24  26
ENDBRANCH  17  24
ENDBRANCH   1  20
TORSDOF 3
ENDMDL
MODEL 5
REMARK VINA RESULT:      -6.3      1.032      1.114
REMARK  Name = 
REMARK  4 active torsions:
REMARK  status: ('A' for Active; 'I' for Inactive)
REMARK    1  A    between atoms: C_1  and  C_2
REMARK    2  A    between atoms: C_2  and  O_3
REMARK    3  A    between atoms: O_3  and  C_4
REMARK    4  A    between atoms: C_7  and  C_8
REMARK                            x       y       z     vdW  Elec       q    Type
REMARK                         _______ _______ _______ _____ _____    ______ ____
ROOT
ATOM      1  C   UNL     1      -0.945  13.928  22.296  0.00  0.00    +0.000 C 
ATOM      2  O   UNL     1      -0.788  15.104  22.628  0.00  0.00    +0.000 OA
ATOM      3  N   UNL     1       0.023  13.103  21.663  0.00  0.00    +0.000 N 
ATOM      4  C   UNL     1       1.186  13.657  21.018  0.00  0.00    +0.000 A 
ATOM      5  C   UNL     1       1.832  14.790  21.535  0.00  0.00    +0.000 A 
ATOM      6  C   UNL     1       2.993  15.300  20.942  0.00  0.00    +0.000 A 
ATOM      7  C   UNL     1       3.516  14.704  19.801  0.00  0.00    +0.000 A 
ATOM      8  C   UNL     1       2.881  13.593  19.254  0.00  0.00    +0.000 A 
ATOM      9  C   UNL     1       1.733  13.062  19.862  0.00  0.00    +0.000 A 
ATOM     10  S   UNL     1       0.972  11.651  19.087  0.00  0.00    +0.000 S 
ATOM     11  C   UNL     1       0.319  10.895  20.553  0.00  0.00    +0.000 A 
ATOM     12  C   UNL     1       0.118   9.507  20.552  0.00  0.00    +0.000 A 
ATOM     13  C   UNL     1      -0.405   8.866  21.672  0.00  0.00    +0.000 A 
ATOM     14  C   UNL     1      -0.706   9.604  22.812  0.00  0.00    +0.000 A 
ATOM     15  C   UNL     1      -0.515  10.987  22.816  0.00  0.00    +0.000 A 
ATOM     16  C   UNL     1      -0.046  11.662  21.673  0.00  0.00    +0.000 A 
ENDROOT
BRANCH   1  20
ATOM     17  C   UNL     1      -5.017  12.608  22.848  0.00  0.00    +0.000 A 
ATOM     18  C   UNL     1      -4.173  12.790  23.943  0.00  0.00    +0.000 A 
ATOM     19  C   UNL     1      -2.830  13.129  23.765  0.00  0.00    +0.000 A 
ATOM     20  C   UNL     1      -2.328  13.386  22.488  0.00  0.00    +0.000 A 
ATOM     21  C   UNL     1      -3.140  13.140  21.371  0.00  0.00    +0.000 A 
ATOM     22  C   UNL     1      -4.477  12.755  21.556  0.00  0.00    +0.000 A 
ATOM     23 CL   UNL     1      -5.439  12.492  20.145  0.00  0.00    +0.000 Cl
BRANCH  17  24
ATOM     24  O   UNL     1      -6.353  12.300  22.965  0.00  0.00    +0.000 OA
BRANCH  24  26
ATOM     25  C   UNL     1      -7.599  14.167  23.872  0.00  0.00    +0.000 C 
ATOM     26  C   UNL     1      -7.011  12.794  24.134  0.00  0.00    +0.000 C 
ENDBRANCH  24  26
ENDBRANCH  17  24
ENDBRANCH   1  20
TORSDOF 3
ENDMDL
MODEL 6
REMARK VINA RESULT:      -6.2      1.972      2.611
REMARK  Name = 
REMARK  4 active torsions:
REMARK  status: ('A' for Active; 'I' for Inactive)
REMARK    1  A    between atoms: C_1  and  C_2
REMARK    2  A    between atoms: C_2  and  O_3
REMARK    3  A    between atoms: O_3  and  C_4
REMARK    4  A    between atoms: C_7  and  C_8
REMARK                            x       y       z     vdW  Elec       q    Type
REMARK                         _______ _______ _______ _____ _____    ______ ____
ROOT
ATOM      1  C   UNL     1      -0.139  14.224  22.263  0.00  0.00    +0.000 C 
ATOM      2  O   UNL     1       0.093  15.178  23.006  0.00  0.00    +0.000 OA
ATOM      3  N   UNL     1       0.799  13.581  21.411  0.00  0.00    +0.000 N 
ATOM      4  C   UNL     1       2.050  14.201  21.057  0.00  0.00    +0.000 A 
ATOM      5  C   UNL     1       2.752  14.997  21.976  0.00  0.00    +0.000 A 
ATOM      6  C   UNL     1       3.992  15.558  21.654  0.00  0.00    +0.000 A 
ATOM      7  C   UNL     1       4.547  15.358  20.395  0.00  0.00    +0.000 A 
ATOM      8  C   UNL     1       3.861  14.592  19.458  0.00  0.00    +0.000 A 
ATOM      9  C   UNL     1       2.629  14.005  19.786  0.00  0.00    +0.000 A 
ATOM     10  S   UNL     1       1.810  13.055  18.522  0.00  0.00    +0.000 S 
ATOM     11  C   UNL     1       0.986  11.899  19.585  0.00  0.00    +0.000 A 
ATOM     12  C   UNL     1       0.667  10.634  19.071  0.00  0.00    +0.000 A 
ATOM     13  C   UNL     1       0.008   9.694  19.861  0.00  0.00    +0.000 A 
ATOM     14  C   UNL     1      -0.313  10.003  21.178  0.00  0.00    +0.000 A 
ATOM     15  C   UNL     1      -0.004  11.264  21.692  0.00  0.00    +0.000 A 
ATOM     16  C   UNL     1       0.605  12.249  20.892  0.00  0.00    +0.000 A 
ENDROOT
BRANCH   1  20
ATOM     17  C   UNL     1      -4.195  12.768  22.018  0.00  0.00    +0.000 A 
ATOM     18  C   UNL     1      -3.549  13.270  20.889  0.00  0.00    +0.000 A 
ATOM     19  C   UNL     1      -2.271  13.826  20.981  0.00  0.00    +0.000 A 
ATOM     20  C   UNL     1      -1.574  13.801  22.190  0.00  0.00    +0.000 A 
ATOM     21  C   UNL     1      -2.231  13.366  23.350  0.00  0.00    +0.000 A 
ATOM     22  C   UNL     1      -3.534  12.851  23.258  0.00  0.00    +0.000 A 
ATOM     23 CL   UNL     1      -4.285  12.304  24.716  0.00  0.00    +0.000 Cl
BRANCH  17  24
ATOM     24  O   UNL     1      -5.441  12.186  21.982  0.00  0.00    +0.000 OA
BRANCH  24  26
ATOM     25  C   UNL     1      -7.010  11.143  20.461  0.00  0.00    +0.000 C 
ATOM     26  C   UNL     1      -6.188  12.378  20.778  0.00  0.00    +0.000 C 
ENDBRANCH  24  26
ENDBRANCH  17  24
ENDBRANCH   1  20
TORSDOF 3
ENDMDL
MODEL 7
REMARK VINA RESULT:      -6.1      3.348      7.213
REMARK  Name = 
REMARK  4 active torsions:
REMARK  status: ('A' for Active; 'I' for Inactive)
REMARK    1  A    between atoms: C_1  and  C_2
REMARK    2  A    between atoms: C_2  and  O_3
REMARK    3  A    between atoms: O_3  and  C_4
REMARK    4  A    between atoms: C_7  and  C_8
REMARK                            x       y       z     vdW  Elec       q    Type
REMARK                         _______ _______ _______ _____ _____    ______ ____
ROOT
ATOM      1  C   UNL     1      -1.701  12.196  18.452  0.00  0.00    +0.000 C 
ATOM      2  O   UNL     1      -1.817  11.688  17.336  0.00  0.00    +0.000 OA
ATOM      3  N   UNL     1      -2.720  12.288  19.437  0.00  0.00    +0.000 N 
ATOM      4  C   UNL     1      -4.111  12.109  19.109  0.00  0.00    +0.000 A 
ATOM      5  C   UNL     1      -4.513  11.182  18.134  0.00  0.00    +0.000 A 
ATOM      6  C   UNL     1      -5.866  10.967  17.849  0.00  0.00    +0.000 A 
ATOM      7  C   UNL     1      -6.846  11.694  18.513  0.00  0.00    +0.000 A 
ATOM      8  C   UNL     1      -6.474  12.635  19.468  0.00  0.00    +0.000 A 
ATOM      9  C   UNL     1      -5.119  12.835  19.776  0.00  0.00    +0.000 A 
ATOM     10  S   UNL     1      -4.728  14.072  20.996  0.00  0.00    +0.000 S 
ATOM     11  C   UNL     1      -3.256  13.319  21.639  0.00  0.00    +0.000 A 
ATOM     12  C   UNL     1      -2.886  13.607  22.960  0.00  0.00    +0.000 A 
ATOM     13  C   UNL     1      -1.731  13.052  23.509  0.00  0.00    +0.000 A 
ATOM     14  C   UNL     1      -0.954  12.186  22.748  0.00  0.00    +0.000 A 
ATOM     15  C   UNL     1      -1.314  11.903  21.429  0.00  0.00    +0.000 A 
ATOM     16  C   UNL     1      -2.442  12.501  20.837  0.00  0.00    +0.000 A 
ENDROOT
BRANCH   1  20
ATOM     17  C   UNL     1       2.104  14.169  18.962  0.00  0.00    +0.000 A 
ATOM     18  C   UNL     1       2.026  12.779  18.893  0.00  0.00    +0.000 A 
ATOM     19  C   UNL     1       0.790  12.132  18.820  0.00  0.00    +0.000 A 
ATOM     20  C   UNL     1      -0.390  12.870  18.716  0.00  0.00    +0.000 A 
ATOM     21  C   UNL     1      -0.339  14.265  18.854  0.00  0.00    +0.000 A 
ATOM     22  C   UNL     1       0.904  14.906  18.974  0.00  0.00    +0.000 A 
ATOM     23 CL   UNL     1       0.908  16.629  19.114  0.00  0.00    +0.000 Cl
BRANCH  17  24
ATOM     24  O   UNL     1       3.292  14.860  19.009  0.00  0.00    +0.000 OA
BRANCH  24  26
ATOM     25  C   UNL     1       5.407  14.723  17.838  0.00  0.00    +0.000 C 
ATOM     26  C   UNL     1       3.937  15.086  17.753  0.00  0.00    +0.000 C 
ENDBRANCH  24  26
ENDBRANCH  17  24
ENDBRANCH   1  20
TORSDOF 3
ENDMDL
MODEL 8
REMARK VINA RESULT:      -6.0      3.163      4.994
REMARK  Name = 
REMARK  4 active torsions:
REMARK  status: ('A' for Active; 'I' for Inactive)
REMARK    1  A    between atoms: C_1  and  C_2
REMARK    2  A    between atoms: C_2  and  O_3
REMARK    3  A    between atoms: O_3  and  C_4
REMARK    4  A    between atoms: C_7  and  C_8
REMARK                            x       y       z     vdW  Elec       q    Type
REMARK                         _______ _______ _______ _____ _____    ______ ____
ROOT
ATOM      1  C   UNL     1      -3.039  13.007  20.175  0.00  0.00    +0.000 C 
ATOM      2  O   UNL     1      -4.267  12.943  20.094  0.00  0.00    +0.000 OA
ATOM      3  N   UNL     1      -2.111  12.507  19.223  0.00  0.00    +0.000 N 
ATOM      4  C   UNL     1      -2.499  11.554  18.216  0.00  0.00    +0.000 A 
ATOM      5  C   UNL     1      -3.770  11.600  17.622  0.00  0.00    +0.000 A 
ATOM      6  C   UNL     1      -4.131  10.709  16.606  0.00  0.00    +0.000 A 
ATOM      7  C   UNL     1      -3.239   9.731  16.181  0.00  0.00    +0.000 A 
ATOM      8  C   UNL     1      -1.982   9.649  16.769  0.00  0.00    +0.000 A 
ATOM      9  C   UNL     1      -1.605  10.558  17.769  0.00  0.00    +0.000 A 
ATOM     10  S   UNL     1       0.016  10.370  18.483  0.00  0.00    +0.000 S 
ATOM     11  C   UNL     1       0.313  12.078  18.859  0.00  0.00    +0.000 A 
ATOM     12  C   UNL     1       1.642  12.523  18.920  0.00  0.00    +0.000 A 
ATOM     13  C   UNL     1       1.930  13.852  19.225  0.00  0.00    +0.000 A 
ATOM     14  C   UNL     1       0.891  14.750  19.445  0.00  0.00    +0.000 A 
ATOM     15  C   UNL     1      -0.433  14.310  19.393  0.00  0.00    +0.000 A 
ATOM     16  C   UNL     1      -0.743  12.959  19.147  0.00  0.00    +0.000 A 
ENDROOT
BRANCH   1  20
ATOM     17  C   UNL     1      -1.299  14.670  23.758  0.00  0.00    +0.000 A 
ATOM     18  C   UNL     1      -1.221  13.303  23.497  0.00  0.00    +0.000 A 
ATOM     19  C   UNL     1      -1.860  12.747  22.387  0.00  0.00    +0.000 A 
ATOM     20  C   UNL     1      -2.510  13.565  21.462  0.00  0.00    +0.000 A 
ATOM     21  C   UNL     1      -2.661  14.931  21.742  0.00  0.00    +0.000 A 
ATOM     22  C   UNL     1      -2.055  15.475  22.885  0.00  0.00    +0.000 A 
ATOM     23 CL   UNL     1      -2.250  17.170  23.166  0.00  0.00    +0.000 Cl
BRANCH  17  24
ATOM     24  O   UNL     1      -0.669  15.275  24.821  0.00  0.00    +0.000 OA
BRANCH  24  26
ATOM     25  C   UNL     1      -0.845  16.637  26.815  0.00  0.00    +0.000 C 
ATOM     26  C   UNL     1      -1.492  15.571  25.952  0.00  0.00    +0.000 C 
ENDBRANCH  24  26
ENDBRANCH  17  24
ENDBRANCH   1  20
TORSDOF 3
ENDMDL
MODEL 9
REMARK VINA RESULT:      -6.0      3.877      5.369
REMARK  Name = 
REMARK  4 active torsions:
REMARK  status: ('A' for Active; 'I' for Inactive)
REMARK    1  A    between atoms: C_1  and  C_2
REMARK    2  A    between atoms: C_2  and  O_3
REMARK    3  A    between atoms: O_3  and  C_4
REMARK    4  A    between atoms: C_7  and  C_8
REMARK                            x       y       z     vdW  Elec       q    Type
REMARK                         _______ _______ _______ _____ _____    ______ ____
ROOT
ATOM      1  C   UNL     1      -2.649  12.837  20.280  0.00  0.00    +0.000 C 
ATOM      2  O   UNL     1      -1.455  12.539  20.221  0.00  0.00    +0.000 OA
ATOM      3  N   UNL     1      -3.692  12.263  19.505  0.00  0.00    +0.000 N 
ATOM      4  C   UNL     1      -3.420  11.510  18.308  0.00  0.00    +0.000 A 
ATOM      5  C   UNL     1      -2.285  10.692  18.207  0.00  0.00    +0.000 A 
ATOM      6  C   UNL     1      -2.045   9.918  17.066  0.00  0.00    +0.000 A 
ATOM      7  C   UNL     1      -2.921   9.967  15.989  0.00  0.00    +0.000 A 
ATOM      8  C   UNL     1      -4.042  10.788  16.054  0.00  0.00    +0.000 A 
ATOM      9  C   UNL     1      -4.301  11.545  17.207  0.00  0.00    +0.000 A 
ATOM     10  S   UNL     1      -5.748  12.584  17.200  0.00  0.00    +0.000 S 
ATOM     11  C   UNL     1      -6.102  12.514  18.937  0.00  0.00    +0.000 A 
ATOM     12  C   UNL     1      -7.428  12.705  19.352  0.00  0.00    +0.000 A 
ATOM     13  C   UNL     1      -7.757  12.673  20.706  0.00  0.00    +0.000 A 
ATOM     14  C   UNL     1      -6.768  12.425  21.651  0.00  0.00    +0.000 A 
ATOM     15  C   UNL     1      -5.445  12.242  21.243  0.00  0.00    +0.000 A 
ATOM     16  C   UNL     1      -5.082  12.332  19.886  0.00  0.00    +0.000 A 
ENDROOT
BRANCH   1  20
ATOM     17  C   UNL     1      -3.833  16.068  22.886  0.00  0.00    +0.000 A 
ATOM     18  C   UNL     1      -3.907  16.206  21.501  0.00  0.00    +0.000 A 
ATOM     19  C   UNL     1      -3.441  15.200  20.653  0.00  0.00    +0.000 A 
ATOM     20  C   UNL     1      -2.978  13.991  21.177  0.00  0.00    +0.000 A 
ATOM     21  C   UNL     1      -2.829  13.859  22.565  0.00  0.00    +0.000 A 
ATOM     22  C   UNL     1      -3.258  14.894  23.410  0.00  0.00    +0.000 A 
ATOM     23 CL   UNL     1      -3.076  14.666  25.114  0.00  0.00    +0.000 Cl
BRANCH  17  24
ATOM     24  O   UNL     1      -4.301  17.014  23.768  0.00  0.00    +0.000 OA
BRANCH  24  26
ATOM     25  C   UNL     1      -6.590  16.227  23.807  0.00  0.00    +0.000 C 
ATOM     26  C   UNL     1      -5.664  17.410  23.600  0.00  0.00    +0.000 C 
ENDBRANCH  24  26
ENDBRANCH  17  24
ENDBRANCH   1  20
TORSDOF 3
ENDMDL
