MODEL 1
REMARK VINA RESULT:      -7.4      0.000      0.000
REMARK  Name = 
REMARK  7 active torsions:
REMARK  status: ('A' for Active; 'I' for Inactive)
REMARK    1  A    between atoms: C_1  and  C_2
REMARK    2  A    between atoms: C_6  and  C_7
REMARK    3  A    between atoms: C_12  and  N_13
REMARK    4  A    between atoms: N_14  and  C_15
REMARK    5  A    between atoms: C_18  and  C_19
REMARK    6  A    between atoms: C_19  and  N_20
REMARK    7  A    between atoms: C_25  and  C_26
REMARK                            x       y       z     vdW  Elec       q    Type
REMARK                         _______ _______ _______ _____ _____    ______ ____
ROOT
ATOM      1  C   UNL     1       0.252  10.719  19.287  0.00  0.00    +0.000 C 
ATOM      2  C   UNL     1       1.162   9.529  19.134  0.00  0.00    +0.000 A 
ATOM      3  C   UNL     1       1.998   9.422  17.998  0.00  0.00    +0.000 A 
ATOM      4  C   UNL     1       2.797   8.294  17.888  0.00  0.00    +0.000 A 
ATOM      5  N   UNL     1       3.641   7.964  16.899  0.00  0.00    +0.000 NA
ATOM      6  C   UNL     1       4.126   6.743  17.258  0.00  0.00    +0.000 A 
ATOM      7  N   UNL     1       3.583   6.304  18.449  0.00  0.00    +0.000 N 
ATOM      8  C   UNL     1       2.781   7.316  18.824  0.00  0.00    +0.000 A 
ATOM      9  N   UNL     1       1.994   7.396  19.930  0.00  0.00    +0.000 NA
ATOM     10  C   UNL     1       1.195   8.492  20.116  0.00  0.00    +0.000 A 
ATOM     11  C   UNL     1       0.373   8.578  21.367  0.00  0.00    +0.000 C 
ENDROOT
BRANCH   6  12
ATOM     12  C   UNL     1       5.150   6.015  16.431  0.00  0.00    +0.000 A 
ATOM     13  C   UNL     1       4.741   4.923  15.630  0.00  0.00    +0.000 A 
ATOM     14  C   UNL     1       5.631   4.283  14.772  0.00  0.00    +0.000 A 
ATOM     15  C   UNL     1       6.951   4.702  14.732  0.00  0.00    +0.000 A 
ATOM     16  N   UNL     1       7.366   5.701  15.551  0.00  0.00    +0.000 NA
ATOM     17  C   UNL     1       6.530   6.361  16.400  0.00  0.00    +0.000 A 
BRANCH  17  18
ATOM     18  N   UNL     1       7.087   7.410  17.177  0.00  0.00    +0.000 N 
ATOM     19  H   UNL     1       6.561   7.771  17.984  0.00  0.00    +0.000 HD
ATOM     20  H   UNL     1       7.996   7.843  16.984  0.00  0.00    +0.000 HD
ENDBRANCH  17  18
ENDBRANCH   6  12
BRANCH   7  21
ATOM     21  C   UNL     1       3.731   5.029  19.138  0.00  0.00    +0.000 A 
ATOM     22  C   UNL     1       2.657   4.448  19.838  0.00  0.00    +0.000 A 
ATOM     23  C   UNL     1       2.822   3.240  20.525  0.00  0.00    +0.000 A 
ATOM     24  C   UNL     1       4.062   2.586  20.528  0.00  0.00    +0.000 A 
ATOM     25  C   UNL     1       5.124   3.135  19.805  0.00  0.00    +0.000 A 
ATOM     26  C   UNL     1       4.955   4.327  19.105  0.00  0.00    +0.000 A 
BRANCH  24  27
ATOM     27  C   UNL     1       4.261   1.310  21.297  0.00  0.00    +0.000 C 
BRANCH  27  28
ATOM     28  N   UNL     1       5.658   1.171  21.699  0.00  0.00    +0.000 NA
ATOM     29  H   UNL     1       6.181   2.032  21.420  0.00  0.00    +0.000 HD
ATOM     30  H   UNL     1       6.067   0.356  21.192  0.00  0.00    +0.000 HD
ENDBRANCH  27  28
ENDBRANCH  24  27
ENDBRANCH   7  21
TORSDOF 5
ENDMDL
MODEL 2
REMARK VINA RESULT:      -7.1      2.478      7.236
REMARK  Name = 
REMARK  7 active torsions:
REMARK  status: ('A' for Active; 'I' for Inactive)
REMARK    1  A    between atoms: C_1  and  C_2
REMARK    2  A    between atoms: C_6  and  C_7
REMARK    3  A    between atoms: C_12  and  N_13
REMARK    4  A    between atoms: N_14  and  C_15
REMARK    5  A    between atoms: C_18  and  C_19
REMARK    6  A    between atoms: C_19  and  N_20
REMARK    7  A    between atoms: C_25  and  C_26
REMARK                            x       y       z     vdW  Elec       q    Type
REMARK                         _______ _______ _______ _____ _____    ______ ____
ROOT
ATOM      1  C   UNL     1       6.686   3.411  11.538  0.00  0.00    +0.000 C 
ATOM      2  C   UNL     1       6.607   4.027  12.910  0.00  0.00    +0.000 A 
ATOM      3  C   UNL     1       5.505   3.738  13.750  0.00  0.00    +0.000 A 
ATOM      4  C   UNL     1       5.463   4.350  14.994  0.00  0.00    +0.000 A 
ATOM      5  N   UNL     1       4.518   4.252  15.939  0.00  0.00    +0.000 NA
ATOM      6  C   UNL     1       4.936   5.089  16.929  0.00  0.00    +0.000 A 
ATOM      7  N   UNL     1       6.121   5.718  16.602  0.00  0.00    +0.000 N 
ATOM      8  C   UNL     1       6.432   5.205  15.399  0.00  0.00    +0.000 A 
ATOM      9  N   UNL     1       7.505   5.495  14.617  0.00  0.00    +0.000 NA
ATOM     10  C   UNL     1       7.624   4.909  13.385  0.00  0.00    +0.000 A 
ATOM     11  C   UNL     1       8.841   5.209  12.561  0.00  0.00    +0.000 C 
ENDROOT
BRANCH   6  12
ATOM     12  C   UNL     1       4.171   5.253  18.213  0.00  0.00    +0.000 A 
ATOM     13  C   UNL     1       3.349   6.390  18.388  0.00  0.00    +0.000 A 
ATOM     14  C   UNL     1       2.546   6.535  19.516  0.00  0.00    +0.000 A 
ATOM     15  C   UNL     1       2.584   5.563  20.501  0.00  0.00    +0.000 A 
ATOM     16  N   UNL     1       3.424   4.506  20.374  0.00  0.00    +0.000 NA
ATOM     17  C   UNL     1       4.222   4.318  19.286  0.00  0.00    +0.000 A 
BRANCH  17  18
ATOM     18  N   UNL     1       5.029   3.152  19.264  0.00  0.00    +0.000 N 
ATOM     19  H   UNL     1       5.084   2.562  20.105  0.00  0.00    +0.000 HD
ATOM     20  H   UNL     1       5.575   2.851  18.450  0.00  0.00    +0.000 HD
ENDBRANCH  17  18
ENDBRANCH   6  12
BRANCH   7  21
ATOM     21  C   UNL     1       6.858   6.759  17.306  0.00  0.00    +0.000 A 
ATOM     22  C   UNL     1       6.704   8.117  16.969  0.00  0.00    +0.000 A 
ATOM     23  C   UNL     1       7.444   9.105  17.629  0.00  0.00    +0.000 A 
ATOM     24  C   UNL     1       8.353   8.759  18.638  0.00  0.00    +0.000 A 
ATOM     25  C   UNL     1       8.487   7.418  19.005  0.00  0.00    +0.000 A 
ATOM     26  C   UNL     1       7.736   6.436  18.363  0.00  0.00    +0.000 A 
BRANCH  24  27
ATOM     27  C   UNL     1       9.184   9.808  19.323  0.00  0.00    +0.000 C 
BRANCH  27  28
ATOM     28  N   UNL     1       9.482  10.902  18.404  0.00  0.00    +0.000 NA
ATOM     29  H   UNL     1      10.338  11.403  18.734  0.00  0.00    +0.000 HD
ATOM     30  H   UNL     1       8.681  11.571  18.417  0.00  0.00    +0.000 HD
ENDBRANCH  27  28
ENDBRANCH  24  27
ENDBRANCH   7  21
TORSDOF 5
ENDMDL
MODEL 3
REMARK VINA RESULT:      -6.8      1.447      1.525
REMARK  Name = 
REMARK  7 active torsions:
REMARK  status: ('A' for Active; 'I' for Inactive)
REMARK    1  A    between atoms: C_1  and  C_2
REMARK    2  A    between atoms: C_6  and  C_7
REMARK    3  A    between atoms: C_12  and  N_13
REMARK    4  A    between atoms: N_14  and  C_15
REMARK    5  A    between atoms: C_18  and  C_19
REMARK    6  A    between atoms: C_19  and  N_20
REMARK    7  A    between atoms: C_25  and  C_26
REMARK                            x       y       z     vdW  Elec       q    Type
REMARK                         _______ _______ _______ _____ _____    ______ ____
ROOT
ATOM      1  C   UNL     1       0.379  11.776  18.747  0.00  0.00    +0.000 C 
ATOM      2  C   UNL     1       1.065  10.436  18.783  0.00  0.00    +0.000 A 
ATOM      3  C   UNL     1       2.072  10.135  17.836  0.00  0.00    +0.000 A 
ATOM      4  C   UNL     1       2.656   8.878  17.893  0.00  0.00    +0.000 A 
ATOM      5  N   UNL     1       3.601   8.361  17.093  0.00  0.00    +0.000 NA
ATOM      6  C   UNL     1       3.773   7.088  17.547  0.00  0.00    +0.000 A 
ATOM      7  N   UNL     1       2.936   6.803  18.608  0.00  0.00    +0.000 N 
ATOM      8  C   UNL     1       2.278   7.957  18.811  0.00  0.00    +0.000 A 
ATOM      9  N   UNL     1       1.318   8.222  19.737  0.00  0.00    +0.000 NA
ATOM     10  C   UNL     1       0.715   9.451  19.756  0.00  0.00    +0.000 A 
ATOM     11  C   UNL     1      -0.306   9.735  20.817  0.00  0.00    +0.000 C 
ENDROOT
BRANCH   6  12
ATOM     12  C   UNL     1       4.786   6.154  16.944  0.00  0.00    +0.000 A 
ATOM     13  C   UNL     1       4.380   4.861  16.542  0.00  0.00    +0.000 A 
ATOM     14  C   UNL     1       5.256   3.999  15.888  0.00  0.00    +0.000 A 
ATOM     15  C   UNL     1       6.560   4.406  15.661  0.00  0.00    +0.000 A 
ATOM     16  N   UNL     1       6.976   5.617  16.107  0.00  0.00    +0.000 NA
ATOM     17  C   UNL     1       6.153   6.497  16.745  0.00  0.00    +0.000 A 
BRANCH  17  18
ATOM     18  N   UNL     1       6.708   7.744  17.131  0.00  0.00    +0.000 N 
ATOM     19  H   UNL     1       6.160   8.603  16.988  0.00  0.00    +0.000 HD
ATOM     20  H   UNL     1       7.638   7.851  17.549  0.00  0.00    +0.000 HD
ENDBRANCH  17  18
ENDBRANCH   6  12
BRANCH   7  21
ATOM     21  C   UNL     1       2.710   5.552  19.318  0.00  0.00    +0.000 A 
ATOM     22  C   UNL     1       1.476   4.878  19.235  0.00  0.00    +0.000 A 
ATOM     23  C   UNL     1       1.259   3.695  19.949  0.00  0.00    +0.000 A 
ATOM     24  C   UNL     1       2.268   3.158  20.761  0.00  0.00    +0.000 A 
ATOM     25  C   UNL     1       3.508   3.798  20.821  0.00  0.00    +0.000 A 
ATOM     26  C   UNL     1       3.731   4.965  20.095  0.00  0.00    +0.000 A 
BRANCH  24  27
ATOM     27  C   UNL     1       2.031   1.911  21.566  0.00  0.00    +0.000 C 
BRANCH  27  28
ATOM     28  N   UNL     1       0.977   2.134  22.552  0.00  0.00    +0.000 NA
ATOM     29  H   UNL     1       0.222   2.715  22.120  0.00  0.00    +0.000 HD
ATOM     30  H   UNL     1       1.382   2.662  23.355  0.00  0.00    +0.000 HD
ENDBRANCH  27  28
ENDBRANCH  24  27
ENDBRANCH   7  21
TORSDOF 5
ENDMDL
MODEL 4
REMARK VINA RESULT:      -6.8      1.885      4.900
REMARK  Name = 
REMARK  7 active torsions:
REMARK  status: ('A' for Active; 'I' for Inactive)
REMARK    1  A    between atoms: C_1  and  C_2
REMARK    2  A    between atoms: C_6  and  C_7
REMARK    3  A    between atoms: C_12  and  N_13
REMARK    4  A    between atoms: N_14  and  C_15
REMARK    5  A    between atoms: C_18  and  C_19
REMARK    6  A    between atoms: C_19  and  N_20
REMARK    7  A    between atoms: C_25  and  C_26
REMARK                            x       y       z     vdW  Elec       q    Type
REMARK                         _______ _______ _______ _____ _____    ______ ____
ROOT
ATOM      1  C   UNL     1       0.320  12.065  19.928  0.00  0.00    +0.000 C 
ATOM      2  C   UNL     1       0.937  10.729  19.610  0.00  0.00    +0.000 A 
ATOM      3  C   UNL     1       0.507   9.571  20.301  0.00  0.00    +0.000 A 
ATOM      4  C   UNL     1       1.125   8.368  19.992  0.00  0.00    +0.000 A 
ATOM      5  N   UNL     1       0.908   7.158  20.527  0.00  0.00    +0.000 NA
ATOM      6  C   UNL     1       1.810   6.345  19.911  0.00  0.00    +0.000 A 
ATOM      7  N   UNL     1       2.595   7.038  19.012  0.00  0.00    +0.000 N 
ATOM      8  C   UNL     1       2.114   8.292  19.070  0.00  0.00    +0.000 A 
ATOM      9  N   UNL     1       2.542   9.386  18.386  0.00  0.00    +0.000 NA
ATOM     10  C   UNL     1       1.961  10.603  18.623  0.00  0.00    +0.000 A 
ATOM     11  C   UNL     1       2.418  11.785  17.821  0.00  0.00    +0.000 C 
ENDROOT
BRANCH   6  12
ATOM     12  C   UNL     1       1.882   4.870  20.197  0.00  0.00    +0.000 A 
ATOM     13  C   UNL     1       2.251   4.434  21.490  0.00  0.00    +0.000 A 
ATOM     14  C   UNL     1       2.235   3.084  21.830  0.00  0.00    +0.000 A 
ATOM     15  C   UNL     1       1.885   2.150  20.869  0.00  0.00    +0.000 A 
ATOM     16  N   UNL     1       1.600   2.556  19.607  0.00  0.00    +0.000 NA
ATOM     17  C   UNL     1       1.596   3.865  19.230  0.00  0.00    +0.000 A 
BRANCH  17  18
ATOM     18  N   UNL     1       1.247   4.155  17.885  0.00  0.00    +0.000 N 
ATOM     19  H   UNL     1       0.264   4.074  17.593  0.00  0.00    +0.000 HD
ATOM     20  H   UNL     1       1.922   4.443  17.170  0.00  0.00    +0.000 HD
ENDBRANCH  17  18
ENDBRANCH   6  12
BRANCH   7  21
ATOM     21  C   UNL     1       3.740   6.596  18.226  0.00  0.00    +0.000 A 
ATOM     22  C   UNL     1       3.906   6.999  16.888  0.00  0.00    +0.000 A 
ATOM     23  C   UNL     1       4.992   6.540  16.133  0.00  0.00    +0.000 A 
ATOM     24  C   UNL     1       5.934   5.670  16.698  0.00  0.00    +0.000 A 
ATOM     25  C   UNL     1       5.799   5.294  18.036  0.00  0.00    +0.000 A 
ATOM     26  C   UNL     1       4.730   5.766  18.794  0.00  0.00    +0.000 A 
BRANCH  24  27
ATOM     27  C   UNL     1       7.080   5.138  15.883  0.00  0.00    +0.000 C 
BRANCH  27  28
ATOM     28  N   UNL     1       7.889   4.220  16.681  0.00  0.00    +0.000 NA
ATOM     29  H   UNL     1       8.193   3.421  16.079  0.00  0.00    +0.000 HD
ATOM     30  H   UNL     1       7.296   3.845  17.454  0.00  0.00    +0.000 HD
ENDBRANCH  27  28
ENDBRANCH  24  27
ENDBRANCH   7  21
TORSDOF 5
ENDMDL
MODEL 5
REMARK VINA RESULT:      -6.8      4.234      7.970
REMARK  Name = 
REMARK  7 active torsions:
REMARK  status: ('A' for Active; 'I' for Inactive)
REMARK    1  A    between atoms: C_1  and  C_2
REMARK    2  A    between atoms: C_6  and  C_7
REMARK    3  A    between atoms: C_12  and  N_13
REMARK    4  A    between atoms: N_14  and  C_15
REMARK    5  A    between atoms: C_18  and  C_19
REMARK    6  A    between atoms: C_19  and  N_20
REMARK    7  A    between atoms: C_25  and  C_26
REMARK                            x       y       z     vdW  Elec       q    Type
REMARK                         _______ _______ _______ _____ _____    ______ ____
ROOT
ATOM      1  C   UNL     1       2.531  16.808  21.203  0.00  0.00    +0.000 C 
ATOM      2  C   UNL     1       2.048  15.479  20.685  0.00  0.00    +0.000 A 
ATOM      3  C   UNL     1       0.732  15.355  20.181  0.00  0.00    +0.000 A 
ATOM      4  C   UNL     1       0.324  14.104  19.740  0.00  0.00    +0.000 A 
ATOM      5  N   UNL     1      -0.871  13.741  19.253  0.00  0.00    +0.000 NA
ATOM      6  C   UNL     1      -0.755  12.403  19.026  0.00  0.00    +0.000 A 
ATOM      7  N   UNL     1       0.491  11.928  19.382  0.00  0.00    +0.000 N 
ATOM      8  C   UNL     1       1.144  13.028  19.794  0.00  0.00    +0.000 A 
ATOM      9  N   UNL     1       2.416  13.120  20.267  0.00  0.00    +0.000 NA
ATOM     10  C   UNL     1       2.894  14.328  20.697  0.00  0.00    +0.000 A 
ATOM     11  C   UNL     1       4.315  14.413  21.168  0.00  0.00    +0.000 C 
ENDROOT
BRANCH   6  12
ATOM     12  C   UNL     1      -1.876  11.592  18.435  0.00  0.00    +0.000 A 
ATOM     13  C   UNL     1      -1.572  10.556  17.522  0.00  0.00    +0.000 A 
ATOM     14  C   UNL     1      -2.564   9.715  17.026  0.00  0.00    +0.000 A 
ATOM     15  C   UNL     1      -3.879   9.923  17.409  0.00  0.00    +0.000 A 
ATOM     16  N   UNL     1      -4.187  10.959  18.228  0.00  0.00    +0.000 NA
ATOM     17  C   UNL     1      -3.249  11.803  18.743  0.00  0.00    +0.000 A 
BRANCH  17  18
ATOM     18  N   UNL     1      -3.704  12.827  19.614  0.00  0.00    +0.000 N 
ATOM     19  H   UNL     1      -3.210  12.987  20.502  0.00  0.00    +0.000 HD
ATOM     20  H   UNL     1      -4.509  13.430  19.416  0.00  0.00    +0.000 HD
ENDBRANCH  17  18
ENDBRANCH   6  12
BRANCH   7  21
ATOM     21  C   UNL     1       1.005  10.565  19.413  0.00  0.00    +0.000 A 
ATOM     22  C   UNL     1       1.648  10.002  18.294  0.00  0.00    +0.000 A 
ATOM     23  C   UNL     1       2.107   8.681  18.323  0.00  0.00    +0.000 A 
ATOM     24  C   UNL     1       1.935   7.893  19.470  0.00  0.00    +0.000 A 
ATOM     25  C   UNL     1       1.332   8.453  20.599  0.00  0.00    +0.000 A 
ATOM     26  C   UNL     1       0.893   9.775  20.576  0.00  0.00    +0.000 A 
BRANCH  24  27
ATOM     27  C   UNL     1       2.386   6.459  19.497  0.00  0.00    +0.000 C 
BRANCH  27  28
ATOM     28  N   UNL     1       2.076   5.852  20.789  0.00  0.00    +0.000 NA
ATOM     29  H   UNL     1       2.928   5.880  21.394  0.00  0.00    +0.000 HD
ATOM     30  H   UNL     1       1.815   4.855  20.630  0.00  0.00    +0.000 HD
ENDBRANCH  27  28
ENDBRANCH  24  27
ENDBRANCH   7  21
TORSDOF 5
ENDMDL
MODEL 6
REMARK VINA RESULT:      -6.7      4.274      7.949
REMARK  Name = 
REMARK  7 active torsions:
REMARK  status: ('A' for Active; 'I' for Inactive)
REMARK    1  A    between atoms: C_1  and  C_2
REMARK    2  A    between atoms: C_6  and  C_7
REMARK    3  A    between atoms: C_12  and  N_13
REMARK    4  A    between atoms: N_14  and  C_15
REMARK    5  A    between atoms: C_18  and  C_19
REMARK    6  A    between atoms: C_19  and  N_20
REMARK    7  A    between atoms: C_25  and  C_26
REMARK                            x       y       z     vdW  Elec       q    Type
REMARK                         _______ _______ _______ _____ _____    ______ ____
ROOT
ATOM      1  C   UNL     1       2.795  16.935  19.825  0.00  0.00    +0.000 C 
ATOM      2  C   UNL     1       2.219  15.566  19.578  0.00  0.00    +0.000 A 
ATOM      3  C   UNL     1       0.900  15.435  19.083  0.00  0.00    +0.000 A 
ATOM      4  C   UNL     1       0.404  14.153  18.898  0.00  0.00    +0.000 A 
ATOM      5  N   UNL     1      -0.812  13.783  18.470  0.00  0.00    +0.000 NA
ATOM      6  C   UNL     1      -0.793  12.422  18.523  0.00  0.00    +0.000 A 
ATOM      7  N   UNL     1       0.413  11.943  18.993  0.00  0.00    +0.000 N 
ATOM      8  C   UNL     1       1.143  13.055  19.186  0.00  0.00    +0.000 A 
ATOM      9  N   UNL     1       2.415  13.151  19.655  0.00  0.00    +0.000 NA
ATOM     10  C   UNL     1       2.979  14.385  19.840  0.00  0.00    +0.000 A 
ATOM     11  C   UNL     1       4.400  14.463  20.313  0.00  0.00    +0.000 C 
ENDROOT
BRANCH   6  12
ATOM     12  C   UNL     1      -1.967  11.589  18.086  0.00  0.00    +0.000 A 
ATOM     13  C   UNL     1      -1.772  10.569  17.126  0.00  0.00    +0.000 A 
ATOM     14  C   UNL     1      -2.804   9.708  16.766  0.00  0.00    +0.000 A 
ATOM     15  C   UNL     1      -4.056   9.880  17.334  0.00  0.00    +0.000 A 
ATOM     16  N   UNL     1      -4.268  10.901  18.200  0.00  0.00    +0.000 NA
ATOM     17  C   UNL     1      -3.287  11.763  18.588  0.00  0.00    +0.000 A 
BRANCH  17  18
ATOM     18  N   UNL     1      -3.637  12.767  19.528  0.00  0.00    +0.000 N 
ATOM     19  H   UNL     1      -3.061  12.888  20.372  0.00  0.00    +0.000 HD
ATOM     20  H   UNL     1      -4.443  13.392  19.422  0.00  0.00    +0.000 HD
ENDBRANCH  17  18
ENDBRANCH   6  12
BRANCH   7  21
ATOM     21  C   UNL     1       0.826  10.582  19.309  0.00  0.00    +0.000 A 
ATOM     22  C   UNL     1       0.571  10.017  20.573  0.00  0.00    +0.000 A 
ATOM     23  C   UNL     1       1.003   8.721  20.877  0.00  0.00    +0.000 A 
ATOM     24  C   UNL     1       1.698   7.961  19.926  0.00  0.00    +0.000 A 
ATOM     25  C   UNL     1       1.924   8.499  18.656  0.00  0.00    +0.000 A 
ATOM     26  C   UNL     1       1.477   9.781  18.347  0.00  0.00    +0.000 A 
BRANCH  24  27
ATOM     27  C   UNL     1       2.204   6.585  20.257  0.00  0.00    +0.000 C 
BRANCH  27  28
ATOM     28  N   UNL     1       3.499   6.353  19.624  0.00  0.00    +0.000 NA
ATOM     29  H   UNL     1       4.030   5.645  20.181  0.00  0.00    +0.000 HD
ATOM     30  H   UNL     1       4.034   7.249  19.631  0.00  0.00    +0.000 HD
ENDBRANCH  27  28
ENDBRANCH  24  27
ENDBRANCH   7  21
TORSDOF 5
ENDMDL
MODEL 7
REMARK VINA RESULT:      -6.6      4.299      8.310
REMARK  Name = 
REMARK  7 active torsions:
REMARK  status: ('A' for Active; 'I' for Inactive)
REMARK    1  A    between atoms: C_1  and  C_2
REMARK    2  A    between atoms: C_6  and  C_7
REMARK    3  A    between atoms: C_12  and  N_13
REMARK    4  A    between atoms: N_14  and  C_15
REMARK    5  A    between atoms: C_18  and  C_19
REMARK    6  A    between atoms: C_19  and  N_20
REMARK    7  A    between atoms: C_25  and  C_26
REMARK                            x       y       z     vdW  Elec       q    Type
REMARK                         _______ _______ _______ _____ _____    ______ ____
ROOT
ATOM      1  C   UNL     1      -1.828  15.160  23.898  0.00  0.00    +0.000 C 
ATOM      2  C   UNL     1      -1.678  14.119  22.819  0.00  0.00    +0.000 A 
ATOM      3  C   UNL     1      -0.513  13.318  22.770  0.00  0.00    +0.000 A 
ATOM      4  C   UNL     1      -0.409  12.393  21.742  0.00  0.00    +0.000 A 
ATOM      5  N   UNL     1       0.601  11.551  21.478  0.00  0.00    +0.000 NA
ATOM      6  C   UNL     1       0.221  10.909  20.338  0.00  0.00    +0.000 A 
ATOM      7  N   UNL     1      -1.005  11.352  19.883  0.00  0.00    +0.000 N 
ATOM      8  C   UNL     1      -1.378  12.256  20.806  0.00  0.00    +0.000 A 
ATOM      9  N   UNL     1      -2.511  13.007  20.833  0.00  0.00    +0.000 NA
ATOM     10  C   UNL     1      -2.692  13.925  21.833  0.00  0.00    +0.000 A 
ATOM     11  C   UNL     1      -3.972  14.707  21.867  0.00  0.00    +0.000 C 
ENDROOT
BRANCH   6  12
ATOM     12  C   UNL     1       1.064   9.836  19.706  0.00  0.00    +0.000 A 
ATOM     13  C   UNL     1       1.137   8.563  20.319  0.00  0.00    +0.000 A 
ATOM     14  C   UNL     1       1.821   7.510  19.720  0.00  0.00    +0.000 A 
ATOM     15  C   UNL     1       2.473   7.727  18.517  0.00  0.00    +0.000 A 
ATOM     16  N   UNL     1       2.467   8.963  17.959  0.00  0.00    +0.000 NA
ATOM     17  C   UNL     1       1.805  10.021  18.505  0.00  0.00    +0.000 A 
BRANCH  17  18
ATOM     18  N   UNL     1       1.852  11.252  17.801  0.00  0.00    +0.000 N 
ATOM     19  H   UNL     1       2.724  11.798  17.803  0.00  0.00    +0.000 HD
ATOM     20  H   UNL     1       1.060  11.644  17.283  0.00  0.00    +0.000 HD
ENDBRANCH  17  18
ENDBRANCH   6  12
BRANCH   7  21
ATOM     21  C   UNL     1      -1.730  11.026  18.663  0.00  0.00    +0.000 A 
ATOM     22  C   UNL     1      -2.466   9.831  18.548  0.00  0.00    +0.000 A 
ATOM     23  C   UNL     1      -3.130   9.513  17.358  0.00  0.00    +0.000 A 
ATOM     24  C   UNL     1      -3.075  10.380  16.258  0.00  0.00    +0.000 A 
ATOM     25  C   UNL     1      -2.378  11.585  16.374  0.00  0.00    +0.000 A 
ATOM     26  C   UNL     1      -1.734  11.912  17.564  0.00  0.00    +0.000 A 
BRANCH  24  27
ATOM     27  C   UNL     1      -3.749  10.027  14.961  0.00  0.00    +0.000 C 
BRANCH  27  28
ATOM     28  N   UNL     1      -2.845  10.258  13.838  0.00  0.00    +0.000 NA
ATOM     29  H   UNL     1      -3.396  10.257  12.950  0.00  0.00    +0.000 HD
ATOM     30  H   UNL     1      -2.157   9.474  13.802  0.00  0.00    +0.000 HD
ENDBRANCH  27  28
ENDBRANCH  24  27
ENDBRANCH   7  21
TORSDOF 5
ENDMDL
MODEL 8
REMARK VINA RESULT:      -6.6      7.978     10.292
REMARK  Name = 
REMARK  7 active torsions:
REMARK  status: ('A' for Active; 'I' for Inactive)
REMARK    1  A    between atoms: C_1  and  C_2
REMARK    2  A    between atoms: C_6  and  C_7
REMARK    3  A    between atoms: C_12  and  N_13
REMARK    4  A    between atoms: N_14  and  C_15
REMARK    5  A    between atoms: C_18  and  C_19
REMARK    6  A    between atoms: C_19  and  N_20
REMARK    7  A    between atoms: C_25  and  C_26
REMARK                            x       y       z     vdW  Elec       q    Type
REMARK                         _______ _______ _______ _____ _____    ______ ____
ROOT
ATOM      1  C   UNL     1      -6.538  13.746  24.156  0.00  0.00    +0.000 C 
ATOM      2  C   UNL     1      -5.536  13.523  23.053  0.00  0.00    +0.000 A 
ATOM      3  C   UNL     1      -5.900  12.770  21.912  0.00  0.00    +0.000 A 
ATOM      4  C   UNL     1      -4.934  12.569  20.937  0.00  0.00    +0.000 A 
ATOM      5  N   UNL     1      -5.035  11.874  19.795  0.00  0.00    +0.000 NA
ATOM      6  C   UNL     1      -3.795  11.948  19.238  0.00  0.00    +0.000 A 
ATOM      7  N   UNL     1      -2.920  12.667  20.028  0.00  0.00    +0.000 N 
ATOM      8  C   UNL     1      -3.680  13.063  21.064  0.00  0.00    +0.000 A 
ATOM      9  N   UNL     1      -3.305  13.796  22.146  0.00  0.00    +0.000 NA
ATOM     10  C   UNL     1      -4.213  14.054  23.138  0.00  0.00    +0.000 A 
ATOM     11  C   UNL     1      -3.789  14.906  24.297  0.00  0.00    +0.000 C 
ENDROOT
BRANCH   6  12
ATOM     12  C   UNL     1      -3.477  11.324  17.908  0.00  0.00    +0.000 A 
ATOM     13  C   UNL     1      -2.404  10.408  17.813  0.00  0.00    +0.000 A 
ATOM     14  C   UNL     1      -2.135   9.729  16.627  0.00  0.00    +0.000 A 
ATOM     15  C   UNL     1      -2.913   9.987  15.511  0.00  0.00    +0.000 A 
ATOM     16  N   UNL     1      -3.897  10.917  15.575  0.00  0.00    +0.000 NA
ATOM     17  C   UNL     1      -4.202  11.600  16.714  0.00  0.00    +0.000 A 
BRANCH  17  18
ATOM     18  N   UNL     1      -5.278  12.522  16.652  0.00  0.00    +0.000 N 
ATOM     19  H   UNL     1      -5.966  12.442  15.892  0.00  0.00    +0.000 HD
ATOM     20  H   UNL     1      -5.419  13.281  17.327  0.00  0.00    +0.000 HD
ENDBRANCH  17  18
ENDBRANCH   6  12
BRANCH   7  21
ATOM     21  C   UNL     1      -1.490  12.900  19.877  0.00  0.00    +0.000 A 
ATOM     22  C   UNL     1      -1.002  13.945  19.070  0.00  0.00    +0.000 A 
ATOM     23  C   UNL     1       0.374  14.139  18.905  0.00  0.00    +0.000 A 
ATOM     24  C   UNL     1       1.293  13.293  19.543  0.00  0.00    +0.000 A 
ATOM     25  C   UNL     1       0.820  12.276  20.376  0.00  0.00    +0.000 A 
ATOM     26  C   UNL     1      -0.550  12.096  20.556  0.00  0.00    +0.000 A 
BRANCH  24  27
ATOM     27  C   UNL     1       2.772  13.465  19.339  0.00  0.00    +0.000 C 
BRANCH  27  28
ATOM     28  N   UNL     1       3.075  13.622  17.919  0.00  0.00    +0.000 NA
ATOM     29  H   UNL     1       3.063  12.682  17.461  0.00  0.00    +0.000 HD
ATOM     30  H   UNL     1       4.035  14.021  17.829  0.00  0.00    +0.000 HD
ENDBRANCH  27  28
ENDBRANCH  24  27
ENDBRANCH   7  21
TORSDOF 5
ENDMDL
MODEL 9
REMARK VINA RESULT:      -6.6      7.085      9.480
REMARK  Name = 
REMARK  7 active torsions:
REMARK  status: ('A' for Active; 'I' for Inactive)
REMARK    1  A    between atoms: C_1  and  C_2
REMARK    2  A    between atoms: C_6  and  C_7
REMARK    3  A    between atoms: C_12  and  N_13
REMARK    4  A    between atoms: N_14  and  C_15
REMARK    5  A    between atoms: C_18  and  C_19
REMARK    6  A    between atoms: C_19  and  N_20
REMARK    7  A    between atoms: C_25  and  C_26
REMARK                            x       y       z     vdW  Elec       q    Type
REMARK                         _______ _______ _______ _____ _____    ______ ____
ROOT
ATOM      1  C   UNL     1       5.093  15.402  19.960  0.00  0.00    +0.000 C 
ATOM      2  C   UNL     1       3.784  14.678  20.135  0.00  0.00    +0.000 A 
ATOM      3  C   UNL     1       3.199  14.005  19.037  0.00  0.00    +0.000 A 
ATOM      4  C   UNL     1       1.980  13.376  19.241  0.00  0.00    +0.000 A 
ATOM      5  N   UNL     1       1.229  12.705  18.354  0.00  0.00    +0.000 NA
ATOM      6  C   UNL     1       0.119  12.341  19.053  0.00  0.00    +0.000 A 
ATOM      7  N   UNL     1       0.163  12.791  20.358  0.00  0.00    +0.000 N 
ATOM      8  C   UNL     1       1.356  13.405  20.442  0.00  0.00    +0.000 A 
ATOM      9  N   UNL     1       1.898  14.037  21.516  0.00  0.00    +0.000 NA
ATOM     10  C   UNL     1       3.111  14.661  21.394  0.00  0.00    +0.000 A 
ATOM     11  C   UNL     1       3.711  15.310  22.606  0.00  0.00    +0.000 C 
ENDROOT
BRANCH   6  12
ATOM     12  C   UNL     1      -0.983  11.526  18.434  0.00  0.00    +0.000 A 
ATOM     13  C   UNL     1      -2.308  12.021  18.463  0.00  0.00    +0.000 A 
ATOM     14  C   UNL     1      -3.344  11.351  17.817  0.00  0.00    +0.000 A 
ATOM     15  C   UNL     1      -3.074  10.159  17.165  0.00  0.00    +0.000 A 
ATOM     16  N   UNL     1      -1.821   9.643  17.195  0.00  0.00    +0.000 NA
ATOM     17  C   UNL     1      -0.775  10.265  17.807  0.00  0.00    +0.000 A 
BRANCH  17  18
ATOM     18  N   UNL     1       0.493   9.632  17.735  0.00  0.00    +0.000 N 
ATOM     19  H   UNL     1       1.092   9.800  16.916  0.00  0.00    +0.000 HD
ATOM     20  H   UNL     1       0.859   9.004  18.457  0.00  0.00    +0.000 HD
ENDBRANCH  17  18
ENDBRANCH   6  12
BRANCH   7  21
ATOM     21  C   UNL     1      -0.843  12.726  21.410  0.00  0.00    +0.000 A 
ATOM     22  C   UNL     1      -0.921  11.619  22.277  0.00  0.00    +0.000 A 
ATOM     23  C   UNL     1      -1.913  11.553  23.262  0.00  0.00    +0.000 A 
ATOM     24  C   UNL     1      -2.847  12.589  23.403  0.00  0.00    +0.000 A 
ATOM     25  C   UNL     1      -2.755  13.708  22.571  0.00  0.00    +0.000 A 
ATOM     26  C   UNL     1      -1.756  13.784  21.605  0.00  0.00    +0.000 A 
BRANCH  24  27
ATOM     27  C   UNL     1      -3.943  12.507  24.429  0.00  0.00    +0.000 C 
BRANCH  27  28
ATOM     28  N   UNL     1      -3.986  13.730  25.225  0.00  0.00    +0.000 NA
ATOM     29  H   UNL     1      -4.983  13.969  25.432  0.00  0.00    +0.000 HD
ATOM     30  H   UNL     1      -3.570  14.505  24.664  0.00  0.00    +0.000 HD
ENDBRANCH  27  28
ENDBRANCH  24  27
ENDBRANCH   7  21
TORSDOF 5
ENDMDL
