MODEL 1
REMARK VINA RESULT:      -8.5      0.000      0.000
REMARK  Name = 
REMARK  7 active torsions:
REMARK  status: ('A' for Active; 'I' for Inactive)
REMARK    1  A    between atoms: C_1  and  C_2
REMARK    2  A    between atoms: C_4  and  C_5
REMARK    3  A    between atoms: C_7  and  C_8
REMARK    4  A    between atoms: C_11  and  O_12
REMARK    5  A    between atoms: O_12  and  C_13
REMARK    6  A    between atoms: C_13  and  C_14
REMARK    7  A    between atoms: C_28  and  C_29
REMARK                            x       y       z     vdW  Elec       q    Type
REMARK                         _______ _______ _______ _____ _____    ______ ____
ROOT
ATOM      1  C   UNL     1       2.540   6.796  19.289  0.00  0.00    +0.000 A 
ATOM      2  N   UNL     1       3.492   6.895  18.310  0.00  0.00    +0.000 NA
ATOM      3  C   UNL     1       3.929   5.673  18.065  0.00  0.00    +0.000 A 
ATOM      4  N   UNL     1       3.306   4.778  18.926  0.00  0.00    +0.000 N 
ATOM      5  C   UNL     1       2.367   5.477  19.670  0.00  0.00    +0.000 A 
ATOM      6  C   UNL     1       1.415   4.847  20.643  0.00  0.00    +0.000 C 
ATOM      7  C   UNL     1       0.951   3.453  20.232  0.00  0.00    +0.000 C 
ATOM      8  O   UNL     1       1.871   2.410  20.554  0.00  0.00    +0.000 OA
ATOM      9  C   UNL     1       3.253   2.714  20.371  0.00  0.00    +0.000 C 
ATOM     10  C   UNL     1       3.579   3.351  19.024  0.00  0.00    +0.000 C 
ENDROOT
BRANCH   1  14
ATOM     11  C   UNL     1       0.361  11.200  18.469  0.00  0.00    +0.000 C 
ATOM     12  C   UNL     1       0.739  10.065  19.373  0.00  0.00    +0.000 A 
ATOM     13  C   UNL     1       1.463   8.979  18.894  0.00  0.00    +0.000 A 
ATOM     14  C   UNL     1       1.812   7.957  19.777  0.00  0.00    +0.000 A 
ATOM     15  C   UNL     1       1.452   8.083  21.118  0.00  0.00    +0.000 A 
ATOM     16  C   UNL     1       0.708   9.182  21.518  0.00  0.00    +0.000 A 
ATOM     17  C   UNL     1       0.254   9.318  22.940  0.00  0.00    +0.000 C 
ATOM     18  N   UNL     1       0.349  10.168  20.665  0.00  0.00    +0.000 NA
ENDBRANCH   1  14
BRANCH   3  19
ATOM     19  C   UNL     1       4.933   5.379  17.028  0.00  0.00    +0.000 A 
ATOM     20  C   UNL     1       6.248   5.820  17.200  0.00  0.00    +0.000 A 
ATOM     21  C   UNL     1       7.215   5.603  16.210  0.00  0.00    +0.000 A 
ATOM     22  C   UNL     1       6.906   4.940  15.013  0.00  0.00    +0.000 A 
ATOM     23  C   UNL     1       5.588   4.499  14.834  0.00  0.00    +0.000 A 
ATOM     24 CL   UNL     1       4.993   3.626  13.464  0.00  0.00    +0.000 Cl
ATOM     25  C   UNL     1       4.620   4.739  15.826  0.00  0.00    +0.000 A 
BRANCH  22  26
ATOM     26  O   UNL     1       8.000   4.830  14.197  0.00  0.00    +0.000 OA
BRANCH  26  27
ATOM     27  C   UNL     1       8.168   5.728  13.102  0.00  0.00    +0.000 C 
BRANCH  27  28
ATOM     28  C   UNL     1       7.359   5.254  11.904  0.00  0.00    +0.000 C 
ATOM     29  F   UNL     1       7.747   5.945  10.799  0.00  0.00    +0.000 F 
ATOM     30  F   UNL     1       7.623   3.948  11.649  0.00  0.00    +0.000 F 
ENDBRANCH  27  28
ENDBRANCH  26  27
ENDBRANCH  22  26
ENDBRANCH   3  19
TORSDOF 5
ENDMDL
MODEL 2
REMARK VINA RESULT:      -8.4      0.057      1.521
REMARK  Name = 
REMARK  7 active torsions:
REMARK  status: ('A' for Active; 'I' for Inactive)
REMARK    1  A    between atoms: C_1  and  C_2
REMARK    2  A    between atoms: C_4  and  C_5
REMARK    3  A    between atoms: C_7  and  C_8
REMARK    4  A    between atoms: C_11  and  O_12
REMARK    5  A    between atoms: O_12  and  C_13
REMARK    6  A    between atoms: C_13  and  C_14
REMARK    7  A    between atoms: C_28  and  C_29
REMARK                            x       y       z     vdW  Elec       q    Type
REMARK                         _______ _______ _______ _____ _____    ______ ____
ROOT
ATOM      1  C   UNL     1       2.537   6.812  19.255  0.00  0.00    +0.000 A 
ATOM      2  N   UNL     1       3.492   6.906  18.278  0.00  0.00    +0.000 NA
ATOM      3  C   UNL     1       3.932   5.684  18.041  0.00  0.00    +0.000 A 
ATOM      4  N   UNL     1       3.307   4.793  18.905  0.00  0.00    +0.000 N 
ATOM      5  C   UNL     1       2.365   5.494  19.641  0.00  0.00    +0.000 A 
ATOM      6  C   UNL     1       1.410   4.869  20.614  0.00  0.00    +0.000 C 
ATOM      7  C   UNL     1       0.949   3.472  20.209  0.00  0.00    +0.000 C 
ATOM      8  O   UNL     1       1.869   2.432  20.540  0.00  0.00    +0.000 OA
ATOM      9  C   UNL     1       3.251   2.736  20.359  0.00  0.00    +0.000 C 
ATOM     10  C   UNL     1       3.581   3.366  19.011  0.00  0.00    +0.000 C 
ENDROOT
BRANCH   1  14
ATOM     11  C   UNL     1       0.299   9.300  22.945  0.00  0.00    +0.000 C 
ATOM     12  C   UNL     1       0.753   9.182  21.521  0.00  0.00    +0.000 A 
ATOM     13  C   UNL     1       1.422   8.048  21.073  0.00  0.00    +0.000 A 
ATOM     14  C   UNL     1       1.806   7.974  19.734  0.00  0.00    +0.000 A 
ATOM     15  C   UNL     1       1.470   9.027  18.885  0.00  0.00    +0.000 A 
ATOM     16  C   UNL     1       0.824  10.137  19.407  0.00  0.00    +0.000 A 
ATOM     17  C   UNL     1       0.502  11.311  18.534  0.00  0.00    +0.000 C 
ATOM     18  N   UNL     1       0.466  10.226  20.708  0.00  0.00    +0.000 NA
ENDBRANCH   1  14
BRANCH   3  19
ATOM     19  C   UNL     1       4.940   5.385  17.009  0.00  0.00    +0.000 A 
ATOM     20  C   UNL     1       6.252   5.835  17.180  0.00  0.00    +0.000 A 
ATOM     21  C   UNL     1       7.223   5.614  16.194  0.00  0.00    +0.000 A 
ATOM     22  C   UNL     1       6.920   4.938  15.002  0.00  0.00    +0.000 A 
ATOM     23  C   UNL     1       5.605   4.488  14.824  0.00  0.00    +0.000 A 
ATOM     24 CL   UNL     1       5.017   3.599  13.462  0.00  0.00    +0.000 Cl
ATOM     25  C   UNL     1       4.633   4.733  15.812  0.00  0.00    +0.000 A 
BRANCH  22  26
ATOM     26  O   UNL     1       8.016   4.827  14.190  0.00  0.00    +0.000 OA
BRANCH  26  27
ATOM     27  C   UNL     1       8.187   5.722  13.093  0.00  0.00    +0.000 C 
BRANCH  27  28
ATOM     28  C   UNL     1       7.354   5.265  11.905  0.00  0.00    +0.000 C 
ATOM     29  F   UNL     1       7.735   5.954  10.797  0.00  0.00    +0.000 F 
ATOM     30  F   UNL     1       7.596   3.956  11.641  0.00  0.00    +0.000 F 
ENDBRANCH  27  28
ENDBRANCH  26  27
ENDBRANCH  22  26
ENDBRANCH   3  19
TORSDOF 5
ENDMDL
MODEL 3
REMARK VINA RESULT:      -8.3      1.330      1.602
REMARK  Name = 
REMARK  7 active torsions:
REMARK  status: ('A' for Active; 'I' for Inactive)
REMARK    1  A    between atoms: C_1  and  C_2
REMARK    2  A    between atoms: C_4  and  C_5
REMARK    3  A    between atoms: C_7  and  C_8
REMARK    4  A    between atoms: C_11  and  O_12
REMARK    5  A    between atoms: O_12  and  C_13
REMARK    6  A    between atoms: C_13  and  C_14
REMARK    7  A    between atoms: C_28  and  C_29
REMARK                            x       y       z     vdW  Elec       q    Type
REMARK                         _______ _______ _______ _____ _____    ______ ____
ROOT
ATOM      1  C   UNL     1       2.274   7.005  19.606  0.00  0.00    +0.000 A 
ATOM      2  N   UNL     1       3.307   7.144  18.716  0.00  0.00    +0.000 NA
ATOM      3  C   UNL     1       3.795   5.937  18.493  0.00  0.00    +0.000 A 
ATOM      4  N   UNL     1       3.122   5.014  19.282  0.00  0.00    +0.000 N 
ATOM      5  C   UNL     1       2.103   5.676  19.950  0.00  0.00    +0.000 A 
ATOM      6  C   UNL     1       1.085   5.007  20.825  0.00  0.00    +0.000 C 
ATOM      7  C   UNL     1       0.695   3.609  20.354  0.00  0.00    +0.000 C 
ATOM      8  O   UNL     1       1.609   2.584  20.740  0.00  0.00    +0.000 OA
ATOM      9  C   UNL     1       2.994   2.923  20.684  0.00  0.00    +0.000 C 
ATOM     10  C   UNL     1       3.421   3.591  19.382  0.00  0.00    +0.000 C 
ENDROOT
BRANCH   1  14
ATOM     11  C   UNL     1      -0.291  11.151  18.581  0.00  0.00    +0.000 C 
ATOM     12  C   UNL     1       0.219  10.121  19.544  0.00  0.00    +0.000 A 
ATOM     13  C   UNL     1       1.007   9.062  19.109  0.00  0.00    +0.000 A 
ATOM     14  C   UNL     1       1.477   8.139  20.045  0.00  0.00    +0.000 A 
ATOM     15  C   UNL     1       1.168   8.339  21.390  0.00  0.00    +0.000 A 
ATOM     16  C   UNL     1       0.355   9.404  21.746  0.00  0.00    +0.000 A 
ATOM     17  C   UNL     1      -0.044   9.611  23.175  0.00  0.00    +0.000 C 
ATOM     18  N   UNL     1      -0.121  10.291  20.844  0.00  0.00    +0.000 NA
ENDBRANCH   1  14
BRANCH   3  19
ATOM     19  C   UNL     1       4.894   5.686  17.545  0.00  0.00    +0.000 A 
ATOM     20  C   UNL     1       4.701   5.947  16.185  0.00  0.00    +0.000 A 
ATOM     21  C   UNL     1       5.707   5.669  15.250  0.00  0.00    +0.000 A 
ATOM     22  C   UNL     1       6.940   5.122  15.637  0.00  0.00    +0.000 A 
ATOM     23  C   UNL     1       7.137   4.856  16.998  0.00  0.00    +0.000 A 
ATOM     24 CL   UNL     1       8.585   4.225  17.705  0.00  0.00    +0.000 Cl
ATOM     25  C   UNL     1       6.112   5.119  17.927  0.00  0.00    +0.000 A 
BRANCH  22  26
ATOM     26  O   UNL     1       7.774   4.943  14.565  0.00  0.00    +0.000 OA
BRANCH  26  27
ATOM     27  C   UNL     1       7.255   5.002  13.238  0.00  0.00    +0.000 C 
BRANCH  27  28
ATOM     28  C   UNL     1       6.758   3.632  12.805  0.00  0.00    +0.000 C 
ATOM     29  F   UNL     1       5.405   3.663  12.681  0.00  0.00    +0.000 F 
ATOM     30  F   UNL     1       7.247   3.324  11.577  0.00  0.00    +0.000 F 
ENDBRANCH  27  28
ENDBRANCH  26  27
ENDBRANCH  22  26
ENDBRANCH   3  19
TORSDOF 5
ENDMDL
MODEL 4
REMARK VINA RESULT:      -8.2      1.326      2.199
REMARK  Name = 
REMARK  7 active torsions:
REMARK  status: ('A' for Active; 'I' for Inactive)
REMARK    1  A    between atoms: C_1  and  C_2
REMARK    2  A    between atoms: C_4  and  C_5
REMARK    3  A    between atoms: C_7  and  C_8
REMARK    4  A    between atoms: C_11  and  O_12
REMARK    5  A    between atoms: O_12  and  C_13
REMARK    6  A    between atoms: C_13  and  C_14
REMARK    7  A    between atoms: C_28  and  C_29
REMARK                            x       y       z     vdW  Elec       q    Type
REMARK                         _______ _______ _______ _____ _____    ______ ____
ROOT
ATOM      1  C   UNL     1       2.313   7.006  19.646  0.00  0.00    +0.000 A 
ATOM      2  N   UNL     1       3.347   7.123  18.755  0.00  0.00    +0.000 NA
ATOM      3  C   UNL     1       3.799   5.905  18.518  0.00  0.00    +0.000 A 
ATOM      4  N   UNL     1       3.100   4.993  19.299  0.00  0.00    +0.000 N 
ATOM      5  C   UNL     1       2.103   5.679  19.976  0.00  0.00    +0.000 A 
ATOM      6  C   UNL     1       1.067   5.031  20.847  0.00  0.00    +0.000 C 
ATOM      7  C   UNL     1       0.635   3.651  20.361  0.00  0.00    +0.000 C 
ATOM      8  O   UNL     1       1.518   2.594  20.735  0.00  0.00    +0.000 OA
ATOM      9  C   UNL     1       2.912   2.893  20.679  0.00  0.00    +0.000 C 
ATOM     10  C   UNL     1       3.357   3.562  19.383  0.00  0.00    +0.000 C 
ENDROOT
BRANCH   1  14
ATOM     11  C   UNL     1       0.014   9.520  23.281  0.00  0.00    +0.000 C 
ATOM     12  C   UNL     1       0.469   9.380  21.859  0.00  0.00    +0.000 A 
ATOM     13  C   UNL     1       1.168   8.255  21.437  0.00  0.00    +0.000 A 
ATOM     14  C   UNL     1       1.551   8.159  20.099  0.00  0.00    +0.000 A 
ATOM     15  C   UNL     1       1.184   9.181  19.226  0.00  0.00    +0.000 A 
ATOM     16  C   UNL     1       0.508  10.285  19.722  0.00  0.00    +0.000 A 
ATOM     17  C   UNL     1       0.151  11.428  18.821  0.00  0.00    +0.000 C 
ATOM     18  N   UNL     1       0.150  10.396  21.021  0.00  0.00    +0.000 NA
ENDBRANCH   1  14
BRANCH   3  19
ATOM     19  C   UNL     1       4.887   5.631  17.564  0.00  0.00    +0.000 A 
ATOM     20  C   UNL     1       4.676   5.844  16.199  0.00  0.00    +0.000 A 
ATOM     21  C   UNL     1       5.672   5.544  15.261  0.00  0.00    +0.000 A 
ATOM     22  C   UNL     1       6.914   5.019  15.649  0.00  0.00    +0.000 A 
ATOM     23  C   UNL     1       7.130   4.801  17.016  0.00  0.00    +0.000 A 
ATOM     24 CL   UNL     1       8.592   4.205  17.725  0.00  0.00    +0.000 Cl
ATOM     25  C   UNL     1       6.115   5.087  17.949  0.00  0.00    +0.000 A 
BRANCH  22  26
ATOM     26  O   UNL     1       7.735   4.812  14.574  0.00  0.00    +0.000 OA
BRANCH  26  27
ATOM     27  C   UNL     1       7.227   4.953  13.249  0.00  0.00    +0.000 C 
BRANCH  27  28
ATOM     28  C   UNL     1       6.735   3.612  12.727  0.00  0.00    +0.000 C 
ATOM     29  F   UNL     1       5.434   3.726  12.351  0.00  0.00    +0.000 F 
ATOM     30  F   UNL     1       7.425   3.262  11.612  0.00  0.00    +0.000 F 
ENDBRANCH  27  28
ENDBRANCH  26  27
ENDBRANCH  22  26
ENDBRANCH   3  19
TORSDOF 5
ENDMDL
MODEL 5
REMARK VINA RESULT:      -8.0      5.419      8.893
REMARK  Name = 
REMARK  7 active torsions:
REMARK  status: ('A' for Active; 'I' for Inactive)
REMARK    1  A    between atoms: C_1  and  C_2
REMARK    2  A    between atoms: C_4  and  C_5
REMARK    3  A    between atoms: C_7  and  C_8
REMARK    4  A    between atoms: C_11  and  O_12
REMARK    5  A    between atoms: O_12  and  C_13
REMARK    6  A    between atoms: C_13  and  C_14
REMARK    7  A    between atoms: C_28  and  C_29
REMARK                            x       y       z     vdW  Elec       q    Type
REMARK                         _______ _______ _______ _____ _____    ______ ____
ROOT
ATOM      1  C   UNL     1       3.930   5.525  18.538  0.00  0.00    +0.000 A 
ATOM      2  N   UNL     1       3.481   6.811  18.676  0.00  0.00    +0.000 NA
ATOM      3  C   UNL     1       2.428   6.775  19.472  0.00  0.00    +0.000 A 
ATOM      4  N   UNL     1       2.150   5.456  19.810  0.00  0.00    +0.000 N 
ATOM      5  C   UNL     1       3.144   4.653  19.270  0.00  0.00    +0.000 A 
ATOM      6  C   UNL     1       3.258   3.175  19.497  0.00  0.00    +0.000 C 
ATOM      7  C   UNL     1       2.801   2.729  20.882  0.00  0.00    +0.000 C 
ATOM      8  O   UNL     1       1.388   2.577  21.014  0.00  0.00    +0.000 OA
ATOM      9  C   UNL     1       0.588   3.554  20.351  0.00  0.00    +0.000 C 
ATOM     10  C   UNL     1       1.021   4.994  20.605  0.00  0.00    +0.000 C 
ENDROOT
BRANCH   1  14
ATOM     11  C   UNL     1       8.774   4.393  18.274  0.00  0.00    +0.000 C 
ATOM     12  C   UNL     1       7.439   4.628  17.633  0.00  0.00    +0.000 A 
ATOM     13  C   UNL     1       6.329   4.969  18.396  0.00  0.00    +0.000 A 
ATOM     14  C   UNL     1       5.111   5.200  17.754  0.00  0.00    +0.000 A 
ATOM     15  C   UNL     1       5.065   5.117  16.364  0.00  0.00    +0.000 A 
ATOM     16  C   UNL     1       6.207   4.746  15.670  0.00  0.00    +0.000 A 
ATOM     17  C   UNL     1       6.176   4.589  14.180  0.00  0.00    +0.000 C 
ATOM     18  N   UNL     1       7.386   4.501  16.286  0.00  0.00    +0.000 NA
ENDBRANCH   1  14
BRANCH   3  19
ATOM     19  C   UNL     1       1.702   7.986  19.889  0.00  0.00    +0.000 A 
ATOM     20  C   UNL     1       1.471   9.004  18.959  0.00  0.00    +0.000 A 
ATOM     21  C   UNL     1       0.830  10.191  19.336  0.00  0.00    +0.000 A 
ATOM     22  C   UNL     1       0.397  10.408  20.652  0.00  0.00    +0.000 A 
ATOM     23  C   UNL     1       0.629   9.392  21.590  0.00  0.00    +0.000 A 
ATOM     24 CL   UNL     1       0.146   9.422  23.251  0.00  0.00    +0.000 Cl
ATOM     25  C   UNL     1       1.291   8.211  21.206  0.00  0.00    +0.000 A 
BRANCH  22  26
ATOM     26  O   UNL     1      -0.210  11.627  20.793  0.00  0.00    +0.000 OA
BRANCH  26  27
ATOM     27  C   UNL     1      -1.613  11.703  21.038  0.00  0.00    +0.000 C 
BRANCH  27  28
ATOM     28  C   UNL     1      -1.883  12.487  22.312  0.00  0.00    +0.000 C 
ATOM     29  F   UNL     1      -2.908  11.905  22.989  0.00  0.00    +0.000 F 
ATOM     30  F   UNL     1      -0.804  12.433  23.133  0.00  0.00    +0.000 F 
ENDBRANCH  27  28
ENDBRANCH  26  27
ENDBRANCH  22  26
ENDBRANCH   3  19
TORSDOF 5
ENDMDL
MODEL 6
REMARK VINA RESULT:      -8.0      5.375      8.758
REMARK  Name = 
REMARK  7 active torsions:
REMARK  status: ('A' for Active; 'I' for Inactive)
REMARK    1  A    between atoms: C_1  and  C_2
REMARK    2  A    between atoms: C_4  and  C_5
REMARK    3  A    between atoms: C_7  and  C_8
REMARK    4  A    between atoms: C_11  and  O_12
REMARK    5  A    between atoms: O_12  and  C_13
REMARK    6  A    between atoms: C_13  and  C_14
REMARK    7  A    between atoms: C_28  and  C_29
REMARK                            x       y       z     vdW  Elec       q    Type
REMARK                         _______ _______ _______ _____ _____    ______ ____
ROOT
ATOM      1  C   UNL     1       3.932   5.483  18.578  0.00  0.00    +0.000 A 
ATOM      2  N   UNL     1       3.495   6.774  18.709  0.00  0.00    +0.000 NA
ATOM      3  C   UNL     1       2.437   6.750  19.501  0.00  0.00    +0.000 A 
ATOM      4  N   UNL     1       2.145   5.435  19.841  0.00  0.00    +0.000 N 
ATOM      5  C   UNL     1       3.133   4.621  19.309  0.00  0.00    +0.000 A 
ATOM      6  C   UNL     1       3.231   3.142  19.540  0.00  0.00    +0.000 C 
ATOM      7  C   UNL     1       2.763   2.706  20.925  0.00  0.00    +0.000 C 
ATOM      8  O   UNL     1       1.349   2.568  21.050  0.00  0.00    +0.000 OA
ATOM      9  C   UNL     1       0.561   3.551  20.379  0.00  0.00    +0.000 C 
ATOM     10  C   UNL     1       1.007   4.987  20.632  0.00  0.00    +0.000 C 
ENDROOT
BRANCH   1  14
ATOM     11  C   UNL     1       6.133   4.635  14.190  0.00  0.00    +0.000 C 
ATOM     12  C   UNL     1       6.177   4.764  15.683  0.00  0.00    +0.000 A 
ATOM     13  C   UNL     1       5.029   5.056  16.411  0.00  0.00    +0.000 A 
ATOM     14  C   UNL     1       5.114   5.144  17.801  0.00  0.00    +0.000 A 
ATOM     15  C   UNL     1       6.343   4.897  18.411  0.00  0.00    +0.000 A 
ATOM     16  C   UNL     1       7.450   4.636  17.618  0.00  0.00    +0.000 A 
ATOM     17  C   UNL     1       8.797   4.425  18.240  0.00  0.00    +0.000 C 
ATOM     18  N   UNL     1       7.382   4.568  16.270  0.00  0.00    +0.000 NA
ENDBRANCH   1  14
BRANCH   3  19
ATOM     19  C   UNL     1       1.722   7.970  19.910  0.00  0.00    +0.000 A 
ATOM     20  C   UNL     1       1.499   8.984  18.974  0.00  0.00    +0.000 A 
ATOM     21  C   UNL     1       0.868  10.179  19.343  0.00  0.00    +0.000 A 
ATOM     22  C   UNL     1       0.437  10.407  20.659  0.00  0.00    +0.000 A 
ATOM     23  C   UNL     1       0.660   9.395  21.602  0.00  0.00    +0.000 A 
ATOM     24 CL   UNL     1       0.177   9.439  23.263  0.00  0.00    +0.000 Cl
ATOM     25  C   UNL     1       1.313   8.207  21.225  0.00  0.00    +0.000 A 
BRANCH  22  26
ATOM     26  O   UNL     1      -0.160  11.632  20.791  0.00  0.00    +0.000 OA
BRANCH  26  27
ATOM     27  C   UNL     1      -1.560  11.721  21.049  0.00  0.00    +0.000 C 
BRANCH  27  28
ATOM     28  C   UNL     1      -1.806  12.353  22.410  0.00  0.00    +0.000 C 
ATOM     29  F   UNL     1      -2.382  11.437  23.233  0.00  0.00    +0.000 F 
ATOM     30  F   UNL     1      -0.626  12.696  22.987  0.00  0.00    +0.000 F 
ENDBRANCH  27  28
ENDBRANCH  26  27
ENDBRANCH  22  26
ENDBRANCH   3  19
TORSDOF 5
ENDMDL
MODEL 7
REMARK VINA RESULT:      -7.9      5.619      9.032
REMARK  Name = 
REMARK  7 active torsions:
REMARK  status: ('A' for Active; 'I' for Inactive)
REMARK    1  A    between atoms: C_1  and  C_2
REMARK    2  A    between atoms: C_4  and  C_5
REMARK    3  A    between atoms: C_7  and  C_8
REMARK    4  A    between atoms: C_11  and  O_12
REMARK    5  A    between atoms: O_12  and  C_13
REMARK    6  A    between atoms: C_13  and  C_14
REMARK    7  A    between atoms: C_28  and  C_29
REMARK                            x       y       z     vdW  Elec       q    Type
REMARK                         _______ _______ _______ _____ _____    ______ ____
ROOT
ATOM      1  C   UNL     1       3.793   6.244  18.429  0.00  0.00    +0.000 A 
ATOM      2  N   UNL     1       3.165   7.435  18.684  0.00  0.00    +0.000 NA
ATOM      3  C   UNL     1       2.156   7.180  19.496  0.00  0.00    +0.000 A 
ATOM      4  N   UNL     1       2.085   5.812  19.728  0.00  0.00    +0.000 N 
ATOM      5  C   UNL     1       3.166   5.210  19.102  0.00  0.00    +0.000 A 
ATOM      6  C   UNL     1       3.501   3.751  19.201  0.00  0.00    +0.000 C 
ATOM      7  C   UNL     1       3.160   3.134  20.554  0.00  0.00    +0.000 C 
ATOM      8  O   UNL     1       1.790   2.765  20.702  0.00  0.00    +0.000 OA
ATOM      9  C   UNL     1       0.834   3.663  20.140  0.00  0.00    +0.000 C 
ATOM     10  C   UNL     1       1.061   5.126  20.505  0.00  0.00    +0.000 C 
ENDROOT
BRANCH   1  14
ATOM     11  C   UNL     1       8.369   7.818  17.248  0.00  0.00    +0.000 C 
ATOM     12  C   UNL     1       7.197   6.904  17.048  0.00  0.00    +0.000 A 
ATOM     13  C   UNL     1       6.056   7.020  17.833  0.00  0.00    +0.000 A 
ATOM     14  C   UNL     1       4.982   6.162  17.597  0.00  0.00    +0.000 A 
ATOM     15  C   UNL     1       5.081   5.243  16.553  0.00  0.00    +0.000 A 
ATOM     16  C   UNL     1       6.261   5.167  15.829  0.00  0.00    +0.000 A 
ATOM     17  C   UNL     1       6.421   4.150  14.740  0.00  0.00    +0.000 C 
ATOM     18  N   UNL     1       7.313   5.981  16.064  0.00  0.00    +0.000 NA
ENDBRANCH   1  14
BRANCH   3  19
ATOM     19  C   UNL     1       1.276   8.233  20.029  0.00  0.00    +0.000 A 
ATOM     20  C   UNL     1       0.710   9.164  19.152  0.00  0.00    +0.000 A 
ATOM     21  C   UNL     1      -0.089  10.210  19.632  0.00  0.00    +0.000 A 
ATOM     22  C   UNL     1      -0.353  10.367  21.001  0.00  0.00    +0.000 A 
ATOM     23  C   UNL     1       0.214   9.438  21.884  0.00  0.00    +0.000 A 
ATOM     24 CL   UNL     1      -0.009   9.409  23.599  0.00  0.00    +0.000 Cl
ATOM     25  C   UNL     1       1.032   8.403  21.394  0.00  0.00    +0.000 A 
BRANCH  22  26
ATOM     26  O   UNL     1      -1.162  11.445  21.241  0.00  0.00    +0.000 OA
BRANCH  26  27
ATOM     27  C   UNL     1      -0.717  12.495  22.097  0.00  0.00    +0.000 C 
BRANCH  27  28
ATOM     28  C   UNL     1      -1.830  12.907  23.048  0.00  0.00    +0.000 C 
ATOM     29  F   UNL     1      -2.331  11.802  23.660  0.00  0.00    +0.000 F 
ATOM     30  F   UNL     1      -1.333  13.697  24.034  0.00  0.00    +0.000 F 
ENDBRANCH  27  28
ENDBRANCH  26  27
ENDBRANCH  22  26
ENDBRANCH   3  19
TORSDOF 5
ENDMDL
MODEL 8
REMARK VINA RESULT:      -7.9      4.966      8.485
REMARK  Name = 
REMARK  7 active torsions:
REMARK  status: ('A' for Active; 'I' for Inactive)
REMARK    1  A    between atoms: C_1  and  C_2
REMARK    2  A    between atoms: C_4  and  C_5
REMARK    3  A    between atoms: C_7  and  C_8
REMARK    4  A    between atoms: C_11  and  O_12
REMARK    5  A    between atoms: O_12  and  C_13
REMARK    6  A    between atoms: C_13  and  C_14
REMARK    7  A    between atoms: C_28  and  C_29
REMARK                            x       y       z     vdW  Elec       q    Type
REMARK                         _______ _______ _______ _____ _____    ______ ____
ROOT
ATOM      1  C   UNL     1       4.023   5.466  18.500  0.00  0.00    +0.000 A 
ATOM      2  N   UNL     1       3.542   6.746  18.580  0.00  0.00    +0.000 NA
ATOM      3  C   UNL     1       2.472   6.714  19.354  0.00  0.00    +0.000 A 
ATOM      4  N   UNL     1       2.216   5.402  19.734  0.00  0.00    +0.000 N 
ATOM      5  C   UNL     1       3.240   4.604  19.247  0.00  0.00    +0.000 A 
ATOM      6  C   UNL     1       3.381   3.137  19.530  0.00  0.00    +0.000 C 
ATOM      7  C   UNL     1       2.903   2.732  20.920  0.00  0.00    +0.000 C 
ATOM      8  O   UNL     1       1.491   2.552  21.026  0.00  0.00    +0.000 OA
ATOM      9  C   UNL     1       0.684   3.485  20.309  0.00  0.00    +0.000 C 
ATOM     10  C   UNL     1       1.079   4.943  20.520  0.00  0.00    +0.000 C 
ENDROOT
BRANCH   1  14
ATOM     11  C   UNL     1       8.884   4.381  18.391  0.00  0.00    +0.000 C 
ATOM     12  C   UNL     1       7.565   4.591  17.710  0.00  0.00    +0.000 A 
ATOM     13  C   UNL     1       6.430   4.934  18.435  0.00  0.00    +0.000 A 
ATOM     14  C   UNL     1       5.229   5.141  17.756  0.00  0.00    +0.000 A 
ATOM     15  C   UNL     1       5.223   5.033  16.366  0.00  0.00    +0.000 A 
ATOM     16  C   UNL     1       6.388   4.663  15.711  0.00  0.00    +0.000 A 
ATOM     17  C   UNL     1       6.399   4.480  14.224  0.00  0.00    +0.000 C 
ATOM     18  N   UNL     1       7.551   4.441  16.364  0.00  0.00    +0.000 NA
ENDBRANCH   1  14
BRANCH   3  19
ATOM     19  C   UNL     1       1.709   7.922  19.710  0.00  0.00    +0.000 A 
ATOM     20  C   UNL     1       1.455   8.887  18.731  0.00  0.00    +0.000 A 
ATOM     21  C   UNL     1       0.778  10.073  19.048  0.00  0.00    +0.000 A 
ATOM     22  C   UNL     1       0.332  10.339  20.351  0.00  0.00    +0.000 A 
ATOM     23  C   UNL     1       0.587   9.377  21.337  0.00  0.00    +0.000 A 
ATOM     24 CL   UNL     1       0.095   9.471  22.993  0.00  0.00    +0.000 Cl
ATOM     25  C   UNL     1       1.285   8.198  21.012  0.00  0.00    +0.000 A 
BRANCH  22  26
ATOM     26  O   UNL     1      -0.310  11.546  20.430  0.00  0.00    +0.000 OA
BRANCH  26  27
ATOM     27  C   UNL     1      -0.860  12.141  19.257  0.00  0.00    +0.000 C 
BRANCH  27  28
ATOM     28  C   UNL     1      -2.346  11.834  19.156  0.00  0.00    +0.000 C 
ATOM     29  F   UNL     1      -3.044  12.752  19.874  0.00  0.00    +0.000 F 
ATOM     30  F   UNL     1      -2.762  11.957  17.871  0.00  0.00    +0.000 F 
ENDBRANCH  27  28
ENDBRANCH  26  27
ENDBRANCH  22  26
ENDBRANCH   3  19
TORSDOF 5
ENDMDL
MODEL 9
REMARK VINA RESULT:      -7.8      5.591      8.983
REMARK  Name = 
REMARK  7 active torsions:
REMARK  status: ('A' for Active; 'I' for Inactive)
REMARK    1  A    between atoms: C_1  and  C_2
REMARK    2  A    between atoms: C_4  and  C_5
REMARK    3  A    between atoms: C_7  and  C_8
REMARK    4  A    between atoms: C_11  and  O_12
REMARK    5  A    between atoms: O_12  and  C_13
REMARK    6  A    between atoms: C_13  and  C_14
REMARK    7  A    between atoms: C_28  and  C_29
REMARK                            x       y       z     vdW  Elec       q    Type
REMARK                         _______ _______ _______ _____ _____    ______ ____
ROOT
ATOM      1  C   UNL     1       3.794   6.179  18.466  0.00  0.00    +0.000 A 
ATOM      2  N   UNL     1       3.173   7.375  18.711  0.00  0.00    +0.000 NA
ATOM      3  C   UNL     1       2.154   7.129  19.515  0.00  0.00    +0.000 A 
ATOM      4  N   UNL     1       2.072   5.762  19.750  0.00  0.00    +0.000 N 
ATOM      5  C   UNL     1       3.155   5.152  19.136  0.00  0.00    +0.000 A 
ATOM      6  C   UNL     1       3.480   3.691  19.243  0.00  0.00    +0.000 C 
ATOM      7  C   UNL     1       3.122   3.081  20.595  0.00  0.00    +0.000 C 
ATOM      8  O   UNL     1       1.748   2.720  20.731  0.00  0.00    +0.000 OA
ATOM      9  C   UNL     1       0.803   3.623  20.157  0.00  0.00    +0.000 C 
ATOM     10  C   UNL     1       1.037   5.086  20.520  0.00  0.00    +0.000 C 
ENDROOT
BRANCH   1  14
ATOM     11  C   UNL     1       6.318   4.090  14.713  0.00  0.00    +0.000 C 
ATOM     12  C   UNL     1       6.192   5.096  15.818  0.00  0.00    +0.000 A 
ATOM     13  C   UNL     1       5.054   5.148  16.613  0.00  0.00    +0.000 A 
ATOM     14  C   UNL     1       4.991   6.086  17.644  0.00  0.00    +0.000 A 
ATOM     15  C   UNL     1       6.092   6.912  17.861  0.00  0.00    +0.000 A 
ATOM     16  C   UNL     1       7.184   6.821  17.011  0.00  0.00    +0.000 A 
ATOM     17  C   UNL     1       8.359   7.735  17.181  0.00  0.00    +0.000 C 
ATOM     18  N   UNL     1       7.245   5.929  15.998  0.00  0.00    +0.000 NA
ENDBRANCH   1  14
BRANCH   3  19
ATOM     19  C   UNL     1       1.276   8.190  20.035  0.00  0.00    +0.000 A 
ATOM     20  C   UNL     1       0.713   9.113  19.149  0.00  0.00    +0.000 A 
ATOM     21  C   UNL     1      -0.084  10.166  19.617  0.00  0.00    +0.000 A 
ATOM     22  C   UNL     1      -0.349  10.337  20.984  0.00  0.00    +0.000 A 
ATOM     23  C   UNL     1       0.215   9.416  21.877  0.00  0.00    +0.000 A 
ATOM     24 CL   UNL     1      -0.009   9.406  23.593  0.00  0.00    +0.000 Cl
ATOM     25  C   UNL     1       1.031   8.374  21.399  0.00  0.00    +0.000 A 
BRANCH  22  26
ATOM     26  O   UNL     1      -1.155  11.420  21.213  0.00  0.00    +0.000 OA
BRANCH  26  27
ATOM     27  C   UNL     1      -0.676  12.515  21.990  0.00  0.00    +0.000 C 
BRANCH  27  28
ATOM     28  C   UNL     1      -1.725  12.939  23.006  0.00  0.00    +0.000 C 
ATOM     29  F   UNL     1      -2.228  11.835  23.619  0.00  0.00    +0.000 F 
ATOM     30  F   UNL     1      -1.155  13.691  23.981  0.00  0.00    +0.000 F 
ENDBRANCH  27  28
ENDBRANCH  26  27
ENDBRANCH  22  26
ENDBRANCH   3  19
TORSDOF 5
ENDMDL
