MODEL 1
REMARK VINA RESULT:      -7.9      0.000      0.000
REMARK  Name = 
REMARK  10 active torsions:
REMARK  status: ('A' for Active; 'I' for Inactive)
REMARK    1  A    between atoms: C_1  and  C_2
REMARK    2  A    between atoms: C_2  and  C_3
REMARK    3  A    between atoms: C_2  and  C_4
REMARK    4  A    between atoms: C_2  and  C_5
REMARK    5  A    between atoms: C_5  and  N_6
REMARK    6  A    between atoms: C_12  and  C_13
REMARK    7  A    between atoms: C_13  and  C_14
REMARK    8  A    between atoms: N_16  and  C_17
REMARK    9  A    between atoms: C_17  and  C_18
REMARK   10  A    between atoms: C_22  and  N_23
REMARK                            x       y       z     vdW  Elec       q    Type
REMARK                         _______ _______ _______ _____ _____    ______ ____
ROOT
ATOM      1  C   UNL     1       2.555   7.256  18.744  0.00  0.00    +0.000 C 
ATOM      2  O   UNL     1       2.520   6.612  19.788  0.00  0.00    +0.000 OA
ATOM      3  N   UNL     1       1.929   8.474  18.579  0.00  0.00    +0.000 N 
ATOM      4  H   UNL     1       2.179   9.037  17.777  0.00  0.00    +0.000 HD
ENDROOT
BRANCH   1   5
ATOM      5  C   UNL     1       3.221   6.745  17.477  0.00  0.00    +0.000 C 
BRANCH   5  12
ATOM      6  N   UNL     1       4.935   5.037  18.364  0.00  0.00    +0.000 NA
ATOM      7  C   UNL     1       6.399   4.866  18.476  0.00  0.00    +0.000 C 
ATOM      8  C   UNL     1       7.124   4.923  17.126  0.00  0.00    +0.000 C 
ATOM      9  N   UNL     1       6.790   6.115  16.383  0.00  0.00    +0.000 N 
ATOM     10  C   UNL     1       5.488   6.560  16.386  0.00  0.00    +0.000 C 
ATOM     11  O   UNL     1       5.046   7.118  15.385  0.00  0.00    +0.000 OA
ATOM     12  C   UNL     1       4.698   6.391  17.717  0.00  0.00    +0.000 C 
ATOM     13  H   UNL     1       7.257   6.274  15.499  0.00  0.00    +0.000 HD
BRANCH   6  14
ATOM     14  C   UNL     1       4.216   3.932  17.695  0.00  0.00    +0.000 C 
BRANCH  14  16
ATOM     15  C   UNL     1       3.355   1.594  18.290  0.00  0.00    +0.000 C 
ATOM     16  C   UNL     1       3.136   3.105  18.482  0.00  0.00    +0.000 C 
ATOM     17  C   UNL     1       1.685   3.459  18.120  0.00  0.00    +0.000 C 
ATOM     18  C   UNL     1       3.310   3.427  19.986  0.00  0.00    +0.000 C 
ENDBRANCH  14  16
ENDBRANCH   6  14
ENDBRANCH   5  12
ENDBRANCH   1   5
BRANCH   3  19
ATOM     19  C   UNL     1       1.352   9.179  19.702  0.00  0.00    +0.000 C 
BRANCH  19  20
ATOM     20  C   UNL     1       0.597  10.395  19.234  0.00  0.00    +0.000 A 
ATOM     21  C   UNL     1       1.037  11.672  19.603  0.00  0.00    +0.000 A 
ATOM     22  C   UNL     1       0.348  12.809  19.184  0.00  0.00    +0.000 A 
ATOM     23  C   UNL     1      -0.805  12.684  18.404  0.00  0.00    +0.000 A 
ATOM     24  C   UNL     1      -1.279  11.418  18.046  0.00  0.00    +0.000 A 
ATOM     25  C   UNL     1      -0.573  10.273  18.463  0.00  0.00    +0.000 A 
BRANCH  24  26
ATOM     26  N   UNL     1      -2.474  11.269  17.286  0.00  0.00    +0.000 N 
ATOM     27  C   UNL     1      -3.763  11.606  17.651  0.00  0.00    +0.000 A 
ATOM     28  C   UNL     1      -4.589  11.236  16.617  0.00  0.00    +0.000 A 
ATOM     29  C   UNL     1      -3.726  10.696  15.655  0.00  0.00    +0.000 A 
ATOM     30  N   UNL     1      -2.452  10.713  16.045  0.00  0.00    +0.000 NA
ENDBRANCH  24  26
ENDBRANCH  19  20
ENDBRANCH   3  19
TORSDOF 7
ENDMDL
MODEL 2
REMARK VINA RESULT:      -7.8      0.656      1.067
REMARK  Name = 
REMARK  10 active torsions:
REMARK  status: ('A' for Active; 'I' for Inactive)
REMARK    1  A    between atoms: C_1  and  C_2
REMARK    2  A    between atoms: C_2  and  C_3
REMARK    3  A    between atoms: C_2  and  C_4
REMARK    4  A    between atoms: C_2  and  C_5
REMARK    5  A    between atoms: C_5  and  N_6
REMARK    6  A    between atoms: C_12  and  C_13
REMARK    7  A    between atoms: C_13  and  C_14
REMARK    8  A    between atoms: N_16  and  C_17
REMARK    9  A    between atoms: C_17  and  C_18
REMARK   10  A    between atoms: C_22  and  N_23
REMARK                            x       y       z     vdW  Elec       q    Type
REMARK                         _______ _______ _______ _____ _____    ______ ____
ROOT
ATOM      1  C   UNL     1       2.592   7.013  18.952  0.00  0.00    +0.000 C 
ATOM      2  O   UNL     1       2.538   6.244  19.907  0.00  0.00    +0.000 OA
ATOM      3  N   UNL     1       2.018   8.267  18.950  0.00  0.00    +0.000 N 
ATOM      4  H   UNL     1       2.285   8.915  18.221  0.00  0.00    +0.000 HD
ENDROOT
BRANCH   1   5
ATOM      5  C   UNL     1       3.224   6.637  17.621  0.00  0.00    +0.000 C 
BRANCH   5  12
ATOM      6  N   UNL     1       4.987   4.919  18.382  0.00  0.00    +0.000 NA
ATOM      7  C   UNL     1       6.455   4.753  18.419  0.00  0.00    +0.000 C 
ATOM      8  C   UNL     1       7.114   4.846  17.037  0.00  0.00    +0.000 C 
ATOM      9  N   UNL     1       6.738   6.054  16.339  0.00  0.00    +0.000 N 
ATOM     10  C   UNL     1       5.435   6.491  16.417  0.00  0.00    +0.000 C 
ATOM     11  O   UNL     1       4.942   7.070  15.452  0.00  0.00    +0.000 OA
ATOM     12  C   UNL     1       4.712   6.286  17.781  0.00  0.00    +0.000 C 
ATOM     13  H   UNL     1       7.160   6.237  15.439  0.00  0.00    +0.000 HD
BRANCH   6  14
ATOM     14  C   UNL     1       4.242   3.826  17.723  0.00  0.00    +0.000 C 
BRANCH  14  16
ATOM     15  C   UNL     1       1.796   3.220  18.191  0.00  0.00    +0.000 C 
ATOM     16  C   UNL     1       3.262   2.925  18.558  0.00  0.00    +0.000 C 
ATOM     17  C   UNL     1       3.438   3.045  20.081  0.00  0.00    +0.000 C 
ATOM     18  C   UNL     1       3.560   1.451  18.192  0.00  0.00    +0.000 C 
ENDBRANCH  14  16
ENDBRANCH   6  14
ENDBRANCH   5  12
ENDBRANCH   1   5
BRANCH   3  19
ATOM     19  C   UNL     1       1.482   8.848  20.160  0.00  0.00    +0.000 C 
BRANCH  19  20
ATOM     20  C   UNL     1       0.502   9.943  19.834  0.00  0.00    +0.000 A 
ATOM     21  C   UNL     1       0.432  11.080  20.648  0.00  0.00    +0.000 A 
ATOM     22  C   UNL     1      -0.472  12.103  20.365  0.00  0.00    +0.000 A 
ATOM     23  C   UNL     1      -1.337  11.993  19.272  0.00  0.00    +0.000 A 
ATOM     24  C   UNL     1      -1.304  10.855  18.461  0.00  0.00    +0.000 A 
ATOM     25  C   UNL     1      -0.381   9.830  18.745  0.00  0.00    +0.000 A 
BRANCH  24  26
ATOM     26  N   UNL     1      -2.204  10.707  17.367  0.00  0.00    +0.000 N 
ATOM     27  C   UNL     1      -3.356  11.425  17.107  0.00  0.00    +0.000 A 
ATOM     28  C   UNL     1      -3.917  10.898  15.970  0.00  0.00    +0.000 A 
ATOM     29  C   UNL     1      -3.041   9.873  15.589  0.00  0.00    +0.000 A 
ATOM     30  N   UNL     1      -2.006   9.751  16.420  0.00  0.00    +0.000 NA
ENDBRANCH  24  26
ENDBRANCH  19  20
ENDBRANCH   3  19
TORSDOF 7
ENDMDL
MODEL 3
REMARK VINA RESULT:      -7.6      2.961      4.582
REMARK  Name = 
REMARK  10 active torsions:
REMARK  status: ('A' for Active; 'I' for Inactive)
REMARK    1  A    between atoms: C_1  and  C_2
REMARK    2  A    between atoms: C_2  and  C_3
REMARK    3  A    between atoms: C_2  and  C_4
REMARK    4  A    between atoms: C_2  and  C_5
REMARK    5  A    between atoms: C_5  and  N_6
REMARK    6  A    between atoms: C_12  and  C_13
REMARK    7  A    between atoms: C_13  and  C_14
REMARK    8  A    between atoms: N_16  and  C_17
REMARK    9  A    between atoms: C_17  and  C_18
REMARK   10  A    between atoms: C_22  and  N_23
REMARK                            x       y       z     vdW  Elec       q    Type
REMARK                         _______ _______ _______ _____ _____    ______ ____
ROOT
ATOM      1  C   UNL     1       2.351   8.192  18.291  0.00  0.00    +0.000 C 
ATOM      2  O   UNL     1       2.340   8.802  17.226  0.00  0.00    +0.000 OA
ATOM      3  N   UNL     1       1.626   8.580  19.399  0.00  0.00    +0.000 N 
ATOM      4  H   UNL     1       1.518   7.919  20.156  0.00  0.00    +0.000 HD
ENDROOT
BRANCH   1   5
ATOM      5  C   UNL     1       3.236   6.983  18.543  0.00  0.00    +0.000 C 
BRANCH   5  12
ATOM      6  N   UNL     1       3.221   4.690  17.367  0.00  0.00    +0.000 NA
ATOM      7  C   UNL     1       2.369   3.487  17.256  0.00  0.00    +0.000 C 
ATOM      8  C   UNL     1       2.080   2.819  18.605  0.00  0.00    +0.000 C 
ATOM      9  N   UNL     1       1.546   3.753  19.568  0.00  0.00    +0.000 N 
ATOM     10  C   UNL     1       2.071   5.024  19.625  0.00  0.00    +0.000 C 
ATOM     11  O   UNL     1       2.119   5.602  20.709  0.00  0.00    +0.000 OA
ATOM     12  C   UNL     1       2.489   5.667  18.270  0.00  0.00    +0.000 C 
ATOM     13  H   UNL     1       1.272   3.401  20.476  0.00  0.00    +0.000 HD
BRANCH   6  14
ATOM     14  C   UNL     1       4.618   4.442  17.780  0.00  0.00    +0.000 C 
BRANCH  14  16
ATOM     15  C   UNL     1       5.668   6.135  16.168  0.00  0.00    +0.000 C 
ATOM     16  C   UNL     1       5.797   4.729  16.781  0.00  0.00    +0.000 C 
ATOM     17  C   UNL     1       5.935   3.693  15.654  0.00  0.00    +0.000 C 
ATOM     18  C   UNL     1       7.115   4.679  17.592  0.00  0.00    +0.000 C 
ENDBRANCH  14  16
ENDBRANCH   6  14
ENDBRANCH   5  12
ENDBRANCH   1   5
BRANCH   3  19
ATOM     19  C   UNL     1       0.635   9.629  19.316  0.00  0.00    +0.000 C 
BRANCH  19  20
ATOM     20  C   UNL     1       0.087   9.949  20.682  0.00  0.00    +0.000 A 
ATOM     21  C   UNL     1       0.304   9.063  21.744  0.00  0.00    +0.000 A 
ATOM     22  C   UNL     1      -0.199   9.339  23.014  0.00  0.00    +0.000 A 
ATOM     23  C   UNL     1      -0.947  10.499  23.236  0.00  0.00    +0.000 A 
ATOM     24  C   UNL     1      -1.201  11.385  22.184  0.00  0.00    +0.000 A 
ATOM     25  C   UNL     1      -0.680  11.106  20.906  0.00  0.00    +0.000 A 
BRANCH  24  26
ATOM     26  N   UNL     1      -1.994  12.551  22.381  0.00  0.00    +0.000 N 
ATOM     27  C   UNL     1      -3.086  12.973  21.648  0.00  0.00    +0.000 A 
ATOM     28  C   UNL     1      -3.495  14.173  22.178  0.00  0.00    +0.000 A 
ATOM     29  C   UNL     1      -2.611  14.405  23.239  0.00  0.00    +0.000 A 
ATOM     30  N   UNL     1      -1.706  13.436  23.373  0.00  0.00    +0.000 NA
ENDBRANCH  24  26
ENDBRANCH  19  20
ENDBRANCH   3  19
TORSDOF 7
ENDMDL
MODEL 4
REMARK VINA RESULT:      -7.6      1.506      3.316
REMARK  Name = 
REMARK  10 active torsions:
REMARK  status: ('A' for Active; 'I' for Inactive)
REMARK    1  A    between atoms: C_1  and  C_2
REMARK    2  A    between atoms: C_2  and  C_3
REMARK    3  A    between atoms: C_2  and  C_4
REMARK    4  A    between atoms: C_2  and  C_5
REMARK    5  A    between atoms: C_5  and  N_6
REMARK    6  A    between atoms: C_12  and  C_13
REMARK    7  A    between atoms: C_13  and  C_14
REMARK    8  A    between atoms: N_16  and  C_17
REMARK    9  A    between atoms: C_17  and  C_18
REMARK   10  A    between atoms: C_22  and  N_23
REMARK                            x       y       z     vdW  Elec       q    Type
REMARK                         _______ _______ _______ _____ _____    ______ ____
ROOT
ATOM      1  C   UNL     1       2.639   7.593  18.393  0.00  0.00    +0.000 C 
ATOM      2  O   UNL     1       3.143   7.633  17.275  0.00  0.00    +0.000 OA
ATOM      3  N   UNL     1       1.816   8.580  18.893  0.00  0.00    +0.000 N 
ATOM      4  H   UNL     1       1.274   8.378  19.722  0.00  0.00    +0.000 HD
ENDROOT
BRANCH   1   5
ATOM      5  C   UNL     1       2.935   6.490  19.395  0.00  0.00    +0.000 C 
BRANCH   5  12
ATOM      6  N   UNL     1       4.206   4.729  18.008  0.00  0.00    +0.000 NA
ATOM      7  C   UNL     1       4.016   3.364  17.474  0.00  0.00    +0.000 C 
ATOM      8  C   UNL     1       3.717   2.322  18.559  0.00  0.00    +0.000 C 
ATOM      9  N   UNL     1       2.611   2.718  19.399  0.00  0.00    +0.000 N 
ATOM     10  C   UNL     1       2.502   4.035  19.782  0.00  0.00    +0.000 C 
ATOM     11  O   UNL     1       2.024   4.298  20.883  0.00  0.00    +0.000 OA
ATOM     12  C   UNL     1       2.924   5.104  18.731  0.00  0.00    +0.000 C 
ATOM     13  H   UNL     1       2.299   2.074  20.114  0.00  0.00    +0.000 HD
BRANCH   6  14
ATOM     14  C   UNL     1       5.421   4.927  18.825  0.00  0.00    +0.000 C 
BRANCH  14  16
ATOM     15  C   UNL     1       6.443   6.829  17.445  0.00  0.00    +0.000 C 
ATOM     16  C   UNL     1       6.729   5.500  18.168  0.00  0.00    +0.000 C 
ATOM     17  C   UNL     1       7.422   4.531  17.196  0.00  0.00    +0.000 C 
ATOM     18  C   UNL     1       7.737   5.782  19.308  0.00  0.00    +0.000 C 
ENDBRANCH  14  16
ENDBRANCH   6  14
ENDBRANCH   5  12
ENDBRANCH   1   5
BRANCH   3  19
ATOM     19  C   UNL     1       1.321   9.644  18.047  0.00  0.00    +0.000 C 
BRANCH  19  20
ATOM     20  C   UNL     1       0.274  10.450  18.768  0.00  0.00    +0.000 A 
ATOM     21  C   UNL     1       0.551  10.977  20.035  0.00  0.00    +0.000 A 
ATOM     22  C   UNL     1      -0.407  11.722  20.720  0.00  0.00    +0.000 A 
ATOM     23  C   UNL     1      -1.668  11.935  20.155  0.00  0.00    +0.000 A 
ATOM     24  C   UNL     1      -1.977  11.395  18.902  0.00  0.00    +0.000 A 
ATOM     25  C   UNL     1      -1.001  10.653  18.210  0.00  0.00    +0.000 A 
BRANCH  24  26
ATOM     26  N   UNL     1      -3.268  11.567  18.328  0.00  0.00    +0.000 N 
ATOM     27  C   UNL     1      -4.431  11.981  18.950  0.00  0.00    +0.000 A 
ATOM     28  C   UNL     1      -5.431  11.950  18.009  0.00  0.00    +0.000 A 
ATOM     29  C   UNL     1      -4.795  11.522  16.836  0.00  0.00    +0.000 A 
ATOM     30  N   UNL     1      -3.495  11.291  17.015  0.00  0.00    +0.000 NA
ENDBRANCH  24  26
ENDBRANCH  19  20
ENDBRANCH   3  19
TORSDOF 7
ENDMDL
MODEL 5
REMARK VINA RESULT:      -7.6      2.741      4.425
REMARK  Name = 
REMARK  10 active torsions:
REMARK  status: ('A' for Active; 'I' for Inactive)
REMARK    1  A    between atoms: C_1  and  C_2
REMARK    2  A    between atoms: C_2  and  C_3
REMARK    3  A    between atoms: C_2  and  C_4
REMARK    4  A    between atoms: C_2  and  C_5
REMARK    5  A    between atoms: C_5  and  N_6
REMARK    6  A    between atoms: C_12  and  C_13
REMARK    7  A    between atoms: C_13  and  C_14
REMARK    8  A    between atoms: N_16  and  C_17
REMARK    9  A    between atoms: C_17  and  C_18
REMARK   10  A    between atoms: C_22  and  N_23
REMARK                            x       y       z     vdW  Elec       q    Type
REMARK                         _______ _______ _______ _____ _____    ______ ____
ROOT
ATOM      1  C   UNL     1       2.436   7.151  19.190  0.00  0.00    +0.000 C 
ATOM      2  O   UNL     1       2.411   7.360  17.981  0.00  0.00    +0.000 OA
ATOM      3  N   UNL     1       1.896   8.012  20.123  0.00  0.00    +0.000 N 
ATOM      4  H   UNL     1       1.766   7.674  21.067  0.00  0.00    +0.000 HD
ENDROOT
BRANCH   1   5
ATOM      5  C   UNL     1       3.149   5.960  19.810  0.00  0.00    +0.000 C 
BRANCH   5  12
ATOM      6  N   UNL     1       4.032   4.341  18.011  0.00  0.00    +0.000 NA
ATOM      7  C   UNL     1       3.655   3.071  17.356  0.00  0.00    +0.000 C 
ATOM      8  C   UNL     1       3.472   1.909  18.340  0.00  0.00    +0.000 C 
ATOM      9  N   UNL     1       2.557   2.242  19.407  0.00  0.00    +0.000 N 
ATOM     10  C   UNL     1       2.612   3.501  19.963  0.00  0.00    +0.000 C 
ATOM     11  O   UNL     1       2.349   3.637  21.155  0.00  0.00    +0.000 OA
ATOM     12  C   UNL     1       2.923   4.678  18.993  0.00  0.00    +0.000 C 
ATOM     13  H   UNL     1       2.327   1.525  20.081  0.00  0.00    +0.000 HD
BRANCH   6  14
ATOM     14  C   UNL     1       5.381   4.367  18.616  0.00  0.00    +0.000 C 
BRANCH  14  16
ATOM     15  C   UNL     1       7.464   5.760  19.147  0.00  0.00    +0.000 C 
ATOM     16  C   UNL     1       6.483   5.329  18.042  0.00  0.00    +0.000 C 
ATOM     17  C   UNL     1       5.926   6.579  17.341  0.00  0.00    +0.000 C 
ATOM     18  C   UNL     1       7.279   4.540  16.975  0.00  0.00    +0.000 C 
ENDBRANCH  14  16
ENDBRANCH   6  14
ENDBRANCH   5  12
ENDBRANCH   1   5
BRANCH   3  19
ATOM     19  C   UNL     1       1.072   9.130  19.722  0.00  0.00    +0.000 C 
BRANCH  19  20
ATOM     20  C   UNL     1       0.335   9.696  20.907  0.00  0.00    +0.000 A 
ATOM     21  C   UNL     1       0.471   9.096  22.164  0.00  0.00    +0.000 A 
ATOM     22  C   UNL     1      -0.207   9.602  23.271  0.00  0.00    +0.000 A 
ATOM     23  C   UNL     1      -1.051  10.708  23.132  0.00  0.00    +0.000 A 
ATOM     24  C   UNL     1      -1.225  11.308  21.881  0.00  0.00    +0.000 A 
ATOM     25  C   UNL     1      -0.528  10.799  20.769  0.00  0.00    +0.000 A 
BRANCH  24  26
ATOM     26  N   UNL     1      -2.110  12.410  21.712  0.00  0.00    +0.000 N 
ATOM     27  C   UNL     1      -2.334  13.156  20.571  0.00  0.00    +0.000 A 
ATOM     28  C   UNL     1      -3.235  14.141  20.897  0.00  0.00    +0.000 A 
ATOM     29  C   UNL     1      -3.523  13.917  22.250  0.00  0.00    +0.000 A 
ATOM     30  N   UNL     1      -2.855  12.878  22.749  0.00  0.00    +0.000 NA
ENDBRANCH  24  26
ENDBRANCH  19  20
ENDBRANCH   3  19
TORSDOF 7
ENDMDL
MODEL 6
REMARK VINA RESULT:      -7.5      0.994      1.145
REMARK  Name = 
REMARK  10 active torsions:
REMARK  status: ('A' for Active; 'I' for Inactive)
REMARK    1  A    between atoms: C_1  and  C_2
REMARK    2  A    between atoms: C_2  and  C_3
REMARK    3  A    between atoms: C_2  and  C_4
REMARK    4  A    between atoms: C_2  and  C_5
REMARK    5  A    between atoms: C_5  and  N_6
REMARK    6  A    between atoms: C_12  and  C_13
REMARK    7  A    between atoms: C_13  and  C_14
REMARK    8  A    between atoms: N_16  and  C_17
REMARK    9  A    between atoms: C_17  and  C_18
REMARK   10  A    between atoms: C_22  and  N_23
REMARK                            x       y       z     vdW  Elec       q    Type
REMARK                         _______ _______ _______ _____ _____    ______ ____
ROOT
ATOM      1  C   UNL     1       2.302   6.854  19.375  0.00  0.00    +0.000 C 
ATOM      2  O   UNL     1       2.092   6.040  20.269  0.00  0.00    +0.000 OA
ATOM      3  N   UNL     1       1.887   8.168  19.428  0.00  0.00    +0.000 N 
ATOM      4  H   UNL     1       2.279   8.821  18.763  0.00  0.00    +0.000 HD
ENDROOT
BRANCH   1   5
ATOM      5  C   UNL     1       2.970   6.485  18.061  0.00  0.00    +0.000 C 
BRANCH   5  12
ATOM      6  N   UNL     1       4.789   4.800  18.761  0.00  0.00    +0.000 NA
ATOM      7  C   UNL     1       6.262   4.701  18.839  0.00  0.00    +0.000 C 
ATOM      8  C   UNL     1       6.960   4.925  17.492  0.00  0.00    +0.000 C 
ATOM      9  N   UNL     1       6.549   6.162  16.869  0.00  0.00    +0.000 N 
ATOM     10  C   UNL     1       5.224   6.530  16.931  0.00  0.00    +0.000 C 
ATOM     11  O   UNL     1       4.736   7.155  15.992  0.00  0.00    +0.000 OA
ATOM     12  C   UNL     1       4.467   6.193  18.249  0.00  0.00    +0.000 C 
ATOM     13  H   UNL     1       6.991   6.429  16.000  0.00  0.00    +0.000 HD
BRANCH   6  14
ATOM     14  C   UNL     1       4.121   3.725  17.999  0.00  0.00    +0.000 C 
BRANCH  14  16
ATOM     15  C   UNL     1       3.516   1.264  18.378  0.00  0.00    +0.000 C 
ATOM     16  C   UNL     1       3.161   2.719  18.732  0.00  0.00    +0.000 C 
ATOM     17  C   UNL     1       1.668   2.959  18.459  0.00  0.00    +0.000 C 
ATOM     18  C   UNL     1       3.369   2.905  20.255  0.00  0.00    +0.000 C 
ENDBRANCH  14  16
ENDBRANCH   6  14
ENDBRANCH   5  12
ENDBRANCH   1   5
BRANCH   3  19
ATOM     19  C   UNL     1       1.348   8.736  20.644  0.00  0.00    +0.000 C 
BRANCH  19  20
ATOM     20  C   UNL     1       0.407   9.868  20.328  0.00  0.00    +0.000 A 
ATOM     21  C   UNL     1       0.366  10.992  21.162  0.00  0.00    +0.000 A 
ATOM     22  C   UNL     1      -0.502  12.048  20.889  0.00  0.00    +0.000 A 
ATOM     23  C   UNL     1      -1.359  11.986  19.786  0.00  0.00    +0.000 A 
ATOM     24  C   UNL     1      -1.356  10.861  18.955  0.00  0.00    +0.000 A 
ATOM     25  C   UNL     1      -0.469   9.803  19.230  0.00  0.00    +0.000 A 
BRANCH  24  26
ATOM     26  N   UNL     1      -2.249  10.762  17.851  0.00  0.00    +0.000 N 
ATOM     27  C   UNL     1      -2.141   9.951  16.738  0.00  0.00    +0.000 A 
ATOM     28  C   UNL     1      -3.211  10.233  15.922  0.00  0.00    +0.000 A 
ATOM     29  C   UNL     1      -3.930  11.214  16.617  0.00  0.00    +0.000 A 
ATOM     30  N   UNL     1      -3.363  11.538  17.778  0.00  0.00    +0.000 NA
ENDBRANCH  24  26
ENDBRANCH  19  20
ENDBRANCH   3  19
TORSDOF 7
ENDMDL
MODEL 7
REMARK VINA RESULT:      -7.5      1.559      2.462
REMARK  Name = 
REMARK  10 active torsions:
REMARK  status: ('A' for Active; 'I' for Inactive)
REMARK    1  A    between atoms: C_1  and  C_2
REMARK    2  A    between atoms: C_2  and  C_3
REMARK    3  A    between atoms: C_2  and  C_4
REMARK    4  A    between atoms: C_2  and  C_5
REMARK    5  A    between atoms: C_5  and  N_6
REMARK    6  A    between atoms: C_12  and  C_13
REMARK    7  A    between atoms: C_13  and  C_14
REMARK    8  A    between atoms: N_16  and  C_17
REMARK    9  A    between atoms: C_17  and  C_18
REMARK   10  A    between atoms: C_22  and  N_23
REMARK                            x       y       z     vdW  Elec       q    Type
REMARK                         _______ _______ _______ _____ _____    ______ ____
ROOT
ATOM      1  C   UNL     1       2.516   7.605  18.535  0.00  0.00    +0.000 C 
ATOM      2  O   UNL     1       2.528   7.145  19.673  0.00  0.00    +0.000 OA
ATOM      3  N   UNL     1       1.843   8.758  18.187  0.00  0.00    +0.000 N 
ATOM      4  H   UNL     1       2.054   9.184  17.295  0.00  0.00    +0.000 HD
ENDROOT
BRANCH   1   5
ATOM      5  C   UNL     1       3.169   6.908  17.353  0.00  0.00    +0.000 C 
BRANCH   5  12
ATOM      6  N   UNL     1       4.781   5.199  18.413  0.00  0.00    +0.000 NA
ATOM      7  C   UNL     1       6.232   4.974  18.582  0.00  0.00    +0.000 C 
ATOM      8  C   UNL     1       6.995   4.901  17.254  0.00  0.00    +0.000 C 
ATOM      9  N   UNL     1       6.736   6.048  16.417  0.00  0.00    +0.000 N 
ATOM     10  C   UNL     1       5.455   6.547  16.349  0.00  0.00    +0.000 C 
ATOM     11  O   UNL     1       5.066   7.049  15.297  0.00  0.00    +0.000 OA
ATOM     12  C   UNL     1       4.622   6.511  17.663  0.00  0.00    +0.000 C 
ATOM     13  H   UNL     1       7.233   6.122  15.539  0.00  0.00    +0.000 HD
BRANCH   6  14
ATOM     14  C   UNL     1       4.032   4.080  17.804  0.00  0.00    +0.000 C 
BRANCH  14  16
ATOM     15  C   UNL     1       3.001   3.724  20.123  0.00  0.00    +0.000 C 
ATOM     16  C   UNL     1       2.948   3.310  18.641  0.00  0.00    +0.000 C 
ATOM     17  C   UNL     1       3.042   1.779  18.538  0.00  0.00    +0.000 C 
ATOM     18  C   UNL     1       1.560   3.708  18.082  0.00  0.00    +0.000 C 
ENDBRANCH  14  16
ENDBRANCH   6  14
ENDBRANCH   5  12
ENDBRANCH   1   5
BRANCH   3  19
ATOM     19  C   UNL     1       1.268   9.623  19.192  0.00  0.00    +0.000 C 
BRANCH  19  20
ATOM     20  C   UNL     1      -0.087  10.114  18.757  0.00  0.00    +0.000 A 
ATOM     21  C   UNL     1      -0.653   9.635  17.569  0.00  0.00    +0.000 A 
ATOM     22  C   UNL     1      -1.904  10.081  17.147  0.00  0.00    +0.000 A 
ATOM     23  C   UNL     1      -2.601  11.032  17.899  0.00  0.00    +0.000 A 
ATOM     24  C   UNL     1      -2.044  11.546  19.075  0.00  0.00    +0.000 A 
ATOM     25  C   UNL     1      -0.784  11.082  19.501  0.00  0.00    +0.000 A 
BRANCH  24  26
ATOM     26  N   UNL     1      -2.720  12.543  19.832  0.00  0.00    +0.000 N 
ATOM     27  C   UNL     1      -2.169  13.580  20.561  0.00  0.00    +0.000 A 
ATOM     28  C   UNL     1      -3.205  14.254  21.160  0.00  0.00    +0.000 A 
ATOM     29  C   UNL     1      -4.355  13.576  20.734  0.00  0.00    +0.000 A 
ATOM     30  N   UNL     1      -4.076  12.548  19.934  0.00  0.00    +0.000 NA
ENDBRANCH  24  26
ENDBRANCH  19  20
ENDBRANCH   3  19
TORSDOF 7
ENDMDL
MODEL 8
REMARK VINA RESULT:      -7.5      3.087      4.782
REMARK  Name = 
REMARK  10 active torsions:
REMARK  status: ('A' for Active; 'I' for Inactive)
REMARK    1  A    between atoms: C_1  and  C_2
REMARK    2  A    between atoms: C_2  and  C_3
REMARK    3  A    between atoms: C_2  and  C_4
REMARK    4  A    between atoms: C_2  and  C_5
REMARK    5  A    between atoms: C_5  and  N_6
REMARK    6  A    between atoms: C_12  and  C_13
REMARK    7  A    between atoms: C_13  and  C_14
REMARK    8  A    between atoms: N_16  and  C_17
REMARK    9  A    between atoms: C_17  and  C_18
REMARK   10  A    between atoms: C_22  and  N_23
REMARK                            x       y       z     vdW  Elec       q    Type
REMARK                         _______ _______ _______ _____ _____    ______ ____
ROOT
ATOM      1  C   UNL     1       2.342   7.331  18.936  0.00  0.00    +0.000 C 
ATOM      2  O   UNL     1       2.163   7.541  17.741  0.00  0.00    +0.000 OA
ATOM      3  N   UNL     1       1.949   8.204  19.930  0.00  0.00    +0.000 N 
ATOM      4  H   UNL     1       1.936   7.869  20.884  0.00  0.00    +0.000 HD
ENDROOT
BRANCH   1   5
ATOM      5  C   UNL     1       3.101   6.123  19.461  0.00  0.00    +0.000 C 
BRANCH   5  12
ATOM      6  N   UNL     1       3.355   4.237  17.724  0.00  0.00    +0.000 NA
ATOM      7  C   UNL     1       2.697   2.974  17.328  0.00  0.00    +0.000 C 
ATOM      8  C   UNL     1       2.621   1.946  18.463  0.00  0.00    +0.000 C 
ATOM      9  N   UNL     1       2.023   2.499  19.655  0.00  0.00    +0.000 N 
ATOM     10  C   UNL     1       2.345   3.785  20.027  0.00  0.00    +0.000 C 
ATOM     11  O   UNL     1       2.384   4.067  21.223  0.00  0.00    +0.000 OA
ATOM     12  C   UNL     1       2.550   4.812  18.876  0.00  0.00    +0.000 C 
ATOM     13  H   UNL     1       1.878   1.886  20.447  0.00  0.00    +0.000 HD
BRANCH   6  14
ATOM     14  C   UNL     1       4.802   4.136  18.010  0.00  0.00    +0.000 C 
BRANCH  14  16
ATOM     15  C   UNL     1       5.883   3.804  15.711  0.00  0.00    +0.000 C 
ATOM     16  C   UNL     1       5.850   4.683  16.974  0.00  0.00    +0.000 C 
ATOM     17  C   UNL     1       7.275   4.823  17.533  0.00  0.00    +0.000 C 
ATOM     18  C   UNL     1       5.394   6.102  16.558  0.00  0.00    +0.000 C 
ENDBRANCH  14  16
ENDBRANCH   6  14
ENDBRANCH   5  12
ENDBRANCH   1   5
BRANCH   3  19
ATOM     19  C   UNL     1       1.108   9.343  19.638  0.00  0.00    +0.000 C 
BRANCH  19  20
ATOM     20  C   UNL     1       0.391   9.804  20.878  0.00  0.00    +0.000 A 
ATOM     21  C   UNL     1       0.016   8.872  21.854  0.00  0.00    +0.000 A 
ATOM     22  C   UNL     1      -0.653   9.279  23.007  0.00  0.00    +0.000 A 
ATOM     23  C   UNL     1      -0.976  10.626  23.192  0.00  0.00    +0.000 A 
ATOM     24  C   UNL     1      -0.637  11.572  22.219  0.00  0.00    +0.000 A 
ATOM     25  C   UNL     1       0.049  11.156  21.062  0.00  0.00    +0.000 A 
BRANCH  24  26
ATOM     26  N   UNL     1      -0.993  12.942  22.372  0.00  0.00    +0.000 N 
ATOM     27  C   UNL     1      -1.888  13.679  21.619  0.00  0.00    +0.000 A 
ATOM     28  C   UNL     1      -1.868  14.964  22.105  0.00  0.00    +0.000 A 
ATOM     29  C   UNL     1      -0.948  14.924  23.161  0.00  0.00    +0.000 A 
ATOM     30  N   UNL     1      -0.418  13.714  23.332  0.00  0.00    +0.000 NA
ENDBRANCH  24  26
ENDBRANCH  19  20
ENDBRANCH   3  19
TORSDOF 7
ENDMDL
MODEL 9
REMARK VINA RESULT:      -7.5      1.630      3.419
REMARK  Name = 
REMARK  10 active torsions:
REMARK  status: ('A' for Active; 'I' for Inactive)
REMARK    1  A    between atoms: C_1  and  C_2
REMARK    2  A    between atoms: C_2  and  C_3
REMARK    3  A    between atoms: C_2  and  C_4
REMARK    4  A    between atoms: C_2  and  C_5
REMARK    5  A    between atoms: C_5  and  N_6
REMARK    6  A    between atoms: C_12  and  C_13
REMARK    7  A    between atoms: C_13  and  C_14
REMARK    8  A    between atoms: N_16  and  C_17
REMARK    9  A    between atoms: C_17  and  C_18
REMARK   10  A    between atoms: C_22  and  N_23
REMARK                            x       y       z     vdW  Elec       q    Type
REMARK                         _______ _______ _______ _____ _____    ______ ____
ROOT
ATOM      1  C   UNL     1       2.604   7.621  18.363  0.00  0.00    +0.000 C 
ATOM      2  O   UNL     1       3.156   7.730  17.272  0.00  0.00    +0.000 OA
ATOM      3  N   UNL     1       1.722   8.554  18.866  0.00  0.00    +0.000 N 
ATOM      4  H   UNL     1       1.151   8.295  19.660  0.00  0.00    +0.000 HD
ENDROOT
BRANCH   1   5
ATOM      5  C   UNL     1       2.896   6.485  19.329  0.00  0.00    +0.000 C 
BRANCH   5  12
ATOM      6  N   UNL     1       3.532   4.662  17.622  0.00  0.00    +0.000 NA
ATOM      7  C   UNL     1       3.080   3.326  17.181  0.00  0.00    +0.000 C 
ATOM      8  C   UNL     1       3.057   2.288  18.310  0.00  0.00    +0.000 C 
ATOM      9  N   UNL     1       2.301   2.747  19.452  0.00  0.00    +0.000 N 
ATOM     10  C   UNL     1       2.418   4.062  19.843  0.00  0.00    +0.000 C 
ATOM     11  O   UNL     1       2.329   4.338  21.037  0.00  0.00    +0.000 OA
ATOM     12  C   UNL     1       2.572   5.116  18.708  0.00  0.00    +0.000 C 
ATOM     13  H   UNL     1       2.180   2.115  20.231  0.00  0.00    +0.000 HD
BRANCH   6  14
ATOM     14  C   UNL     1       4.953   4.753  18.018  0.00  0.00    +0.000 C 
BRANCH  14  16
ATOM     15  C   UNL     1       5.394   5.545  15.621  0.00  0.00    +0.000 C 
ATOM     16  C   UNL     1       6.014   5.331  17.014  0.00  0.00    +0.000 C 
ATOM     17  C   UNL     1       7.285   4.477  16.879  0.00  0.00    +0.000 C 
ATOM     18  C   UNL     1       6.462   6.711  17.555  0.00  0.00    +0.000 C 
ENDBRANCH  14  16
ENDBRANCH   6  14
ENDBRANCH   5  12
ENDBRANCH   1   5
BRANCH   3  19
ATOM     19  C   UNL     1       1.226   9.636  18.045  0.00  0.00    +0.000 C 
BRANCH  19  20
ATOM     20  C   UNL     1       0.190  10.435  18.790  0.00  0.00    +0.000 A 
ATOM     21  C   UNL     1       0.476  10.925  20.070  0.00  0.00    +0.000 A 
ATOM     22  C   UNL     1      -0.472  11.662  20.778  0.00  0.00    +0.000 A 
ATOM     23  C   UNL     1      -1.732  11.903  20.222  0.00  0.00    +0.000 A 
ATOM     24  C   UNL     1      -2.051  11.400  18.957  0.00  0.00    +0.000 A 
ATOM     25  C   UNL     1      -1.085  10.666  18.242  0.00  0.00    +0.000 A 
BRANCH  24  26
ATOM     26  N   UNL     1      -3.341  11.601  18.391  0.00  0.00    +0.000 N 
ATOM     27  C   UNL     1      -3.740  11.399  17.084  0.00  0.00    +0.000 A 
ATOM     28  C   UNL     1      -5.060  11.770  16.997  0.00  0.00    +0.000 A 
ATOM     29  C   UNL     1      -5.396  12.172  18.297  0.00  0.00    +0.000 A 
ATOM     30  N   UNL     1      -4.372  12.072  19.143  0.00  0.00    +0.000 NA
ENDBRANCH  24  26
ENDBRANCH  19  20
ENDBRANCH   3  19
TORSDOF 7
ENDMDL
