MODEL 1
REMARK VINA RESULT:      -6.8      0.000      0.000
REMARK  Name = 
REMARK  5 active torsions:
REMARK  status: ('A' for Active; 'I' for Inactive)
REMARK    1  A    between atoms: C_1  and  C_2
REMARK    2  A    between atoms: C_4  and  C_5
REMARK    3  A    between atoms: C_5  and  N_6
REMARK    4  A    between atoms: N_6  and  C_7
REMARK    5  A    between atoms: N_6  and  C_8
REMARK                            x       y       z     vdW  Elec       q    Type
REMARK                         _______ _______ _______ _____ _____    ______ ____
ROOT
ATOM      1  C   UNL     1       3.091   7.436  17.832  0.00  0.00    +0.000 C 
ATOM      2  C   UNL     1       3.915   6.272  17.248  0.00  0.00    +0.000 C 
ATOM      3  C   UNL     1       3.227   4.902  17.488  0.00  0.00    +0.000 C 
ATOM      4  C   UNL     1       3.378   4.468  18.949  0.00  0.00    +0.000 C 
ATOM      5  C   UNL     1       4.858   4.277  19.206  0.00  0.00    +0.000 C 
ATOM      6  O   UNL     1       5.276   3.293  19.803  0.00  0.00    +0.000 OA
ATOM      7  C   UNL     1       5.803   5.302  18.693  0.00  0.00    +0.000 A 
ATOM      8  C   UNL     1       7.150   5.304  19.099  0.00  0.00    +0.000 A 
ATOM      9  C   UNL     1       8.028   6.287  18.635  0.00  0.00    +0.000 A 
ATOM     10  C   UNL     1       7.570   7.277  17.764  0.00  0.00    +0.000 A 
ATOM     11  C   UNL     1       6.240   7.277  17.335  0.00  0.00    +0.000 A 
ATOM     12  C   UNL     1       5.346   6.287  17.780  0.00  0.00    +0.000 A 
ENDROOT
BRANCH   4  13
ATOM     13  C   UNL     1       2.518   3.223  19.262  0.00  0.00    +0.000 C 
BRANCH  13  14
ATOM     14  N   UNL     1       1.539   3.437  20.355  0.00  0.00    +0.000 NA
ATOM     15  C   UNL     1       1.909   2.712  21.589  0.00  0.00    +0.000 C 
ATOM     16  C   UNL     1       1.448   4.876  20.647  0.00  0.00    +0.000 C 
ENDBRANCH  13  14
ENDBRANCH   4  13
TORSDOF 2
ENDMDL
MODEL 2
REMARK VINA RESULT:      -6.7      2.261      5.330
REMARK  Name = 
REMARK  5 active torsions:
REMARK  status: ('A' for Active; 'I' for Inactive)
REMARK    1  A    between atoms: C_1  and  C_2
REMARK    2  A    between atoms: C_4  and  C_5
REMARK    3  A    between atoms: C_5  and  N_6
REMARK    4  A    between atoms: N_6  and  C_7
REMARK    5  A    between atoms: N_6  and  C_8
REMARK                            x       y       z     vdW  Elec       q    Type
REMARK                         _______ _______ _______ _____ _____    ______ ____
ROOT
ATOM      1  C   UNL     1       2.177   7.143  19.770  0.00  0.00    +0.000 C 
ATOM      2  C   UNL     1       3.034   5.873  19.935  0.00  0.00    +0.000 C 
ATOM      3  C   UNL     1       4.402   6.003  19.214  0.00  0.00    +0.000 C 
ATOM      4  C   UNL     1       4.230   5.867  17.698  0.00  0.00    +0.000 C 
ATOM      5  C   UNL     1       3.716   4.468  17.432  0.00  0.00    +0.000 C 
ATOM      6  O   UNL     1       4.192   3.776  16.541  0.00  0.00    +0.000 OA
ATOM      7  C   UNL     1       2.630   3.938  18.296  0.00  0.00    +0.000 A 
ATOM      8  C   UNL     1       1.954   2.753  17.953  0.00  0.00    +0.000 A 
ATOM      9  C   UNL     1       0.914   2.274  18.755  0.00  0.00    +0.000 A 
ATOM     10  C   UNL     1       0.538   2.973  19.904  0.00  0.00    +0.000 A 
ATOM     11  C   UNL     1       1.214   4.141  20.268  0.00  0.00    +0.000 A 
ATOM     12  C   UNL     1       2.271   4.631  19.481  0.00  0.00    +0.000 A 
ENDROOT
BRANCH   4  13
ATOM     13  C   UNL     1       5.537   6.211  16.947  0.00  0.00    +0.000 C 
BRANCH  13  14
ATOM     14  N   UNL     1       6.752   6.103  17.790  0.00  0.00    +0.000 NA
ATOM     15  C   UNL     1       7.516   4.868  17.516  0.00  0.00    +0.000 C 
ATOM     16  C   UNL     1       7.614   7.270  17.547  0.00  0.00    +0.000 C 
ENDBRANCH  13  14
ENDBRANCH   4  13
TORSDOF 2
ENDMDL
MODEL 3
REMARK VINA RESULT:      -6.4      0.965      1.377
REMARK  Name = 
REMARK  5 active torsions:
REMARK  status: ('A' for Active; 'I' for Inactive)
REMARK    1  A    between atoms: C_1  and  C_2
REMARK    2  A    between atoms: C_4  and  C_5
REMARK    3  A    between atoms: C_5  and  N_6
REMARK    4  A    between atoms: N_6  and  C_7
REMARK    5  A    between atoms: N_6  and  C_8
REMARK                            x       y       z     vdW  Elec       q    Type
REMARK                         _______ _______ _______ _____ _____    ______ ____
ROOT
ATOM      1  C   UNL     1       3.105   7.693  17.859  0.00  0.00    +0.000 C 
ATOM      2  C   UNL     1       3.878   6.479  17.309  0.00  0.00    +0.000 C 
ATOM      3  C   UNL     1       3.184   5.140  17.674  0.00  0.00    +0.000 C 
ATOM      4  C   UNL     1       3.410   4.799  19.151  0.00  0.00    +0.000 C 
ATOM      5  C   UNL     1       4.899   4.597  19.339  0.00  0.00    +0.000 C 
ATOM      6  O   UNL     1       5.334   3.647  19.976  0.00  0.00    +0.000 OA
ATOM      7  C   UNL     1       5.828   5.569  18.709  0.00  0.00    +0.000 A 
ATOM      8  C   UNL     1       7.196   5.573  19.041  0.00  0.00    +0.000 A 
ATOM      9  C   UNL     1       8.061   6.508  18.466  0.00  0.00    +0.000 A 
ATOM     10  C   UNL     1       7.570   7.448  17.558  0.00  0.00    +0.000 A 
ATOM     11  C   UNL     1       6.219   7.444  17.203  0.00  0.00    +0.000 A 
ATOM     12  C   UNL     1       5.336   6.502  17.760  0.00  0.00    +0.000 A 
ENDROOT
BRANCH   4  13
ATOM     13  C   UNL     1       2.550   3.592  19.590  0.00  0.00    +0.000 C 
BRANCH  13  14
ATOM     14  N   UNL     1       2.155   2.704  18.470  0.00  0.00    +0.000 NA
ATOM     15  C   UNL     1       3.060   1.545  18.328  0.00  0.00    +0.000 C 
ATOM     16  C   UNL     1       0.783   2.224  18.695  0.00  0.00    +0.000 C 
ENDBRANCH  13  14
ENDBRANCH   4  13
TORSDOF 2
ENDMDL
MODEL 4
REMARK VINA RESULT:      -6.4      2.472      5.392
REMARK  Name = 
REMARK  5 active torsions:
REMARK  status: ('A' for Active; 'I' for Inactive)
REMARK    1  A    between atoms: C_1  and  C_2
REMARK    2  A    between atoms: C_4  and  C_5
REMARK    3  A    between atoms: C_5  and  N_6
REMARK    4  A    between atoms: N_6  and  C_7
REMARK    5  A    between atoms: N_6  and  C_8
REMARK                            x       y       z     vdW  Elec       q    Type
REMARK                         _______ _______ _______ _____ _____    ______ ____
ROOT
ATOM      1  C   UNL     1       4.013   1.872  18.013  0.00  0.00    +0.000 C 
ATOM      2  C   UNL     1       3.122   3.003  17.466  0.00  0.00    +0.000 C 
ATOM      3  C   UNL     1       3.882   3.894  16.448  0.00  0.00    +0.000 C 
ATOM      4  C   UNL     1       4.866   4.821  17.169  0.00  0.00    +0.000 C 
ATOM      5  C   UNL     1       4.048   5.744  18.048  0.00  0.00    +0.000 C 
ATOM      6  O   UNL     1       4.272   6.946  18.087  0.00  0.00    +0.000 OA
ATOM      7  C   UNL     1       2.943   5.159  18.850  0.00  0.00    +0.000 A 
ATOM      8  C   UNL     1       2.308   5.913  19.854  0.00  0.00    +0.000 A 
ATOM      9  C   UNL     1       1.287   5.349  20.624  0.00  0.00    +0.000 A 
ATOM     10  C   UNL     1       0.893   4.028  20.402  0.00  0.00    +0.000 A 
ATOM     11  C   UNL     1       1.500   3.273  19.395  0.00  0.00    +0.000 A 
ATOM     12  C   UNL     1       2.519   3.828  18.600  0.00  0.00    +0.000 A 
ENDROOT
BRANCH   4  13
ATOM     13  C   UNL     1       5.787   5.556  16.169  0.00  0.00    +0.000 C 
BRANCH  13  14
ATOM     14  N   UNL     1       7.196   5.655  16.621  0.00  0.00    +0.000 NA
ATOM     15  C   UNL     1       7.476   6.934  17.308  0.00  0.00    +0.000 C 
ATOM     16  C   UNL     1       7.489   4.540  17.534  0.00  0.00    +0.000 C 
ENDBRANCH  13  14
ENDBRANCH   4  13
TORSDOF 2
ENDMDL
MODEL 5
REMARK VINA RESULT:      -6.4      2.520      5.357
REMARK  Name = 
REMARK  5 active torsions:
REMARK  status: ('A' for Active; 'I' for Inactive)
REMARK    1  A    between atoms: C_1  and  C_2
REMARK    2  A    between atoms: C_4  and  C_5
REMARK    3  A    between atoms: C_5  and  N_6
REMARK    4  A    between atoms: N_6  and  C_7
REMARK    5  A    between atoms: N_6  and  C_8
REMARK                            x       y       z     vdW  Elec       q    Type
REMARK                         _______ _______ _______ _____ _____    ______ ____
ROOT
ATOM      1  C   UNL     1       2.863   6.925  19.291  0.00  0.00    +0.000 C 
ATOM      2  C   UNL     1       3.477   5.585  19.741  0.00  0.00    +0.000 C 
ATOM      3  C   UNL     1       4.925   5.409  19.212  0.00  0.00    +0.000 C 
ATOM      4  C   UNL     1       4.917   5.070  17.718  0.00  0.00    +0.000 C 
ATOM      5  C   UNL     1       4.219   3.735  17.567  0.00  0.00    +0.000 C 
ATOM      6  O   UNL     1       4.681   2.855  16.852  0.00  0.00    +0.000 OA
ATOM      7  C   UNL     1       2.966   3.503  18.329  0.00  0.00    +0.000 A 
ATOM      8  C   UNL     1       2.153   2.388  18.052  0.00  0.00    +0.000 A 
ATOM      9  C   UNL     1       0.961   2.189  18.754  0.00  0.00    +0.000 A 
ATOM     10  C   UNL     1       0.568   3.101  19.736  0.00  0.00    +0.000 A 
ATOM     11  C   UNL     1       1.374   4.202  20.036  0.00  0.00    +0.000 A 
ATOM     12  C   UNL     1       2.584   4.411  19.351  0.00  0.00    +0.000 A 
ENDROOT
BRANCH   4  13
ATOM     13  C   UNL     1       6.344   5.107  17.122  0.00  0.00    +0.000 C 
BRANCH  13  14
ATOM     14  N   UNL     1       6.427   5.820  15.825  0.00  0.00    +0.000 NA
ATOM     15  C   UNL     1       6.613   4.895  14.687  0.00  0.00    +0.000 C 
ATOM     16  C   UNL     1       5.195   6.598  15.621  0.00  0.00    +0.000 C 
ENDBRANCH  13  14
ENDBRANCH   4  13
TORSDOF 2
ENDMDL
MODEL 6
REMARK VINA RESULT:      -6.3      2.739      5.588
REMARK  Name = 
REMARK  5 active torsions:
REMARK  status: ('A' for Active; 'I' for Inactive)
REMARK    1  A    between atoms: C_1  and  C_2
REMARK    2  A    between atoms: C_4  and  C_5
REMARK    3  A    between atoms: C_5  and  N_6
REMARK    4  A    between atoms: N_6  and  C_7
REMARK    5  A    between atoms: N_6  and  C_8
REMARK                            x       y       z     vdW  Elec       q    Type
REMARK                         _______ _______ _______ _____ _____    ______ ____
ROOT
ATOM      1  C   UNL     1       3.727   1.303  18.332  0.00  0.00    +0.000 C 
ATOM      2  C   UNL     1       2.739   2.354  17.790  0.00  0.00    +0.000 C 
ATOM      3  C   UNL     1       3.282   3.050  16.514  0.00  0.00    +0.000 C 
ATOM      4  C   UNL     1       4.381   4.056  16.871  0.00  0.00    +0.000 C 
ATOM      5  C   UNL     1       3.743   5.128  17.729  0.00  0.00    +0.000 C 
ATOM      6  O   UNL     1       3.962   6.315  17.527  0.00  0.00    +0.000 OA
ATOM      7  C   UNL     1       2.818   4.708  18.812  0.00  0.00    +0.000 A 
ATOM      8  C   UNL     1       2.384   5.630  19.783  0.00  0.00    +0.000 A 
ATOM      9  C   UNL     1       1.535   5.224  20.816  0.00  0.00    +0.000 A 
ATOM     10  C   UNL     1       1.113   3.895  20.892  0.00  0.00    +0.000 A 
ATOM     11  C   UNL     1       1.519   2.972  19.923  0.00  0.00    +0.000 A 
ATOM     12  C   UNL     1       2.361   3.366  18.869  0.00  0.00    +0.000 A 
ENDROOT
BRANCH   4  13
ATOM     13  C   UNL     1       5.087   4.596  15.606  0.00  0.00    +0.000 C 
BRANCH  13  14
ATOM     14  N   UNL     1       6.504   4.175  15.491  0.00  0.00    +0.000 NA
ATOM     15  C   UNL     1       7.173   4.774  14.318  0.00  0.00    +0.000 C 
ATOM     16  C   UNL     1       7.225   4.565  16.712  0.00  0.00    +0.000 C 
ENDBRANCH  13  14
ENDBRANCH   4  13
TORSDOF 2
ENDMDL
MODEL 7
REMARK VINA RESULT:      -6.3      2.743      5.468
REMARK  Name = 
REMARK  5 active torsions:
REMARK  status: ('A' for Active; 'I' for Inactive)
REMARK    1  A    between atoms: C_1  and  C_2
REMARK    2  A    between atoms: C_4  and  C_5
REMARK    3  A    between atoms: C_5  and  N_6
REMARK    4  A    between atoms: N_6  and  C_7
REMARK    5  A    between atoms: N_6  and  C_8
REMARK                            x       y       z     vdW  Elec       q    Type
REMARK                         _______ _______ _______ _____ _____    ______ ____
ROOT
ATOM      1  C   UNL     1       4.007   2.004  17.901  0.00  0.00    +0.000 C 
ATOM      2  C   UNL     1       2.991   3.068  17.443  0.00  0.00    +0.000 C 
ATOM      3  C   UNL     1       3.581   3.992  16.345  0.00  0.00    +0.000 C 
ATOM      4  C   UNL     1       4.571   4.991  16.953  0.00  0.00    +0.000 C 
ATOM      5  C   UNL     1       3.789   5.870  17.906  0.00  0.00    +0.000 C 
ATOM      6  O   UNL     1       3.937   7.085  17.913  0.00  0.00    +0.000 OA
ATOM      7  C   UNL     1       2.815   5.226  18.823  0.00  0.00    +0.000 A 
ATOM      8  C   UNL     1       2.239   5.950  19.882  0.00  0.00    +0.000 A 
ATOM      9  C   UNL     1       1.343   5.332  20.759  0.00  0.00    +0.000 A 
ATOM     10  C   UNL     1       1.015   3.985  20.587  0.00  0.00    +0.000 A 
ATOM     11  C   UNL     1       1.563   3.257  19.528  0.00  0.00    +0.000 A 
ATOM     12  C   UNL     1       2.456   3.867  18.627  0.00  0.00    +0.000 A 
ENDROOT
BRANCH   4  13
ATOM     13  C   UNL     1       5.334   5.771  15.857  0.00  0.00    +0.000 C 
BRANCH  13  14
ATOM     14  N   UNL     1       6.748   5.352  15.705  0.00  0.00    +0.000 NA
ATOM     15  C   UNL     1       7.238   4.596  16.877  0.00  0.00    +0.000 C 
ATOM     16  C   UNL     1       6.877   4.516  14.501  0.00  0.00    +0.000 C 
ENDBRANCH  13  14
ENDBRANCH   4  13
TORSDOF 2
ENDMDL
MODEL 8
REMARK VINA RESULT:      -6.3      2.751      5.365
REMARK  Name = 
REMARK  5 active torsions:
REMARK  status: ('A' for Active; 'I' for Inactive)
REMARK    1  A    between atoms: C_1  and  C_2
REMARK    2  A    between atoms: C_4  and  C_5
REMARK    3  A    between atoms: C_5  and  N_6
REMARK    4  A    between atoms: N_6  and  C_7
REMARK    5  A    between atoms: N_6  and  C_8
REMARK                            x       y       z     vdW  Elec       q    Type
REMARK                         _______ _______ _______ _____ _____    ______ ____
ROOT
ATOM      1  C   UNL     1       3.180   6.966  17.803  0.00  0.00    +0.000 C 
ATOM      2  C   UNL     1       3.852   5.882  18.667  0.00  0.00    +0.000 C 
ATOM      3  C   UNL     1       5.022   5.192  17.918  0.00  0.00    +0.000 C 
ATOM      4  C   UNL     1       4.490   4.222  16.858  0.00  0.00    +0.000 C 
ATOM      5  C   UNL     1       3.725   3.139  17.589  0.00  0.00    +0.000 C 
ATOM      6  O   UNL     1       3.875   1.957  17.308  0.00  0.00    +0.000 OA
ATOM      7  C   UNL     1       2.799   3.540  18.679  0.00  0.00    +0.000 A 
ATOM      8  C   UNL     1       1.893   2.615  19.229  0.00  0.00    +0.000 A 
ATOM      9  C   UNL     1       1.005   3.005  20.235  0.00  0.00    +0.000 A 
ATOM     10  C   UNL     1       1.011   4.322  20.700  0.00  0.00    +0.000 A 
ATOM     11  C   UNL     1       1.919   5.247  20.179  0.00  0.00    +0.000 A 
ATOM     12  C   UNL     1       2.830   4.870  19.176  0.00  0.00    +0.000 A 
ENDROOT
BRANCH   4  13
ATOM     13  C   UNL     1       5.626   3.691  15.954  0.00  0.00    +0.000 C 
BRANCH  13  14
ATOM     14  N   UNL     1       5.900   4.551  14.778  0.00  0.00    +0.000 NA
ATOM     15  C   UNL     1       7.259   5.133  14.813  0.00  0.00    +0.000 C 
ATOM     16  C   UNL     1       5.745   3.755  13.551  0.00  0.00    +0.000 C 
ENDBRANCH  13  14
ENDBRANCH   4  13
TORSDOF 2
ENDMDL
MODEL 9
REMARK VINA RESULT:      -6.1      2.265      5.142
REMARK  Name = 
REMARK  5 active torsions:
REMARK  status: ('A' for Active; 'I' for Inactive)
REMARK    1  A    between atoms: C_1  and  C_2
REMARK    2  A    between atoms: C_4  and  C_5
REMARK    3  A    between atoms: C_5  and  N_6
REMARK    4  A    between atoms: N_6  and  C_7
REMARK    5  A    between atoms: N_6  and  C_8
REMARK                            x       y       z     vdW  Elec       q    Type
REMARK                         _______ _______ _______ _____ _____    ______ ____
ROOT
ATOM      1  C   UNL     1       1.249   4.692  17.265  0.00  0.00    +0.000 C 
ATOM      2  C   UNL     1       1.987   5.269  18.489  0.00  0.00    +0.000 C 
ATOM      3  C   UNL     1       3.324   5.947  18.087  0.00  0.00    +0.000 C 
ATOM      4  C   UNL     1       4.388   4.895  17.760  0.00  0.00    +0.000 C 
ATOM      5  C   UNL     1       4.646   4.112  19.030  0.00  0.00    +0.000 C 
ATOM      6  O   UNL     1       5.785   3.854  19.396  0.00  0.00    +0.000 OA
ATOM      7  C   UNL     1       3.480   3.679  19.843  0.00  0.00    +0.000 A 
ATOM      8  C   UNL     1       3.640   2.757  20.893  0.00  0.00    +0.000 A 
ATOM      9  C   UNL     1       2.535   2.332  21.637  0.00  0.00    +0.000 A 
ATOM     10  C   UNL     1       1.262   2.823  21.339  0.00  0.00    +0.000 A 
ATOM     11  C   UNL     1       1.090   3.755  20.313  0.00  0.00    +0.000 A 
ATOM     12  C   UNL     1       2.192   4.204  19.562  0.00  0.00    +0.000 A 
ENDROOT
BRANCH   4  13
ATOM     13  C   UNL     1       5.653   5.539  17.149  0.00  0.00    +0.000 C 
BRANCH  13  14
ATOM     14  N   UNL     1       5.854   5.211  15.717  0.00  0.00    +0.000 NA
ATOM     15  C   UNL     1       7.275   4.966  15.393  0.00  0.00    +0.000 C 
ATOM     16  C   UNL     1       5.067   4.014  15.381  0.00  0.00    +0.000 C 
ENDBRANCH  13  14
ENDBRANCH   4  13
TORSDOF 2
ENDMDL
