MODEL 1
REMARK VINA RESULT:      -6.5      0.000      0.000
REMARK  Name = 
REMARK  4 active torsions:
REMARK  status: ('A' for Active; 'I' for Inactive)
REMARK    1  A    between atoms: C_1  and  C_2
REMARK    2  A    between atoms: C_2  and  C_3
REMARK    3  A    between atoms: C_11  and  C_12
REMARK    4  A    between atoms: C_16  and  C_17
REMARK                            x       y       z     vdW  Elec       q    Type
REMARK                         _______ _______ _______ _____ _____    ______ ____
ROOT
ATOM      1  C   UNL     1       9.179  11.623  19.230  0.00  0.00    +0.000 C 
ATOM      2  C   UNL     1       9.112  11.990  20.778  0.00  0.00    +0.000 C 
ATOM      3  C   UNL     1       8.987  13.526  21.101  0.00  0.00    +0.000 C 
ATOM      4  C   UNL     1       9.150  13.937  22.599  0.00  0.00    +0.000 C 
ATOM      5  C   UNL     1       8.003  13.740  23.614  0.00  0.00    +0.000 C 
ATOM      6  C   UNL     1       8.386  14.632  24.824  0.00  0.00    +0.000 C 
ATOM      7  C   UNL     1       9.384  15.605  24.236  0.00  0.00    +0.000 C 
ATOM      8  O   UNL     1      10.015  16.422  24.882  0.00  0.00    +0.000 OA
ATOM      9  C   UNL     1       9.415  15.461  22.730  0.00  0.00    +0.000 C 
ATOM     10  C   UNL     1       8.288  16.369  22.184  0.00  0.00    +0.000 C 
ATOM     11  C   UNL     1      10.754  15.765  22.092  0.00  0.00    +0.000 C 
ATOM     12  C   UNL     1      10.616  15.595  20.588  0.00  0.00    +0.000 C 
ATOM     13  C   UNL     1      10.051  14.225  20.176  0.00  0.00    +0.000 C 
ATOM     14  C   UNL     1       9.614  14.101  18.665  0.00  0.00    +0.000 C 
ATOM     15  C   UNL     1       8.087  14.298  18.402  0.00  0.00    +0.000 C 
ATOM     16  C   UNL     1      10.252  15.156  17.704  0.00  0.00    +0.000 C 
ATOM     17  C   UNL     1      11.560  14.820  17.022  0.00  0.00    +0.000 C 
ATOM     18  C   UNL     1      11.797  13.346  16.741  0.00  0.00    +0.000 C 
ATOM     19  C   UNL     1      10.951  12.364  17.498  0.00  0.00    +0.000 C 
ATOM     20  C   UNL     1       9.978  12.646  18.373  0.00  0.00    +0.000 C 
ENDROOT
BRANCH   1  22
ATOM     21  C   UNL     1       8.432   9.317  18.214  0.00  0.00    +0.000 C 
ATOM     22  C   UNL     1       9.478  10.121  18.971  0.00  0.00    +0.000 C 
ENDBRANCH   1  22
TORSDOF 1
ENDMDL
MODEL 2
REMARK VINA RESULT:      -6.5     10.818     12.207
REMARK  Name = 
REMARK  4 active torsions:
REMARK  status: ('A' for Active; 'I' for Inactive)
REMARK    1  A    between atoms: C_1  and  C_2
REMARK    2  A    between atoms: C_2  and  C_3
REMARK    3  A    between atoms: C_11  and  C_12
REMARK    4  A    between atoms: C_16  and  C_17
REMARK                            x       y       z     vdW  Elec       q    Type
REMARK                         _______ _______ _______ _____ _____    ______ ____
ROOT
ATOM      1  C   UNL     1      -2.807  11.464  17.707  0.00  0.00    +0.000 C 
ATOM      2  C   UNL     1      -3.740  11.837  18.943  0.00  0.00    +0.000 C 
ATOM      3  C   UNL     1      -3.021  12.583  20.128  0.00  0.00    +0.000 C 
ATOM      4  C   UNL     1      -3.845  12.757  21.442  0.00  0.00    +0.000 C 
ATOM      5  C   UNL     1      -4.939  13.840  21.566  0.00  0.00    +0.000 C 
ATOM      6  C   UNL     1      -5.201  13.968  23.089  0.00  0.00    +0.000 C 
ATOM      7  C   UNL     1      -3.956  13.371  23.707  0.00  0.00    +0.000 C 
ATOM      8  O   UNL     1      -3.800  13.182  24.900  0.00  0.00    +0.000 OA
ATOM      9  C   UNL     1      -2.919  13.122  22.634  0.00  0.00    +0.000 C 
ATOM     10  C   UNL     1      -2.137  14.447  22.471  0.00  0.00    +0.000 C 
ATOM     11  C   UNL     1      -2.002  11.947  22.898  0.00  0.00    +0.000 C 
ATOM     12  C   UNL     1      -1.015  11.843  21.747  0.00  0.00    +0.000 C 
ATOM     13  C   UNL     1      -1.688  11.782  20.366  0.00  0.00    +0.000 C 
ATOM     14  C   UNL     1      -0.720  11.969  19.134  0.00  0.00    +0.000 C 
ATOM     15  C   UNL     1      -0.678  13.414  18.542  0.00  0.00    +0.000 C 
ATOM     16  C   UNL     1       0.789  11.692  19.431  0.00  0.00    +0.000 C 
ATOM     17  C   UNL     1       1.323  10.290  19.232  0.00  0.00    +0.000 C 
ATOM     18  C   UNL     1       0.633   9.469  18.156  0.00  0.00    +0.000 C 
ATOM     19  C   UNL     1      -0.715   9.943  17.698  0.00  0.00    +0.000 C 
ATOM     20  C   UNL     1      -1.366  11.039  18.109  0.00  0.00    +0.000 C 
ENDROOT
BRANCH   1  22
ATOM     21  C   UNL     1      -3.165  10.804  15.188  0.00  0.00    +0.000 C 
ATOM     22  C   UNL     1      -3.520  10.577  16.649  0.00  0.00    +0.000 C 
ENDBRANCH   1  22
TORSDOF 1
ENDMDL
MODEL 3
REMARK VINA RESULT:      -6.4      9.018     12.343
REMARK  Name = 
REMARK  4 active torsions:
REMARK  status: ('A' for Active; 'I' for Inactive)
REMARK    1  A    between atoms: C_1  and  C_2
REMARK    2  A    between atoms: C_2  and  C_3
REMARK    3  A    between atoms: C_11  and  C_12
REMARK    4  A    between atoms: C_16  and  C_17
REMARK                            x       y       z     vdW  Elec       q    Type
REMARK                         _______ _______ _______ _____ _____    ______ ____
ROOT
ATOM      1  C   UNL     1       1.853   6.296  19.888  0.00  0.00    +0.000 C 
ATOM      2  C   UNL     1       3.283   6.712  19.324  0.00  0.00    +0.000 C 
ATOM      3  C   UNL     1       3.829   5.820  18.148  0.00  0.00    +0.000 C 
ATOM      4  C   UNL     1       5.314   6.053  17.728  0.00  0.00    +0.000 C 
ATOM      5  C   UNL     1       5.722   7.261  16.858  0.00  0.00    +0.000 C 
ATOM      6  C   UNL     1       7.135   6.908  16.325  0.00  0.00    +0.000 C 
ATOM      7  C   UNL     1       7.204   5.406  16.493  0.00  0.00    +0.000 C 
ATOM      8  O   UNL     1       8.199   4.733  16.287  0.00  0.00    +0.000 OA
ATOM      9  C   UNL     1       5.843   4.869  16.875  0.00  0.00    +0.000 C 
ATOM     10  C   UNL     1       5.083   4.632  15.548  0.00  0.00    +0.000 C 
ATOM     11  C   UNL     1       5.870   3.632  17.746  0.00  0.00    +0.000 C 
ATOM     12  C   UNL     1       4.437   3.210  18.022  0.00  0.00    +0.000 C 
ATOM     13  C   UNL     1       3.568   4.337  18.606  0.00  0.00    +0.000 C 
ATOM     14  C   UNL     1       2.017   4.048  18.638  0.00  0.00    +0.000 C 
ATOM     15  C   UNL     1       1.208   4.661  17.450  0.00  0.00    +0.000 C 
ATOM     16  C   UNL     1       1.625   2.537  18.556  0.00  0.00    +0.000 C 
ATOM     17  C   UNL     1       1.474   1.756  19.843  0.00  0.00    +0.000 C 
ATOM     18  C   UNL     1       1.023   2.558  21.052  0.00  0.00    +0.000 C 
ATOM     19  C   UNL     1       1.164   4.050  20.969  0.00  0.00    +0.000 C 
ATOM     20  C   UNL     1       1.612   4.760  19.926  0.00  0.00    +0.000 C 
ENDROOT
BRANCH   1  22
ATOM     21  C   UNL     1       0.958   8.522  20.962  0.00  0.00    +0.000 C 
ATOM     22  C   UNL     1       1.441   7.093  21.156  0.00  0.00    +0.000 C 
ENDBRANCH   1  22
TORSDOF 1
ENDMDL
MODEL 4
REMARK VINA RESULT:      -6.4      8.016      9.822
REMARK  Name = 
REMARK  4 active torsions:
REMARK  status: ('A' for Active; 'I' for Inactive)
REMARK    1  A    between atoms: C_1  and  C_2
REMARK    2  A    between atoms: C_2  and  C_3
REMARK    3  A    between atoms: C_11  and  C_12
REMARK    4  A    between atoms: C_16  and  C_17
REMARK                            x       y       z     vdW  Elec       q    Type
REMARK                         _______ _______ _______ _____ _____    ______ ____
ROOT
ATOM      1  C   UNL     1       1.338  10.481  18.573  0.00  0.00    +0.000 C 
ATOM      2  C   UNL     1       2.238  11.784  18.405  0.00  0.00    +0.000 C 
ATOM      3  C   UNL     1       1.734  13.057  19.183  0.00  0.00    +0.000 C 
ATOM      4  C   UNL     1       2.455  14.403  18.859  0.00  0.00    +0.000 C 
ATOM      5  C   UNL     1       3.847  14.728  19.444  0.00  0.00    +0.000 C 
ATOM      6  C   UNL     1       4.011  16.258  19.251  0.00  0.00    +0.000 C 
ATOM      7  C   UNL     1       2.590  16.738  19.061  0.00  0.00    +0.000 C 
ATOM      8  O   UNL     1       2.279  17.881  18.773  0.00  0.00    +0.000 OA
ATOM      9  C   UNL     1       1.623  15.614  19.358  0.00  0.00    +0.000 C 
ATOM     10  C   UNL     1       1.374  15.649  20.885  0.00  0.00    +0.000 C 
ATOM     11  C   UNL     1       0.333  15.659  18.567  0.00  0.00    +0.000 C 
ATOM     12  C   UNL     1      -0.530  14.483  18.992  0.00  0.00    +0.000 C 
ATOM     13  C   UNL     1       0.189  13.127  18.890  0.00  0.00    +0.000 C 
ATOM     14  C   UNL     1      -0.547  11.918  19.587  0.00  0.00    +0.000 C 
ATOM     15  C   UNL     1      -0.029  11.569  21.019  0.00  0.00    +0.000 C 
ATOM     16  C   UNL     1      -2.076  12.128  19.834  0.00  0.00    +0.000 C 
ATOM     17  C   UNL     1      -3.051  11.690  18.762  0.00  0.00    +0.000 C 
ATOM     18  C   UNL     1      -2.608  10.513  17.911  0.00  0.00    +0.000 C 
ATOM     19  C   UNL     1      -1.147  10.172  17.927  0.00  0.00    +0.000 C 
ATOM     20  C   UNL     1      -0.188  10.773  18.643  0.00  0.00    +0.000 C 
ENDROOT
BRANCH   1  22
ATOM     21  C   UNL     1       2.282   8.041  18.318  0.00  0.00    +0.000 C 
ATOM     22  C   UNL     1       1.778   9.312  17.651  0.00  0.00    +0.000 C 
ENDBRANCH   1  22
TORSDOF 1
ENDMDL
MODEL 5
REMARK VINA RESULT:      -6.4      2.353      6.423
REMARK  Name = 
REMARK  4 active torsions:
REMARK  status: ('A' for Active; 'I' for Inactive)
REMARK    1  A    between atoms: C_1  and  C_2
REMARK    2  A    between atoms: C_2  and  C_3
REMARK    3  A    between atoms: C_11  and  C_12
REMARK    4  A    between atoms: C_16  and  C_17
REMARK                            x       y       z     vdW  Elec       q    Type
REMARK                         _______ _______ _______ _____ _____    ______ ____
ROOT
ATOM      1  C   UNL     1       9.271  15.535  23.386  0.00  0.00    +0.000 C 
ATOM      2  C   UNL     1      10.261  15.357  22.151  0.00  0.00    +0.000 C 
ATOM      3  C   UNL     1       9.797  14.319  21.061  0.00  0.00    +0.000 C 
ATOM      4  C   UNL     1      10.843  13.951  19.962  0.00  0.00    +0.000 C 
ATOM      5  C   UNL     1      11.133  14.901  18.779  0.00  0.00    +0.000 C 
ATOM      6  C   UNL     1      11.866  14.021  17.733  0.00  0.00    +0.000 C 
ATOM      7  C   UNL     1      11.500  12.613  18.147  0.00  0.00    +0.000 C 
ATOM      8  O   UNL     1      11.958  11.604  17.641  0.00  0.00    +0.000 OA
ATOM      9  C   UNL     1      10.431  12.653  19.217  0.00  0.00    +0.000 C 
ATOM     10  C   UNL     1       9.076  12.729  18.473  0.00  0.00    +0.000 C 
ATOM     11  C   UNL     1      10.478  11.505  20.203  0.00  0.00    +0.000 C 
ATOM     12  C   UNL     1       9.338  11.680  21.192  0.00  0.00    +0.000 C 
ATOM     13  C   UNL     1       9.324  13.058  21.875  0.00  0.00    +0.000 C 
ATOM     14  C   UNL     1       8.011  13.399  22.681  0.00  0.00    +0.000 C 
ATOM     15  C   UNL     1       6.974  14.278  21.910  0.00  0.00    +0.000 C 
ATOM     16  C   UNL     1       7.150  12.163  23.095  0.00  0.00    +0.000 C 
ATOM     17  C   UNL     1       7.418  11.506  24.432  0.00  0.00    +0.000 C 
ATOM     18  C   UNL     1       7.943  12.423  25.523  0.00  0.00    +0.000 C 
ATOM     19  C   UNL     1       8.515  13.741  25.088  0.00  0.00    +0.000 C 
ATOM     20  C   UNL     1       8.582  14.217  23.838  0.00  0.00    +0.000 C 
ENDROOT
BRANCH   1  22
ATOM     21  C   UNL     1      11.341  16.756  24.453  0.00  0.00    +0.000 C 
ATOM     22  C   UNL     1       9.855  16.432  24.511  0.00  0.00    +0.000 C 
ENDBRANCH   1  22
TORSDOF 1
ENDMDL
MODEL 6
REMARK VINA RESULT:      -6.2     11.423     12.798
REMARK  Name = 
REMARK  4 active torsions:
REMARK  status: ('A' for Active; 'I' for Inactive)
REMARK    1  A    between atoms: C_1  and  C_2
REMARK    2  A    between atoms: C_2  and  C_3
REMARK    3  A    between atoms: C_11  and  C_12
REMARK    4  A    between atoms: C_16  and  C_17
REMARK                            x       y       z     vdW  Elec       q    Type
REMARK                         _______ _______ _______ _____ _____    ______ ____
ROOT
ATOM      1  C   UNL     1      -2.243  11.239  17.824  0.00  0.00    +0.000 C 
ATOM      2  C   UNL     1      -3.593  11.658  18.557  0.00  0.00    +0.000 C 
ATOM      3  C   UNL     1      -3.421  12.631  19.783  0.00  0.00    +0.000 C 
ATOM      4  C   UNL     1      -4.689  12.876  20.660  0.00  0.00    +0.000 C 
ATOM      5  C   UNL     1      -5.812  13.830  20.198  0.00  0.00    +0.000 C 
ATOM      6  C   UNL     1      -6.636  14.123  21.479  0.00  0.00    +0.000 C 
ATOM      7  C   UNL     1      -5.683  13.760  22.596  0.00  0.00    +0.000 C 
ATOM      8  O   UNL     1      -5.977  13.747  23.778  0.00  0.00    +0.000 OA
ATOM      9  C   UNL     1      -4.305  13.497  22.030  0.00  0.00    +0.000 C 
ATOM     10  C   UNL     1      -3.601  14.872  21.948  0.00  0.00    +0.000 C 
ATOM     11  C   UNL     1      -3.487  12.481  22.798  0.00  0.00    +0.000 C 
ATOM     12  C   UNL     1      -2.134  12.346  22.119  0.00  0.00    +0.000 C 
ATOM     13  C   UNL     1      -2.231  12.028  20.617  0.00  0.00    +0.000 C 
ATOM     14  C   UNL     1      -0.883  12.165  19.810  0.00  0.00    +0.000 C 
ATOM     15  C   UNL     1      -0.707  13.516  19.046  0.00  0.00    +0.000 C 
ATOM     16  C   UNL     1       0.416  12.107  20.676  0.00  0.00    +0.000 C 
ATOM     17  C   UNL     1       1.069  10.763  20.917  0.00  0.00    +0.000 C 
ATOM     18  C   UNL     1       0.886   9.735  19.814  0.00  0.00    +0.000 C 
ATOM     19  C   UNL     1      -0.215   9.985  18.826  0.00  0.00    +0.000 C 
ATOM     20  C   UNL     1      -1.038  11.041  18.787  0.00  0.00    +0.000 C 
ENDROOT
BRANCH   1  22
ATOM     21  C   UNL     1      -2.864  10.605  15.350  0.00  0.00    +0.000 C 
ATOM     22  C   UNL     1      -2.450  10.147  16.740  0.00  0.00    +0.000 C 
ENDBRANCH   1  22
TORSDOF 1
ENDMDL
MODEL 7
REMARK VINA RESULT:      -6.1      2.154      3.730
REMARK  Name = 
REMARK  4 active torsions:
REMARK  status: ('A' for Active; 'I' for Inactive)
REMARK    1  A    between atoms: C_1  and  C_2
REMARK    2  A    between atoms: C_2  and  C_3
REMARK    3  A    between atoms: C_11  and  C_12
REMARK    4  A    between atoms: C_16  and  C_17
REMARK                            x       y       z     vdW  Elec       q    Type
REMARK                         _______ _______ _______ _____ _____    ______ ____
ROOT
ATOM      1  C   UNL     1       7.926  14.755  19.136  0.00  0.00    +0.000 C 
ATOM      2  C   UNL     1       6.945  14.660  20.387  0.00  0.00    +0.000 C 
ATOM      3  C   UNL     1       7.613  14.194  21.734  0.00  0.00    +0.000 C 
ATOM      4  C   UNL     1       6.646  13.870  22.915  0.00  0.00    +0.000 C 
ATOM      5  C   UNL     1       5.996  14.994  23.752  0.00  0.00    +0.000 C 
ATOM      6  C   UNL     1       5.483  14.289  25.034  0.00  0.00    +0.000 C 
ATOM      7  C   UNL     1       6.284  13.006  25.069  0.00  0.00    +0.000 C 
ATOM      8  O   UNL     1       6.111  12.106  25.871  0.00  0.00    +0.000 OA
ATOM      9  C   UNL     1       7.369  13.050  24.016  0.00  0.00    +0.000 C 
ATOM     10  C   UNL     1       8.579  13.759  24.670  0.00  0.00    +0.000 C 
ATOM     11  C   UNL     1       7.744  11.703  23.434  0.00  0.00    +0.000 C 
ATOM     12  C   UNL     1       8.851  11.914  22.416  0.00  0.00    +0.000 C 
ATOM     13  C   UNL     1       8.503  12.958  21.340  0.00  0.00    +0.000 C 
ATOM     14  C   UNL     1       9.711  13.428  20.440  0.00  0.00    +0.000 C 
ATOM     15  C   UNL     1      10.376  14.772  20.878  0.00  0.00    +0.000 C 
ATOM     16  C   UNL     1      10.932  12.453  20.410  0.00  0.00    +0.000 C 
ATOM     17  C   UNL     1      10.975  11.375  19.348  0.00  0.00    +0.000 C 
ATOM     18  C   UNL     1      10.284  11.713  18.039  0.00  0.00    +0.000 C 
ATOM     19  C   UNL     1       9.312  12.857  18.057  0.00  0.00    +0.000 C 
ATOM     20  C   UNL     1       9.011  13.642  19.099  0.00  0.00    +0.000 C 
ENDROOT
BRANCH   1  22
ATOM     21  C   UNL     1       5.674  14.894  17.787  0.00  0.00    +0.000 C 
ATOM     22  C   UNL     1       7.188  15.046  17.801  0.00  0.00    +0.000 C 
ENDBRANCH   1  22
TORSDOF 1
ENDMDL
MODEL 8
REMARK VINA RESULT:      -6.0      2.674      5.587
REMARK  Name = 
REMARK  4 active torsions:
REMARK  status: ('A' for Active; 'I' for Inactive)
REMARK    1  A    between atoms: C_1  and  C_2
REMARK    2  A    between atoms: C_2  and  C_3
REMARK    3  A    between atoms: C_11  and  C_12
REMARK    4  A    between atoms: C_16  and  C_17
REMARK                            x       y       z     vdW  Elec       q    Type
REMARK                         _______ _______ _______ _____ _____    ______ ____
ROOT
ATOM      1  C   UNL     1       7.522  12.763  22.964  0.00  0.00    +0.000 C 
ATOM      2  C   UNL     1       8.560  12.100  21.955  0.00  0.00    +0.000 C 
ATOM      3  C   UNL     1       9.367  13.112  21.058  0.00  0.00    +0.000 C 
ATOM      4  C   UNL     1      10.218  12.494  19.905  0.00  0.00    +0.000 C 
ATOM      5  C   UNL     1      11.580  11.821  20.184  0.00  0.00    +0.000 C 
ATOM      6  C   UNL     1      12.272  11.735  18.799  0.00  0.00    +0.000 C 
ATOM      7  C   UNL     1      11.530  12.764  17.975  0.00  0.00    +0.000 C 
ATOM      8  O   UNL     1      11.696  12.943  16.782  0.00  0.00    +0.000 OA
ATOM      9  C   UNL     1      10.620  13.577  18.868  0.00  0.00    +0.000 C 
ATOM     10  C   UNL     1      11.484  14.731  19.432  0.00  0.00    +0.000 C 
ATOM     11  C   UNL     1       9.359  14.083  18.199  0.00  0.00    +0.000 C 
ATOM     12  C   UNL     1       8.570  14.891  19.215  0.00  0.00    +0.000 C 
ATOM     13  C   UNL     1       8.292  14.128  20.522  0.00  0.00    +0.000 C 
ATOM     14  C   UNL     1       7.740  15.005  21.712  0.00  0.00    +0.000 C 
ATOM     15  C   UNL     1       8.817  15.467  22.745  0.00  0.00    +0.000 C 
ATOM     16  C   UNL     1       7.092  16.362  21.287  0.00  0.00    +0.000 C 
ATOM     17  C   UNL     1       5.607  16.397  20.993  0.00  0.00    +0.000 C 
ATOM     18  C   UNL     1       4.760  15.397  21.761  0.00  0.00    +0.000 C 
ATOM     19  C   UNL     1       5.479  14.243  22.397  0.00  0.00    +0.000 C 
ATOM     20  C   UNL     1       6.798  14.016  22.394  0.00  0.00    +0.000 C 
ENDROOT
BRANCH   1  22
ATOM     21  C   UNL     1       6.864  11.518  25.184  0.00  0.00    +0.000 C 
ATOM     22  C   UNL     1       6.631  11.721  23.695  0.00  0.00    +0.000 C 
ENDBRANCH   1  22
TORSDOF 1
ENDMDL
MODEL 9
REMARK VINA RESULT:      -5.9      1.471      2.247
REMARK  Name = 
REMARK  4 active torsions:
REMARK  status: ('A' for Active; 'I' for Inactive)
REMARK    1  A    between atoms: C_1  and  C_2
REMARK    2  A    between atoms: C_2  and  C_3
REMARK    3  A    between atoms: C_11  and  C_12
REMARK    4  A    between atoms: C_16  and  C_17
REMARK                            x       y       z     vdW  Elec       q    Type
REMARK                         _______ _______ _______ _____ _____    ______ ____
ROOT
ATOM      1  C   UNL     1       9.580  12.721  18.597  0.00  0.00    +0.000 C 
ATOM      2  C   UNL     1       9.514  12.240  20.113  0.00  0.00    +0.000 C 
ATOM      3  C   UNL     1       8.721  13.188  21.087  0.00  0.00    +0.000 C 
ATOM      4  C   UNL     1       8.831  12.870  22.612  0.00  0.00    +0.000 C 
ATOM      5  C   UNL     1       8.027  11.717  23.251  0.00  0.00    +0.000 C 
ATOM      6  C   UNL     1       8.074  11.997  24.775  0.00  0.00    +0.000 C 
ATOM      7  C   UNL     1       8.430  13.465  24.848  0.00  0.00    +0.000 C 
ATOM      8  O   UNL     1       8.670  14.068  25.879  0.00  0.00    +0.000 OA
ATOM      9  C   UNL     1       8.364  14.078  23.467  0.00  0.00    +0.000 C 
ATOM     10  C   UNL     1       6.891  14.501  23.250  0.00  0.00    +0.000 C 
ATOM     11  C   UNL     1       9.327  15.223  23.234  0.00  0.00    +0.000 C 
ATOM     12  C   UNL     1       9.124  15.737  21.818  0.00  0.00    +0.000 C 
ATOM     13  C   UNL     1       9.227  14.638  20.747  0.00  0.00    +0.000 C 
ATOM     14  C   UNL     1       8.740  15.054  19.305  0.00  0.00    +0.000 C 
ATOM     15  C   UNL     1       7.280  14.624  18.952  0.00  0.00    +0.000 C 
ATOM     16  C   UNL     1       8.701  16.593  19.038  0.00  0.00    +0.000 C 
ATOM     17  C   UNL     1       9.933  17.263  18.467  0.00  0.00    +0.000 C 
ATOM     18  C   UNL     1      10.801  16.393  17.574  0.00  0.00    +0.000 C 
ATOM     19  C   UNL     1      10.601  14.908  17.667  0.00  0.00    +0.000 C 
ATOM     20  C   UNL     1       9.709  14.262  18.429  0.00  0.00    +0.000 C 
ENDROOT
BRANCH   1  22
ATOM     21  C   UNL     1      11.903  11.538  18.264  0.00  0.00    +0.000 C 
ATOM     22  C   UNL     1      10.518  11.849  17.718  0.00  0.00    +0.000 C 
ENDBRANCH   1  22
TORSDOF 1
ENDMDL
