MODEL 1
REMARK VINA RESULT:      -6.8      0.000      0.000
REMARK  Name = 
REMARK  5 active torsions:
REMARK  status: ('A' for Active; 'I' for Inactive)
REMARK    1  A    between atoms: C_1  and  N_2
REMARK    2  A    between atoms: C_4  and  C_5
REMARK    3  A    between atoms: N_7  and  C_8
REMARK    4  A    between atoms: C_8  and  C_9
REMARK    5  A    between atoms: N_12  and  C_13
REMARK                            x       y       z     vdW  Elec       q    Type
REMARK                         _______ _______ _______ _____ _____    ______ ____
ROOT
ATOM      1  C   UNL     1       2.912   6.051  19.626  0.00  0.00    +0.000 C 
ATOM      2  O   UNL     1       2.469   5.294  20.474  0.00  0.00    +0.000 OA
ATOM      3  N   UNL     1       3.993   5.794  18.811  0.00  0.00    +0.000 N 
ATOM      4  H   UNL     1       4.151   6.449  18.050  0.00  0.00    +0.000 HD
ENDROOT
BRANCH   1   8
ATOM      5  C   UNL     1       0.374   9.774  21.369  0.00  0.00    +0.000 C 
ATOM      6  N   UNL     1       1.048   9.196  20.217  0.00  0.00    +0.000 N 
ATOM      7  N   UNL     1       1.655   7.983  20.409  0.00  0.00    +0.000 NA
ATOM      8  C   UNL     1       2.258   7.417  19.409  0.00  0.00    +0.000 C 
ATOM      9  C   UNL     1       2.380   7.980  18.032  0.00  0.00    +0.000 C 
ATOM     10  C   UNL     1       1.659   9.281  17.821  0.00  0.00    +0.000 C 
ATOM     11  C   UNL     1       0.969   9.882  19.012  0.00  0.00    +0.000 C 
ATOM     12  O   UNL     1       0.364  10.950  18.894  0.00  0.00    +0.000 OA
ENDBRANCH   1   8
BRANCH   3  13
ATOM     13  C   UNL     1       4.703   4.534  18.869  0.00  0.00    +0.000 C 
BRANCH  13  14
ATOM     14  C   UNL     1       5.622   4.326  17.667  0.00  0.00    +0.000 C 
ATOM     15  C   UNL     1       7.018   4.908  17.907  0.00  0.00    +0.000 C 
ATOM     16  C   UNL     1       7.146   6.032  16.888  0.00  0.00    +0.000 C 
ATOM     17  N   UNL     1       6.313   5.609  15.750  0.00  0.00    +0.000 NA
ATOM     18  C   UNL     1       5.123   5.031  16.400  0.00  0.00    +0.000 C 
BRANCH  17  19
ATOM     19  C   UNL     1       7.016   4.661  14.859  0.00  0.00    +0.000 C 
ATOM     20  C   UNL     1       6.248   3.901  13.811  0.00  0.00    +0.000 C 
ATOM     21  C   UNL     1       7.163   5.015  13.401  0.00  0.00    +0.000 C 
ENDBRANCH  17  19
ENDBRANCH  13  14
ENDBRANCH   3  13
TORSDOF 4
ENDMDL
MODEL 2
REMARK VINA RESULT:      -6.5      1.096      1.147
REMARK  Name = 
REMARK  5 active torsions:
REMARK  status: ('A' for Active; 'I' for Inactive)
REMARK    1  A    between atoms: C_1  and  N_2
REMARK    2  A    between atoms: C_4  and  C_5
REMARK    3  A    between atoms: N_7  and  C_8
REMARK    4  A    between atoms: C_8  and  C_9
REMARK    5  A    between atoms: N_12  and  C_13
REMARK                            x       y       z     vdW  Elec       q    Type
REMARK                         _______ _______ _______ _____ _____    ______ ____
ROOT
ATOM      1  C   UNL     1       3.619   5.548  18.809  0.00  0.00    +0.000 C 
ATOM      2  O   UNL     1       4.194   5.115  19.794  0.00  0.00    +0.000 OA
ATOM      3  N   UNL     1       3.590   4.946  17.570  0.00  0.00    +0.000 N 
ATOM      4  H   UNL     1       2.947   5.343  16.890  0.00  0.00    +0.000 HD
ENDROOT
BRANCH   1   8
ATOM      5  C   UNL     1       0.820   8.586  21.315  0.00  0.00    +0.000 C 
ATOM      6  N   UNL     1       1.522   8.330  20.068  0.00  0.00    +0.000 N 
ATOM      7  N   UNL     1       2.225   7.156  19.992  0.00  0.00    +0.000 NA
ATOM      8  C   UNL     1       2.857   6.872  18.895  0.00  0.00    +0.000 C 
ATOM      9  C   UNL     1       2.916   7.731  17.675  0.00  0.00    +0.000 C 
ATOM     10  C   UNL     1       2.093   8.986  17.752  0.00  0.00    +0.000 C 
ATOM     11  C   UNL     1       1.373   9.254  19.043  0.00  0.00    +0.000 C 
ATOM     12  O   UNL     1       0.685  10.271  19.159  0.00  0.00    +0.000 OA
ENDBRANCH   1   8
BRANCH   3  13
ATOM     13  C   UNL     1       4.235   3.673  17.331  0.00  0.00    +0.000 C 
BRANCH  13  14
ATOM     14  C   UNL     1       5.404   3.785  16.354  0.00  0.00    +0.000 C 
ATOM     15  C   UNL     1       6.642   4.402  17.011  0.00  0.00    +0.000 C 
ATOM     16  C   UNL     1       6.850   5.720  16.278  0.00  0.00    +0.000 C 
ATOM     17  N   UNL     1       6.329   5.485  14.921  0.00  0.00    +0.000 NA
ATOM     18  C   UNL     1       5.104   4.701  15.161  0.00  0.00    +0.000 C 
BRANCH  17  19
ATOM     19  C   UNL     1       7.307   4.795  14.053  0.00  0.00    +0.000 C 
ATOM     20  C   UNL     1       6.837   4.039  12.839  0.00  0.00    +0.000 C 
ATOM     21  C   UNL     1       7.557   5.343  12.671  0.00  0.00    +0.000 C 
ENDBRANCH  17  19
ENDBRANCH  13  14
ENDBRANCH   3  13
TORSDOF 4
ENDMDL
MODEL 3
REMARK VINA RESULT:      -6.3      2.473      4.135
REMARK  Name = 
REMARK  5 active torsions:
REMARK  status: ('A' for Active; 'I' for Inactive)
REMARK    1  A    between atoms: C_1  and  N_2
REMARK    2  A    between atoms: C_4  and  C_5
REMARK    3  A    between atoms: N_7  and  C_8
REMARK    4  A    between atoms: C_8  and  C_9
REMARK    5  A    between atoms: N_12  and  C_13
REMARK                            x       y       z     vdW  Elec       q    Type
REMARK                         _______ _______ _______ _____ _____    ______ ____
ROOT
ATOM      1  C   UNL     1       1.338   9.109  18.901  0.00  0.00    +0.000 C 
ATOM      2  O   UNL     1       1.133   9.644  17.823  0.00  0.00    +0.000 OA
ATOM      3  N   UNL     1       2.160   8.023  19.111  0.00  0.00    +0.000 N 
ATOM      4  H   UNL     1       2.353   7.784  20.080  0.00  0.00    +0.000 HD
ENDROOT
BRANCH   1   8
ATOM      5  C   UNL     1      -1.391  12.471  21.043  0.00  0.00    +0.000 C 
ATOM      6  N   UNL     1      -0.647  11.231  21.197  0.00  0.00    +0.000 N 
ATOM      7  N   UNL     1      -0.043  10.737  20.071  0.00  0.00    +0.000 NA
ATOM      8  C   UNL     1       0.646   9.640  20.157  0.00  0.00    +0.000 C 
ATOM      9  C   UNL     1       0.835   8.825  21.392  0.00  0.00    +0.000 C 
ATOM     10  C   UNL     1       0.216   9.410  22.630  0.00  0.00    +0.000 C 
ATOM     11  C   UNL     1      -0.557  10.687  22.471  0.00  0.00    +0.000 C 
ATOM     12  O   UNL     1      -1.087  11.207  23.455  0.00  0.00    +0.000 OA
ENDBRANCH   1   8
BRANCH   3  13
ATOM     13  C   UNL     1       2.912   7.422  18.032  0.00  0.00    +0.000 C 
BRANCH  13  14
ATOM     14  C   UNL     1       3.452   6.040  18.394  0.00  0.00    +0.000 C 
ATOM     15  C   UNL     1       4.812   5.769  17.745  0.00  0.00    +0.000 C 
ATOM     16  C   UNL     1       4.557   4.616  16.784  0.00  0.00    +0.000 C 
ATOM     17  N   UNL     1       3.461   3.848  17.396  0.00  0.00    +0.000 NA
ATOM     18  C   UNL     1       2.556   4.897  17.902  0.00  0.00    +0.000 C 
BRANCH  17  19
ATOM     19  C   UNL     1       3.937   2.926  18.448  0.00  0.00    +0.000 C 
ATOM     20  C   UNL     1       2.971   2.380  19.467  0.00  0.00    +0.000 C 
ATOM     21  C   UNL     1       3.504   1.482  18.392  0.00  0.00    +0.000 C 
ENDBRANCH  17  19
ENDBRANCH  13  14
ENDBRANCH   3  13
TORSDOF 4
ENDMDL
MODEL 4
REMARK VINA RESULT:      -6.2      1.014      1.252
REMARK  Name = 
REMARK  5 active torsions:
REMARK  status: ('A' for Active; 'I' for Inactive)
REMARK    1  A    between atoms: C_1  and  N_2
REMARK    2  A    between atoms: C_4  and  C_5
REMARK    3  A    between atoms: N_7  and  C_8
REMARK    4  A    between atoms: C_8  and  C_9
REMARK    5  A    between atoms: N_12  and  C_13
REMARK                            x       y       z     vdW  Elec       q    Type
REMARK                         _______ _______ _______ _____ _____    ______ ____
ROOT
ATOM      1  C   UNL     1       2.319   6.131  19.495  0.00  0.00    +0.000 C 
ATOM      2  O   UNL     1       2.673   5.636  20.554  0.00  0.00    +0.000 OA
ATOM      3  N   UNL     1       2.250   5.472  18.287  0.00  0.00    +0.000 N 
ATOM      4  H   UNL     1       1.794   5.969  17.527  0.00  0.00    +0.000 HD
ENDROOT
BRANCH   1   8
ATOM      5  C   UNL     1       0.488  10.025  21.692  0.00  0.00    +0.000 C 
ATOM      6  N   UNL     1       1.042   9.469  20.468  0.00  0.00    +0.000 N 
ATOM      7  N   UNL     1       1.427   8.155  20.514  0.00  0.00    +0.000 NA
ATOM      8  C   UNL     1       1.915   7.606  19.443  0.00  0.00    +0.000 C 
ATOM      9  C   UNL     1       2.125   8.287  18.132  0.00  0.00    +0.000 C 
ATOM     10  C   UNL     1       1.643   9.710  18.081  0.00  0.00    +0.000 C 
ATOM     11  C   UNL     1       1.077  10.286  19.346  0.00  0.00    +0.000 C 
ATOM     12  O   UNL     1       0.670  11.450  19.359  0.00  0.00    +0.000 OA
ENDBRANCH   1   8
BRANCH   3  13
ATOM     13  C   UNL     1       2.570   4.066  18.173  0.00  0.00    +0.000 C 
BRANCH  13  14
ATOM     14  C   UNL     1       3.920   3.826  17.501  0.00  0.00    +0.000 C 
ATOM     15  C   UNL     1       5.044   3.649  18.526  0.00  0.00    +0.000 C 
ATOM     16  C   UNL     1       5.963   4.842  18.299  0.00  0.00    +0.000 C 
ATOM     17  N   UNL     1       5.821   5.162  16.869  0.00  0.00    +0.000 NA
ATOM     18  C   UNL     1       4.376   5.002  16.630  0.00  0.00    +0.000 C 
BRANCH  17  19
ATOM     19  C   UNL     1       6.658   4.297  16.012  0.00  0.00    +0.000 C 
ATOM     20  C   UNL     1       6.151   3.853  14.665  0.00  0.00    +0.000 C 
ATOM     21  C   UNL     1       7.240   4.879  14.748  0.00  0.00    +0.000 C 
ENDBRANCH  17  19
ENDBRANCH  13  14
ENDBRANCH   3  13
TORSDOF 4
ENDMDL
MODEL 5
REMARK VINA RESULT:      -6.2      4.104      7.352
REMARK  Name = 
REMARK  5 active torsions:
REMARK  status: ('A' for Active; 'I' for Inactive)
REMARK    1  A    between atoms: C_1  and  N_2
REMARK    2  A    between atoms: C_4  and  C_5
REMARK    3  A    between atoms: N_7  and  C_8
REMARK    4  A    between atoms: C_8  and  C_9
REMARK    5  A    between atoms: N_12  and  C_13
REMARK                            x       y       z     vdW  Elec       q    Type
REMARK                         _______ _______ _______ _____ _____    ______ ____
ROOT
ATOM      1  C   UNL     1       6.150   5.361  16.876  0.00  0.00    +0.000 C 
ATOM      2  O   UNL     1       5.979   6.534  17.165  0.00  0.00    +0.000 OA
ATOM      3  N   UNL     1       6.106   4.304  17.759  0.00  0.00    +0.000 N 
ATOM      4  H   UNL     1       6.114   3.374  17.351  0.00  0.00    +0.000 HD
ENDROOT
BRANCH   1   8
ATOM      5  C   UNL     1       8.813   5.917  12.883  0.00  0.00    +0.000 C 
ATOM      6  N   UNL     1       7.702   5.224  13.515  0.00  0.00    +0.000 N 
ATOM      7  N   UNL     1       7.441   5.551  14.820  0.00  0.00    +0.000 NA
ATOM      8  C   UNL     1       6.451   4.972  15.427  0.00  0.00    +0.000 C 
ATOM      9  C   UNL     1       5.552   3.937  14.837  0.00  0.00    +0.000 C 
ATOM     10  C   UNL     1       5.813   3.632  13.389  0.00  0.00    +0.000 C 
ATOM     11  C   UNL     1       6.964   4.343  12.737  0.00  0.00    +0.000 C 
ATOM     12  O   UNL     1       7.223   4.126  11.551  0.00  0.00    +0.000 OA
ENDBRANCH   1   8
BRANCH   3  13
ATOM     13  C   UNL     1       5.802   4.501  19.160  0.00  0.00    +0.000 C 
BRANCH  13  14
ATOM     14  C   UNL     1       4.492   3.833  19.573  0.00  0.00    +0.000 C 
ATOM     15  C   UNL     1       4.690   2.355  19.924  0.00  0.00    +0.000 C 
ATOM     16  C   UNL     1       3.896   1.600  18.866  0.00  0.00    +0.000 C 
ATOM     17  N   UNL     1       2.793   2.504  18.502  0.00  0.00    +0.000 NA
ATOM     18  C   UNL     1       3.443   3.826  18.455  0.00  0.00    +0.000 C 
BRANCH  17  19
ATOM     19  C   UNL     1       1.669   2.436  19.460  0.00  0.00    +0.000 C 
ATOM     20  C   UNL     1       0.937   3.691  19.855  0.00  0.00    +0.000 C 
ATOM     21  C   UNL     1       0.273   2.696  18.953  0.00  0.00    +0.000 C 
ENDBRANCH  17  19
ENDBRANCH  13  14
ENDBRANCH   3  13
TORSDOF 4
ENDMDL
MODEL 6
REMARK VINA RESULT:      -6.2      1.093      1.732
REMARK  Name = 
REMARK  5 active torsions:
REMARK  status: ('A' for Active; 'I' for Inactive)
REMARK    1  A    between atoms: C_1  and  N_2
REMARK    2  A    between atoms: C_4  and  C_5
REMARK    3  A    between atoms: N_7  and  C_8
REMARK    4  A    between atoms: C_8  and  C_9
REMARK    5  A    between atoms: N_12  and  C_13
REMARK                            x       y       z     vdW  Elec       q    Type
REMARK                         _______ _______ _______ _____ _____    ______ ____
ROOT
ATOM      1  C   UNL     1       2.273   5.995  20.215  0.00  0.00    +0.000 C 
ATOM      2  O   UNL     1       1.573   5.121  20.701  0.00  0.00    +0.000 OA
ATOM      3  N   UNL     1       3.538   5.813  19.701  0.00  0.00    +0.000 N 
ATOM      4  H   UNL     1       3.936   6.598  19.192  0.00  0.00    +0.000 HD
ENDROOT
BRANCH   1   8
ATOM      5  C   UNL     1       1.894  10.180  17.830  0.00  0.00    +0.000 C 
ATOM      6  N   UNL     1       1.569   9.435  19.037  0.00  0.00    +0.000 N 
ATOM      7  N   UNL     1       2.008   8.138  19.091  0.00  0.00    +0.000 NA
ATOM      8  C   UNL     1       1.757   7.434  20.152  0.00  0.00    +0.000 C 
ATOM      9  C   UNL     1       0.997   7.900  21.348  0.00  0.00    +0.000 C 
ATOM     10  C   UNL     1       0.573   9.341  21.299  0.00  0.00    +0.000 C 
ATOM     11  C   UNL     1       0.903  10.109  20.051  0.00  0.00    +0.000 C 
ATOM     12  O   UNL     1       0.576  11.294  19.958  0.00  0.00    +0.000 OA
ENDBRANCH   1   8
BRANCH   3  13
ATOM     13  C   UNL     1       4.157   4.506  19.658  0.00  0.00    +0.000 C 
BRANCH  13  14
ATOM     14  C   UNL     1       5.192   4.386  18.541  0.00  0.00    +0.000 C 
ATOM     15  C   UNL     1       6.451   5.207  18.838  0.00  0.00    +0.000 C 
ATOM     16  C   UNL     1       6.476   6.278  17.755  0.00  0.00    +0.000 C 
ATOM     17  N   UNL     1       5.819   5.657  16.594  0.00  0.00    +0.000 NA
ATOM     18  C   UNL     1       4.690   4.925  17.196  0.00  0.00    +0.000 C 
BRANCH  17  19
ATOM     19  C   UNL     1       6.736   4.791  15.822  0.00  0.00    +0.000 C 
ATOM     20  C   UNL     1       6.182   3.766  14.869  0.00  0.00    +0.000 C 
ATOM     21  C   UNL     1       6.843   5.000  14.333  0.00  0.00    +0.000 C 
ENDBRANCH  17  19
ENDBRANCH  13  14
ENDBRANCH   3  13
TORSDOF 4
ENDMDL
MODEL 7
REMARK VINA RESULT:      -6.1      2.303      7.315
REMARK  Name = 
REMARK  5 active torsions:
REMARK  status: ('A' for Active; 'I' for Inactive)
REMARK    1  A    between atoms: C_1  and  N_2
REMARK    2  A    between atoms: C_4  and  C_5
REMARK    3  A    between atoms: N_7  and  C_8
REMARK    4  A    between atoms: C_8  and  C_9
REMARK    5  A    between atoms: N_12  and  C_13
REMARK                            x       y       z     vdW  Elec       q    Type
REMARK                         _______ _______ _______ _____ _____    ______ ____
ROOT
ATOM      1  C   UNL     1       2.875   5.515  19.452  0.00  0.00    +0.000 C 
ATOM      2  O   UNL     1       2.058   4.633  19.666  0.00  0.00    +0.000 OA
ATOM      3  N   UNL     1       2.727   6.842  19.790  0.00  0.00    +0.000 N 
ATOM      4  H   UNL     1       3.551   7.429  19.688  0.00  0.00    +0.000 HD
ENDROOT
BRANCH   1   8
ATOM      5  C   UNL     1       7.703   5.672  19.334  0.00  0.00    +0.000 C 
ATOM      6  N   UNL     1       6.484   5.245  18.664  0.00  0.00    +0.000 N 
ATOM      7  N   UNL     1       5.306   5.524  19.305  0.00  0.00    +0.000 NA
ATOM      8  C   UNL     1       4.188   5.177  18.742  0.00  0.00    +0.000 C 
ATOM      9  C   UNL     1       4.053   4.464  17.438  0.00  0.00    +0.000 C 
ATOM     10  C   UNL     1       5.350   4.218  16.721  0.00  0.00    +0.000 C 
ATOM     11  C   UNL     1       6.609   4.653  17.415  0.00  0.00    +0.000 C 
ATOM     12  O   UNL     1       7.700   4.472  16.871  0.00  0.00    +0.000 OA
ENDBRANCH   1   8
BRANCH   3  13
ATOM     13  C   UNL     1       1.557   7.319  20.494  0.00  0.00    +0.000 C 
BRANCH  13  14
ATOM     14  C   UNL     1       1.427   8.840  20.449  0.00  0.00    +0.000 C 
ATOM     15  C   UNL     1       0.110   9.319  21.068  0.00  0.00    +0.000 C 
ATOM     16  C   UNL     1      -0.652   9.948  19.909  0.00  0.00    +0.000 C 
ATOM     17  N   UNL     1       0.389  10.465  19.006  0.00  0.00    +0.000 NA
ATOM     18  C   UNL     1       1.408   9.400  19.022  0.00  0.00    +0.000 C 
BRANCH  17  19
ATOM     19  C   UNL     1       0.908  11.780  19.438  0.00  0.00    +0.000 C 
ATOM     20  C   UNL     1       1.984  12.466  18.639  0.00  0.00    +0.000 C 
ATOM     21  C   UNL     1       0.581  12.993  18.605  0.00  0.00    +0.000 C 
ENDBRANCH  17  19
ENDBRANCH  13  14
ENDBRANCH   3  13
TORSDOF 4
ENDMDL
MODEL 8
REMARK VINA RESULT:      -6.1      3.705      7.533
REMARK  Name = 
REMARK  5 active torsions:
REMARK  status: ('A' for Active; 'I' for Inactive)
REMARK    1  A    between atoms: C_1  and  N_2
REMARK    2  A    between atoms: C_4  and  C_5
REMARK    3  A    between atoms: N_7  and  C_8
REMARK    4  A    between atoms: C_8  and  C_9
REMARK    5  A    between atoms: N_12  and  C_13
REMARK                            x       y       z     vdW  Elec       q    Type
REMARK                         _______ _______ _______ _____ _____    ______ ____
ROOT
ATOM      1  C   UNL     1       5.947   5.264  16.494  0.00  0.00    +0.000 C 
ATOM      2  O   UNL     1       5.283   6.268  16.695  0.00  0.00    +0.000 OA
ATOM      3  N   UNL     1       6.392   4.391  17.462  0.00  0.00    +0.000 N 
ATOM      4  H   UNL     1       6.801   3.520  17.132  0.00  0.00    +0.000 HD
ENDROOT
BRANCH   1   8
ATOM      5  C   UNL     1       8.850   5.940  12.691  0.00  0.00    +0.000 C 
ATOM      6  N   UNL     1       7.723   5.206  13.243  0.00  0.00    +0.000 N 
ATOM      7  N   UNL     1       7.365   5.513  14.530  0.00  0.00    +0.000 NA
ATOM      8  C   UNL     1       6.356   4.897  15.065  0.00  0.00    +0.000 C 
ATOM      9  C   UNL     1       5.531   3.840  14.409  0.00  0.00    +0.000 C 
ATOM     10  C   UNL     1       5.898   3.557  12.980  0.00  0.00    +0.000 C 
ATOM     11  C   UNL     1       7.067   4.310  12.411  0.00  0.00    +0.000 C 
ATOM     12  O   UNL     1       7.411   4.112  11.243  0.00  0.00    +0.000 OA
ENDBRANCH   1   8
BRANCH   3  13
ATOM     13  C   UNL     1       6.065   4.578  18.859  0.00  0.00    +0.000 C 
BRANCH  13  14
ATOM     14  C   UNL     1       4.848   3.761  19.288  0.00  0.00    +0.000 C 
ATOM     15  C   UNL     1       4.385   2.804  18.186  0.00  0.00    +0.000 C 
ATOM     16  C   UNL     1       3.001   3.306  17.798  0.00  0.00    +0.000 C 
ATOM     17  N   UNL     1       2.459   3.911  19.026  0.00  0.00    +0.000 NA
ATOM     18  C   UNL     1       3.619   4.626  19.589  0.00  0.00    +0.000 C 
BRANCH  17  19
ATOM     19  C   UNL     1       1.886   2.905  19.945  0.00  0.00    +0.000 C 
ATOM     20  C   UNL     1       1.840   3.176  21.426  0.00  0.00    +0.000 C 
ATOM     21  C   UNL     1       0.575   3.211  20.623  0.00  0.00    +0.000 C 
ENDBRANCH  17  19
ENDBRANCH  13  14
ENDBRANCH   3  13
TORSDOF 4
ENDMDL
MODEL 9
REMARK VINA RESULT:      -6.1      2.199      7.625
REMARK  Name = 
REMARK  5 active torsions:
REMARK  status: ('A' for Active; 'I' for Inactive)
REMARK    1  A    between atoms: C_1  and  N_2
REMARK    2  A    between atoms: C_4  and  C_5
REMARK    3  A    between atoms: N_7  and  C_8
REMARK    4  A    between atoms: C_8  and  C_9
REMARK    5  A    between atoms: N_12  and  C_13
REMARK                            x       y       z     vdW  Elec       q    Type
REMARK                         _______ _______ _______ _____ _____    ______ ____
ROOT
ATOM      1  C   UNL     1       3.054   5.680  18.645  0.00  0.00    +0.000 C 
ATOM      2  O   UNL     1       2.087   5.258  18.032  0.00  0.00    +0.000 OA
ATOM      3  N   UNL     1       3.004   6.482  19.765  0.00  0.00    +0.000 N 
ATOM      4  H   UNL     1       3.883   6.627  20.256  0.00  0.00    +0.000 HD
ENDROOT
BRANCH   1   8
ATOM      5  C   UNL     1       5.986   3.945  15.219  0.00  0.00    +0.000 C 
ATOM      6  N   UNL     1       5.878   4.502  16.558  0.00  0.00    +0.000 N 
ATOM      7  N   UNL     1       4.619   4.840  16.980  0.00  0.00    +0.000 NA
ATOM      8  C   UNL     1       4.466   5.328  18.173  0.00  0.00    +0.000 C 
ATOM      9  C   UNL     1       5.559   5.586  19.156  0.00  0.00    +0.000 C 
ATOM     10  C   UNL     1       6.925   5.155  18.702  0.00  0.00    +0.000 C 
ATOM     11  C   UNL     1       7.038   4.586  17.317  0.00  0.00    +0.000 C 
ATOM     12  O   UNL     1       8.137   4.219  16.894  0.00  0.00    +0.000 OA
ENDBRANCH   1   8
BRANCH   3  13
ATOM     13  C   UNL     1       1.745   6.879  20.357  0.00  0.00    +0.000 C 
BRANCH  13  14
ATOM     14  C   UNL     1       1.658   8.386  20.589  0.00  0.00    +0.000 C 
ATOM     15  C   UNL     1       0.641   8.738  21.679  0.00  0.00    +0.000 C 
ATOM     16  C   UNL     1      -0.444   9.522  20.953  0.00  0.00    +0.000 C 
ATOM     17  N   UNL     1       0.252  10.192  19.842  0.00  0.00    +0.000 NA
ATOM     18  C   UNL     1       1.182   9.158  19.353  0.00  0.00    +0.000 C 
BRANCH  17  19
ATOM     19  C   UNL     1       0.929  11.435  20.269  0.00  0.00    +0.000 C 
ATOM     20  C   UNL     1       1.650  12.287  19.258  0.00  0.00    +0.000 C 
ATOM     21  C   UNL     1       0.349  12.758  19.835  0.00  0.00    +0.000 C 
ENDBRANCH  17  19
ENDBRANCH  13  14
ENDBRANCH   3  13
TORSDOF 4
ENDMDL
