MODEL 1
REMARK VINA RESULT:      -6.7      0.000      0.000
REMARK  Name = 
REMARK  5 active torsions:
REMARK  status: ('A' for Active; 'I' for Inactive)
REMARK    1  A    between atoms: C_1  and  C_2
REMARK    2  A    between atoms: C_2  and  O_3
REMARK    3  A    between atoms: O_3  and  C_4
REMARK    4  A    between atoms: C_8  and  C_9
REMARK    5  A    between atoms: C_18  and  O_19
REMARK                            x       y       z     vdW  Elec       q    Type
REMARK                         _______ _______ _______ _____ _____    ______ ____
ROOT
ATOM      1  C   UNL     1       3.280   3.640  19.412  0.00  0.00    +0.000 A 
ATOM      2  C   UNL     1       3.040   4.896  19.976  0.00  0.00    +0.000 A 
ATOM      3  C   UNL     1       3.548   6.051  19.391  0.00  0.00    +0.000 A 
ATOM      4  C   UNL     1       4.302   5.960  18.221  0.00  0.00    +0.000 A 
ATOM      5  C   UNL     1       4.565   4.713  17.625  0.00  0.00    +0.000 A 
ATOM      6  C   UNL     1       4.073   3.546  18.258  0.00  0.00    +0.000 A 
ENDROOT
BRANCH   5   7
ATOM      7  C   UNL     1       5.329   4.614  16.366  0.00  0.00    +0.000 A 
ATOM      8  N   UNL     1       4.934   3.901  15.327  0.00  0.00    +0.000 NA
ATOM      9  C   UNL     1       5.803   4.081  14.261  0.00  0.00    +0.000 A 
ATOM     10  C   UNL     1       5.700   3.469  12.995  0.00  0.00    +0.000 A 
ATOM     11  C   UNL     1       6.626   3.783  11.994  0.00  0.00    +0.000 A 
ATOM     12  C   UNL     1       7.653   4.689  12.241  0.00  0.00    +0.000 A 
ATOM     13  C   UNL     1       7.790   5.291  13.495  0.00  0.00    +0.000 A 
ATOM     14  C   UNL     1       6.853   4.971  14.490  0.00  0.00    +0.000 A 
ATOM     15  S   UNL     1       6.756   5.543  16.106  0.00  0.00    +0.000 S 
ENDBRANCH   5   7
BRANCH   6  16
ATOM     16  O   UNL     1       4.381   2.300  17.761  0.00  0.00    +0.000 OA
ATOM     17  H   UNL     1       3.569   1.921  17.363  0.00  0.00    +0.000 HD
ENDBRANCH   6  16
BRANCH   1  18
ATOM     18  O   UNL     1       2.720   2.612  20.123  0.00  0.00    +0.000 OA
BRANCH  18  20
ATOM     19  C   UNL     1       0.697   2.306  18.918  0.00  0.00    +0.000 C 
ATOM     20  C   UNL     1       1.301   2.626  20.276  0.00  0.00    +0.000 C 
ENDBRANCH  18  20
ENDBRANCH   1  18
TORSDOF 4
ENDMDL
MODEL 2
REMARK VINA RESULT:      -6.6      4.438      5.698
REMARK  Name = 
REMARK  5 active torsions:
REMARK  status: ('A' for Active; 'I' for Inactive)
REMARK    1  A    between atoms: C_1  and  C_2
REMARK    2  A    between atoms: C_2  and  O_3
REMARK    3  A    between atoms: O_3  and  C_4
REMARK    4  A    between atoms: C_8  and  C_9
REMARK    5  A    between atoms: C_18  and  O_19
REMARK                            x       y       z     vdW  Elec       q    Type
REMARK                         _______ _______ _______ _____ _____    ______ ____
ROOT
ATOM      1  C   UNL     1       0.870   9.977  19.476  0.00  0.00    +0.000 A 
ATOM      2  C   UNL     1       0.594   9.612  20.797  0.00  0.00    +0.000 A 
ATOM      3  C   UNL     1       1.026   8.392  21.305  0.00  0.00    +0.000 A 
ATOM      4  C   UNL     1       1.752   7.521  20.493  0.00  0.00    +0.000 A 
ATOM      5  C   UNL     1       2.048   7.854  19.158  0.00  0.00    +0.000 A 
ATOM      6  C   UNL     1       1.564   9.082  18.647  0.00  0.00    +0.000 A 
ENDROOT
BRANCH   5   7
ATOM      7  C   UNL     1       2.848   6.954  18.306  0.00  0.00    +0.000 A 
ATOM      8  N   UNL     1       3.821   7.371  17.516  0.00  0.00    +0.000 NA
ATOM      9  C   UNL     1       4.453   6.291  16.917  0.00  0.00    +0.000 A 
ATOM     10  C   UNL     1       5.527   6.358  16.006  0.00  0.00    +0.000 A 
ATOM     11  C   UNL     1       6.100   5.179  15.519  0.00  0.00    +0.000 A 
ATOM     12  C   UNL     1       5.613   3.939  15.920  0.00  0.00    +0.000 A 
ATOM     13  C   UNL     1       4.535   3.846  16.805  0.00  0.00    +0.000 A 
ATOM     14  C   UNL     1       3.969   5.036  17.289  0.00  0.00    +0.000 A 
ATOM     15  S   UNL     1       2.657   5.244  18.377  0.00  0.00    +0.000 S 
ENDBRANCH   5   7
BRANCH   6  16
ATOM     16  O   UNL     1       1.752   9.410  17.324  0.00  0.00    +0.000 OA
ATOM     17  H   UNL     1       2.716   9.403  17.141  0.00  0.00    +0.000 HD
ENDBRANCH   6  16
BRANCH   1  18
ATOM     18  O   UNL     1       0.359  11.202  19.137  0.00  0.00    +0.000 OA
BRANCH  18  20
ATOM     19  C   UNL     1      -1.616  10.677  17.928  0.00  0.00    +0.000 C 
ATOM     20  C   UNL     1      -1.059  11.347  19.175  0.00  0.00    +0.000 C 
ENDBRANCH  18  20
ENDBRANCH   1  18
TORSDOF 4
ENDMDL
MODEL 3
REMARK VINA RESULT:      -6.6      2.814      6.939
REMARK  Name = 
REMARK  5 active torsions:
REMARK  status: ('A' for Active; 'I' for Inactive)
REMARK    1  A    between atoms: C_1  and  C_2
REMARK    2  A    between atoms: C_2  and  O_3
REMARK    3  A    between atoms: O_3  and  C_4
REMARK    4  A    between atoms: C_8  and  C_9
REMARK    5  A    between atoms: C_18  and  O_19
REMARK                            x       y       z     vdW  Elec       q    Type
REMARK                         _______ _______ _______ _____ _____    ______ ____
ROOT
ATOM      1  C   UNL     1       7.022   5.883  16.519  0.00  0.00    +0.000 A 
ATOM      2  C   UNL     1       7.175   5.271  15.272  0.00  0.00    +0.000 A 
ATOM      3  C   UNL     1       6.385   4.185  14.908  0.00  0.00    +0.000 A 
ATOM      4  C   UNL     1       5.421   3.702  15.793  0.00  0.00    +0.000 A 
ATOM      5  C   UNL     1       5.239   4.293  17.057  0.00  0.00    +0.000 A 
ATOM      6  C   UNL     1       6.079   5.371  17.424  0.00  0.00    +0.000 A 
ENDROOT
BRANCH   5   7
ATOM      7  C   UNL     1       4.194   3.811  17.981  0.00  0.00    +0.000 A 
ATOM      8  N   UNL     1       4.432   3.459  19.231  0.00  0.00    +0.000 NA
ATOM      9  C   UNL     1       3.245   3.145  19.878  0.00  0.00    +0.000 A 
ATOM     10  C   UNL     1       3.117   2.719  21.216  0.00  0.00    +0.000 A 
ATOM     11  C   UNL     1       1.846   2.484  21.752  0.00  0.00    +0.000 A 
ATOM     12  C   UNL     1       0.708   2.661  20.972  0.00  0.00    +0.000 A 
ATOM     13  C   UNL     1       0.810   3.061  19.637  0.00  0.00    +0.000 A 
ATOM     14  C   UNL     1       2.090   3.296  19.111  0.00  0.00    +0.000 A 
ATOM     15  S   UNL     1       2.533   3.794  17.528  0.00  0.00    +0.000 S 
ENDBRANCH   5   7
BRANCH   6  16
ATOM     16  O   UNL     1       5.998   5.921  18.683  0.00  0.00    +0.000 OA
ATOM     17  H   UNL     1       6.675   5.491  19.249  0.00  0.00    +0.000 HD
ENDBRANCH   6  16
BRANCH   1  18
ATOM     18  O   UNL     1       7.887   6.926  16.718  0.00  0.00    +0.000 OA
BRANCH  18  20
ATOM     19  C   UNL     1       8.444   8.772  18.103  0.00  0.00    +0.000 C 
ATOM     20  C   UNL     1       7.346   8.121  17.277  0.00  0.00    +0.000 C 
ENDBRANCH  18  20
ENDBRANCH   1  18
TORSDOF 4
ENDMDL
MODEL 4
REMARK VINA RESULT:      -6.5      4.545      6.106
REMARK  Name = 
REMARK  5 active torsions:
REMARK  status: ('A' for Active; 'I' for Inactive)
REMARK    1  A    between atoms: C_1  and  C_2
REMARK    2  A    between atoms: C_2  and  O_3
REMARK    3  A    between atoms: O_3  and  C_4
REMARK    4  A    between atoms: C_8  and  C_9
REMARK    5  A    between atoms: C_18  and  O_19
REMARK                            x       y       z     vdW  Elec       q    Type
REMARK                         _______ _______ _______ _____ _____    ______ ____
ROOT
ATOM      1  C   UNL     1       0.910  10.244  19.509  0.00  0.00    +0.000 A 
ATOM      2  C   UNL     1       0.605   9.909  20.832  0.00  0.00    +0.000 A 
ATOM      3  C   UNL     1       0.970   8.674  21.358  0.00  0.00    +0.000 A 
ATOM      4  C   UNL     1       1.655   7.757  20.561  0.00  0.00    +0.000 A 
ATOM      5  C   UNL     1       1.978   8.058  19.225  0.00  0.00    +0.000 A 
ATOM      6  C   UNL     1       1.563   9.304  18.696  0.00  0.00    +0.000 A 
ENDROOT
BRANCH   5   7
ATOM      7  C   UNL     1       2.737   7.108  18.390  0.00  0.00    +0.000 A 
ATOM      8  N   UNL     1       3.710   7.470  17.573  0.00  0.00    +0.000 NA
ATOM      9  C   UNL     1       4.298   6.352  17.000  0.00  0.00    +0.000 A 
ATOM     10  C   UNL     1       5.360   6.357  16.072  0.00  0.00    +0.000 A 
ATOM     11  C   UNL     1       5.888   5.146  15.613  0.00  0.00    +0.000 A 
ATOM     12  C   UNL     1       5.369   3.935  16.060  0.00  0.00    +0.000 A 
ATOM     13  C   UNL     1       4.302   3.903  16.962  0.00  0.00    +0.000 A 
ATOM     14  C   UNL     1       3.782   5.125  17.417  0.00  0.00    +0.000 A 
ATOM     15  S   UNL     1       2.493   5.408  18.517  0.00  0.00    +0.000 S 
ENDBRANCH   5   7
BRANCH   6  16
ATOM     16  O   UNL     1       1.777   9.606  17.371  0.00  0.00    +0.000 OA
ATOM     17  H   UNL     1       1.308   8.939  16.826  0.00  0.00    +0.000 HD
ENDBRANCH   6  16
BRANCH   1  18
ATOM     18  O   UNL     1       0.466  11.489  19.152  0.00  0.00    +0.000 OA
BRANCH  18  20
ATOM     19  C   UNL     1       2.186  12.959  18.431  0.00  0.00    +0.000 C 
ATOM     20  C   UNL     1       1.250  12.604  19.575  0.00  0.00    +0.000 C 
ENDBRANCH  18  20
ENDBRANCH   1  18
TORSDOF 4
ENDMDL
MODEL 5
REMARK VINA RESULT:      -6.4      4.755      8.187
REMARK  Name = 
REMARK  5 active torsions:
REMARK  status: ('A' for Active; 'I' for Inactive)
REMARK    1  A    between atoms: C_1  and  C_2
REMARK    2  A    between atoms: C_2  and  O_3
REMARK    3  A    between atoms: O_3  and  C_4
REMARK    4  A    between atoms: C_8  and  C_9
REMARK    5  A    between atoms: C_18  and  O_19
REMARK                            x       y       z     vdW  Elec       q    Type
REMARK                         _______ _______ _______ _____ _____    ______ ____
ROOT
ATOM      1  C   UNL     1       3.589   5.301  19.157  0.00  0.00    +0.000 A 
ATOM      2  C   UNL     1       4.196   5.708  17.966  0.00  0.00    +0.000 A 
ATOM      3  C   UNL     1       3.911   6.949  17.407  0.00  0.00    +0.000 A 
ATOM      4  C   UNL     1       3.014   7.805  18.044  0.00  0.00    +0.000 A 
ATOM      5  C   UNL     1       2.382   7.430  19.245  0.00  0.00    +0.000 A 
ATOM      6  C   UNL     1       2.655   6.147  19.776  0.00  0.00    +0.000 A 
ENDROOT
BRANCH   5   7
ATOM      7  C   UNL     1       1.463   8.348  19.943  0.00  0.00    +0.000 A 
ATOM      8  N   UNL     1       1.110   8.205  21.208  0.00  0.00    +0.000 NA
ATOM      9  C   UNL     1       0.318   9.271  21.611  0.00  0.00    +0.000 A 
ATOM     10  C   UNL     1      -0.247   9.447  22.890  0.00  0.00    +0.000 A 
ATOM     11  C   UNL     1      -0.987  10.601  23.171  0.00  0.00    +0.000 A 
ATOM     12  C   UNL     1      -1.176  11.573  22.194  0.00  0.00    +0.000 A 
ATOM     13  C   UNL     1      -0.645  11.411  20.911  0.00  0.00    +0.000 A 
ATOM     14  C   UNL     1       0.098  10.251  20.642  0.00  0.00    +0.000 A 
ATOM     15  S   UNL     1       0.870   9.776  19.183  0.00  0.00    +0.000 S 
ENDBRANCH   5   7
BRANCH   6  16
ATOM     16  O   UNL     1       1.995   5.702  20.898  0.00  0.00    +0.000 OA
ATOM     17  H   UNL     1       1.827   4.741  20.793  0.00  0.00    +0.000 HD
ENDBRANCH   6  16
BRANCH   1  18
ATOM     18  O   UNL     1       3.971   4.048  19.558  0.00  0.00    +0.000 OA
BRANCH  18  20
ATOM     19  C   UNL     1       3.108   2.016  18.684  0.00  0.00    +0.000 C 
ATOM     20  C   UNL     1       4.187   3.077  18.536  0.00  0.00    +0.000 C 
ENDBRANCH  18  20
ENDBRANCH   1  18
TORSDOF 4
ENDMDL
MODEL 6
REMARK VINA RESULT:      -6.3      3.595      6.913
REMARK  Name = 
REMARK  5 active torsions:
REMARK  status: ('A' for Active; 'I' for Inactive)
REMARK    1  A    between atoms: C_1  and  C_2
REMARK    2  A    between atoms: C_2  and  O_3
REMARK    3  A    between atoms: O_3  and  C_4
REMARK    4  A    between atoms: C_8  and  C_9
REMARK    5  A    between atoms: C_18  and  O_19
REMARK                            x       y       z     vdW  Elec       q    Type
REMARK                         _______ _______ _______ _____ _____    ______ ____
ROOT
ATOM      1  C   UNL     1       3.317   3.707  17.586  0.00  0.00    +0.000 A 
ATOM      2  C   UNL     1       4.460   3.996  16.835  0.00  0.00    +0.000 A 
ATOM      3  C   UNL     1       4.906   5.305  16.690  0.00  0.00    +0.000 A 
ATOM      4  C   UNL     1       4.212   6.346  17.306  0.00  0.00    +0.000 A 
ATOM      5  C   UNL     1       3.057   6.093  18.070  0.00  0.00    +0.000 A 
ATOM      6  C   UNL     1       2.597   4.759  18.173  0.00  0.00    +0.000 A 
ENDROOT
BRANCH   5   7
ATOM      7  C   UNL     1       2.342   7.186  18.756  0.00  0.00    +0.000 A 
ATOM      8  N   UNL     1       2.020   7.155  20.036  0.00  0.00    +0.000 NA
ATOM      9  C   UNL     1       1.445   8.359  20.417  0.00  0.00    +0.000 A 
ATOM     10  C   UNL     1       0.970   8.681  21.706  0.00  0.00    +0.000 A 
ATOM     11  C   UNL     1       0.457   9.958  21.959  0.00  0.00    +0.000 A 
ATOM     12  C   UNL     1       0.405  10.911  20.946  0.00  0.00    +0.000 A 
ATOM     13  C   UNL     1       0.848  10.609  19.655  0.00  0.00    +0.000 A 
ATOM     14  C   UNL     1       1.363   9.326  19.414  0.00  0.00    +0.000 A 
ATOM     15  S   UNL     1       1.982   8.667  17.954  0.00  0.00    +0.000 S 
ENDBRANCH   5   7
BRANCH   6  16
ATOM     16  O   UNL     1       1.423   4.475  18.833  0.00  0.00    +0.000 OA
ATOM     17  H   UNL     1       0.796   4.085  18.188  0.00  0.00    +0.000 HD
ENDBRANCH   6  16
BRANCH   1  18
ATOM     18  O   UNL     1       3.012   2.372  17.614  0.00  0.00    +0.000 OA
BRANCH  18  20
ATOM     19  C   UNL     1       3.981   2.141  19.769  0.00  0.00    +0.000 C 
ATOM     20  C   UNL     1       3.866   1.526  18.383  0.00  0.00    +0.000 C 
ENDBRANCH  18  20
ENDBRANCH   1  18
TORSDOF 4
ENDMDL
MODEL 7
REMARK VINA RESULT:      -6.3      5.108      7.349
REMARK  Name = 
REMARK  5 active torsions:
REMARK  status: ('A' for Active; 'I' for Inactive)
REMARK    1  A    between atoms: C_1  and  C_2
REMARK    2  A    between atoms: C_2  and  O_3
REMARK    3  A    between atoms: O_3  and  C_4
REMARK    4  A    between atoms: C_8  and  C_9
REMARK    5  A    between atoms: C_18  and  O_19
REMARK                            x       y       z     vdW  Elec       q    Type
REMARK                         _______ _______ _______ _____ _____    ______ ____
ROOT
ATOM      1  C   UNL     1       0.897  10.359  20.556  0.00  0.00    +0.000 A 
ATOM      2  C   UNL     1       0.756  10.851  19.256  0.00  0.00    +0.000 A 
ATOM      3  C   UNL     1       1.112  10.077  18.157  0.00  0.00    +0.000 A 
ATOM      4  C   UNL     1       1.611   8.789  18.350  0.00  0.00    +0.000 A 
ATOM      5  C   UNL     1       1.768   8.260  19.644  0.00  0.00    +0.000 A 
ATOM      6  C   UNL     1       1.437   9.078  20.751  0.00  0.00    +0.000 A 
ENDROOT
BRANCH   5   7
ATOM      7  C   UNL     1       2.258   6.884  19.852  0.00  0.00    +0.000 A 
ATOM      8  N   UNL     1       1.757   6.060  20.754  0.00  0.00    +0.000 NA
ATOM      9  C   UNL     1       2.352   4.810  20.648  0.00  0.00    +0.000 A 
ATOM     10  C   UNL     1       2.072   3.688  21.454  0.00  0.00    +0.000 A 
ATOM     11  C   UNL     1       2.716   2.472  21.200  0.00  0.00    +0.000 A 
ATOM     12  C   UNL     1       3.637   2.364  20.163  0.00  0.00    +0.000 A 
ATOM     13  C   UNL     1       3.948   3.468  19.364  0.00  0.00    +0.000 A 
ATOM     14  C   UNL     1       3.293   4.682  19.627  0.00  0.00    +0.000 A 
ATOM     15  S   UNL     1       3.457   6.193  18.827  0.00  0.00    +0.000 S 
ENDBRANCH   5   7
BRANCH   6  16
ATOM     16  O   UNL     1       1.658   8.637  22.035  0.00  0.00    +0.000 OA
ATOM     17  H   UNL     1       1.440   9.369  22.651  0.00  0.00    +0.000 HD
ENDBRANCH   6  16
BRANCH   1  18
ATOM     18  O   UNL     1       0.513  11.255  21.518  0.00  0.00    +0.000 OA
BRANCH  18  20
ATOM     19  C   UNL     1      -1.081  10.609  23.155  0.00  0.00    +0.000 C 
ATOM     20  C   UNL     1      -0.878  11.321  21.826  0.00  0.00    +0.000 C 
ENDBRANCH  18  20
ENDBRANCH   1  18
TORSDOF 4
ENDMDL
MODEL 8
REMARK VINA RESULT:      -6.2      4.302      6.438
REMARK  Name = 
REMARK  5 active torsions:
REMARK  status: ('A' for Active; 'I' for Inactive)
REMARK    1  A    between atoms: C_1  and  C_2
REMARK    2  A    between atoms: C_2  and  O_3
REMARK    3  A    between atoms: O_3  and  C_4
REMARK    4  A    between atoms: C_8  and  C_9
REMARK    5  A    between atoms: C_18  and  O_19
REMARK                            x       y       z     vdW  Elec       q    Type
REMARK                         _______ _______ _______ _____ _____    ______ ____
ROOT
ATOM      1  C   UNL     1       1.145   9.697  20.602  0.00  0.00    +0.000 A 
ATOM      2  C   UNL     1       1.059  10.554  19.502  0.00  0.00    +0.000 A 
ATOM      3  C   UNL     1       1.420  10.122  18.230  0.00  0.00    +0.000 A 
ATOM      4  C   UNL     1       1.868   8.814  18.045  0.00  0.00    +0.000 A 
ATOM      5  C   UNL     1       1.968   7.923  19.129  0.00  0.00    +0.000 A 
ATOM      6  C   UNL     1       1.634   8.394  20.421  0.00  0.00    +0.000 A 
ENDROOT
BRANCH   5   7
ATOM      7  C   UNL     1       2.404   6.527  18.931  0.00  0.00    +0.000 A 
ATOM      8  N   UNL     1       1.833   5.494  19.525  0.00  0.00    +0.000 NA
ATOM      9  C   UNL     1       2.392   4.308  19.071  0.00  0.00    +0.000 A 
ATOM     10  C   UNL     1       2.038   3.010  19.492  0.00  0.00    +0.000 A 
ATOM     11  C   UNL     1       2.655   1.898  18.908  0.00  0.00    +0.000 A 
ATOM     12  C   UNL     1       3.620   2.063  17.920  0.00  0.00    +0.000 A 
ATOM     13  C   UNL     1       4.005   3.341  17.502  0.00  0.00    +0.000 A 
ATOM     14  C   UNL     1       3.378   4.449  18.093  0.00  0.00    +0.000 A 
ATOM     15  S   UNL     1       3.628   6.121  17.790  0.00  0.00    +0.000 S 
ENDBRANCH   5   7
BRANCH   6  16
ATOM     16  O   UNL     1       1.802   7.587  21.523  0.00  0.00    +0.000 OA
ATOM     17  H   UNL     1       0.915   7.370  21.881  0.00  0.00    +0.000 HD
ENDBRANCH   6  16
BRANCH   1  18
ATOM     18  O   UNL     1       0.765  10.287  21.778  0.00  0.00    +0.000 OA
BRANCH  18  20
ATOM     19  C   UNL     1      -1.160  10.851  23.049  0.00  0.00    +0.000 C 
ATOM     20  C   UNL     1      -0.410  11.095  21.749  0.00  0.00    +0.000 C 
ENDBRANCH  18  20
ENDBRANCH   1  18
TORSDOF 4
ENDMDL
MODEL 9
REMARK VINA RESULT:      -6.2      3.243      7.150
REMARK  Name = 
REMARK  5 active torsions:
REMARK  status: ('A' for Active; 'I' for Inactive)
REMARK    1  A    between atoms: C_1  and  C_2
REMARK    2  A    between atoms: C_2  and  O_3
REMARK    3  A    between atoms: O_3  and  C_4
REMARK    4  A    between atoms: C_8  and  C_9
REMARK    5  A    between atoms: C_18  and  O_19
REMARK                            x       y       z     vdW  Elec       q    Type
REMARK                         _______ _______ _______ _____ _____    ______ ____
ROOT
ATOM      1  C   UNL     1       6.269   5.125  15.664  0.00  0.00    +0.000 A 
ATOM      2  C   UNL     1       5.880   3.783  15.614  0.00  0.00    +0.000 A 
ATOM      3  C   UNL     1       4.769   3.335  16.321  0.00  0.00    +0.000 A 
ATOM      4  C   UNL     1       4.025   4.235  17.085  0.00  0.00    +0.000 A 
ATOM      5  C   UNL     1       4.387   5.593  17.160  0.00  0.00    +0.000 A 
ATOM      6  C   UNL     1       5.544   6.020  16.466  0.00  0.00    +0.000 A 
ENDROOT
BRANCH   5   7
ATOM      7  C   UNL     1       3.581   6.555  17.934  0.00  0.00    +0.000 A 
ATOM      8  N   UNL     1       3.143   7.701  17.444  0.00  0.00    +0.000 NA
ATOM      9  C   UNL     1       2.335   8.344  18.370  0.00  0.00    +0.000 A 
ATOM     10  C   UNL     1       1.703   9.592  18.195  0.00  0.00    +0.000 A 
ATOM     11  C   UNL     1       0.872  10.098  19.201  0.00  0.00    +0.000 A 
ATOM     12  C   UNL     1       0.672   9.383  20.377  0.00  0.00    +0.000 A 
ATOM     13  C   UNL     1       1.305   8.155  20.585  0.00  0.00    +0.000 A 
ATOM     14  C   UNL     1       2.134   7.655  19.567  0.00  0.00    +0.000 A 
ATOM     15  S   UNL     1       3.032   6.192  19.526  0.00  0.00    +0.000 S 
ENDBRANCH   5   7
BRANCH   6  16
ATOM     16  O   UNL     1       5.987   7.318  16.582  0.00  0.00    +0.000 OA
ATOM     17  H   UNL     1       5.764   7.638  17.482  0.00  0.00    +0.000 HD
ENDBRANCH   6  16
BRANCH   1  18
ATOM     18  O   UNL     1       7.390   5.390  14.923  0.00  0.00    +0.000 OA
BRANCH  18  20
ATOM     19  C   UNL     1       8.256   5.792  12.749  0.00  0.00    +0.000 C 
ATOM     20  C   UNL     1       7.446   4.835  13.610  0.00  0.00    +0.000 C 
ENDBRANCH  18  20
ENDBRANCH   1  18
TORSDOF 4
ENDMDL
