MODEL 1
REMARK VINA RESULT:      -7.0      0.000      0.000
REMARK  Name = 
REMARK  6 active torsions:
REMARK  status: ('A' for Active; 'I' for Inactive)
REMARK    1  A    between atoms: C_1  and  C_2
REMARK    2  A    between atoms: C_8  and  C_9
REMARK    3  A    between atoms: N_16  and  C_17
REMARK    4  A    between atoms: C_18  and  O_19
REMARK    5  A    between atoms: O_19  and  C_20
REMARK    6  A    between atoms: C_20  and  C_21
REMARK                            x       y       z     vdW  Elec       q    Type
REMARK                         _______ _______ _______ _____ _____    ______ ____
ROOT
ATOM      1  C   UNL     1      -4.979  12.366  19.239  0.00  0.00    +0.000 A 
ATOM      2  C   UNL     1      -5.983  12.282  18.245  0.00  0.00    +0.000 A 
ATOM      3  C   UNL     1      -5.735  11.743  16.985  0.00  0.00    +0.000 A 
ATOM      4  C   UNL     1      -4.469  11.269  16.698  0.00  0.00    +0.000 A 
ATOM      5  C   UNL     1      -3.461  11.347  17.672  0.00  0.00    +0.000 A 
ATOM      6  C   UNL     1      -2.160  10.740  17.382  0.00  0.00    +0.000 A 
ATOM      7  O   UNL     1      -1.905  10.364  16.240  0.00  0.00    +0.000 OA
ATOM      8  N   UNL     1      -1.294  10.624  18.450  0.00  0.00    +0.000 N 
ATOM      9  C   UNL     1      -0.062   9.889  18.225  0.00  0.00    +0.000 C 
ATOM     10  C   UNL     1      -1.514  11.319  19.626  0.00  0.00    +0.000 A 
ATOM     11  N   UNL     1      -2.605  11.967  19.898  0.00  0.00    +0.000 NA
ATOM     12  C   UNL     1      -3.666  11.907  18.941  0.00  0.00    +0.000 A 
ENDROOT
BRANCH   1  20
ATOM     13  C   UNL     1      -5.164  16.488  23.203  0.00  0.00    +0.000 C 
ATOM     14  C   UNL     1      -5.024  15.024  23.550  0.00  0.00    +0.000 C 
ATOM     15  N   UNL     1      -6.142  14.556  24.392  0.00  0.00    +0.000 N 
ATOM     16  C   UNL     1      -6.917  13.543  23.835  0.00  0.00    +0.000 C 
ATOM     17  O   UNL     1      -7.876  12.984  24.338  0.00  0.00    +0.000 OA
ATOM     18  C   UNL     1      -6.323  13.300  22.554  0.00  0.00    +0.000 A 
ATOM     19  C   UNL     1      -6.421  12.516  21.407  0.00  0.00    +0.000 A 
ATOM     20  C   UNL     1      -5.371  12.892  20.558  0.00  0.00    +0.000 A 
ATOM     21  N   UNL     1      -4.658  13.898  21.210  0.00  0.00    +0.000 N 
ATOM     22  C   UNL     1      -5.251  14.129  22.398  0.00  0.00    +0.000 A 
ATOM     23  H   UNL     1      -6.323  14.868  25.333  0.00  0.00    +0.000 HD
ATOM     24  H   UNL     1      -3.829  14.334  20.818  0.00  0.00    +0.000 HD
ENDBRANCH   1  20
BRANCH  10  25
ATOM     25  O   UNL     1      -0.456  11.229  20.484  0.00  0.00    +0.000 OA
BRANCH  25  26
ATOM     26  C   UNL     1      -0.462  10.486  21.719  0.00  0.00    +0.000 C 
ATOM     27  C   UNL     1      -0.959  11.241  22.916  0.00  0.00    +0.000 C 
ATOM     28  C   UNL     1      -0.412   8.981  21.745  0.00  0.00    +0.000 C 
ATOM     29  C   UNL     1       0.863   9.752  21.872  0.00  0.00    +0.000 C 
ENDBRANCH  25  26
ENDBRANCH  10  25
TORSDOF 3
ENDMDL
MODEL 2
REMARK VINA RESULT:      -7.0      1.060      1.381
REMARK  Name = 
REMARK  6 active torsions:
REMARK  status: ('A' for Active; 'I' for Inactive)
REMARK    1  A    between atoms: C_1  and  C_2
REMARK    2  A    between atoms: C_8  and  C_9
REMARK    3  A    between atoms: N_16  and  C_17
REMARK    4  A    between atoms: C_18  and  O_19
REMARK    5  A    between atoms: O_19  and  C_20
REMARK    6  A    between atoms: C_20  and  C_21
REMARK                            x       y       z     vdW  Elec       q    Type
REMARK                         _______ _______ _______ _____ _____    ______ ____
ROOT
ATOM      1  C   UNL     1      -4.971  12.454  19.198  0.00  0.00    +0.000 A 
ATOM      2  C   UNL     1      -5.986  12.391  18.213  0.00  0.00    +0.000 A 
ATOM      3  C   UNL     1      -5.761  11.846  16.952  0.00  0.00    +0.000 A 
ATOM      4  C   UNL     1      -4.508  11.345  16.653  0.00  0.00    +0.000 A 
ATOM      5  C   UNL     1      -3.490  11.402  17.619  0.00  0.00    +0.000 A 
ATOM      6  C   UNL     1      -2.205  10.768  17.317  0.00  0.00    +0.000 A 
ATOM      7  O   UNL     1      -1.968  10.386  16.173  0.00  0.00    +0.000 OA
ATOM      8  N   UNL     1      -1.331  10.634  18.377  0.00  0.00    +0.000 N 
ATOM      9  C   UNL     1      -0.117   9.873  18.142  0.00  0.00    +0.000 C 
ATOM     10  C   UNL     1      -1.526  11.334  19.555  0.00  0.00    +0.000 A 
ATOM     11  N   UNL     1      -2.600  12.005  19.836  0.00  0.00    +0.000 NA
ATOM     12  C   UNL     1      -3.672  11.967  18.889  0.00  0.00    +0.000 A 
ENDROOT
BRANCH   1  20
ATOM     13  C   UNL     1      -4.766  12.427  24.917  0.00  0.00    +0.000 C 
ATOM     14  C   UNL     1      -6.013  12.789  24.144  0.00  0.00    +0.000 C 
ATOM     15  N   UNL     1      -6.462  14.161  24.448  0.00  0.00    +0.000 N 
ATOM     16  C   UNL     1      -6.484  15.031  23.362  0.00  0.00    +0.000 C 
ATOM     17  O   UNL     1      -6.831  16.199  23.356  0.00  0.00    +0.000 OA
ATOM     18  C   UNL     1      -6.026  14.239  22.259  0.00  0.00    +0.000 A 
ATOM     19  C   UNL     1      -5.759  14.273  20.893  0.00  0.00    +0.000 A 
ATOM     20  C   UNL     1      -5.341  12.989  20.521  0.00  0.00    +0.000 A 
ATOM     21  N   UNL     1      -5.363  12.201  21.672  0.00  0.00    +0.000 N 
ATOM     22  C   UNL     1      -5.769  12.974  22.699  0.00  0.00    +0.000 A 
ATOM     23  H   UNL     1      -6.804  14.469  25.345  0.00  0.00    +0.000 HD
ATOM     24  H   UNL     1      -5.123  11.215  21.675  0.00  0.00    +0.000 HD
ENDBRANCH   1  20
BRANCH  10  25
ATOM     25  O   UNL     1      -0.463  11.222  20.403  0.00  0.00    +0.000 OA
BRANCH  25  26
ATOM     26  C   UNL     1      -0.475  10.487  21.643  0.00  0.00    +0.000 C 
ATOM     27  C   UNL     1      -0.994  11.243  22.829  0.00  0.00    +0.000 C 
ATOM     28  C   UNL     1      -0.410   8.982  21.678  0.00  0.00    +0.000 C 
ATOM     29  C   UNL     1       0.855   9.766  21.816  0.00  0.00    +0.000 C 
ENDBRANCH  25  26
ENDBRANCH  10  25
TORSDOF 3
ENDMDL
MODEL 3
REMARK VINA RESULT:      -7.0      2.460      4.988
REMARK  Name = 
REMARK  6 active torsions:
REMARK  status: ('A' for Active; 'I' for Inactive)
REMARK    1  A    between atoms: C_1  and  C_2
REMARK    2  A    between atoms: C_8  and  C_9
REMARK    3  A    between atoms: N_16  and  C_17
REMARK    4  A    between atoms: C_18  and  O_19
REMARK    5  A    between atoms: O_19  and  C_20
REMARK    6  A    between atoms: C_20  and  C_21
REMARK                            x       y       z     vdW  Elec       q    Type
REMARK                         _______ _______ _______ _____ _____    ______ ____
ROOT
ATOM      1  C   UNL     1      -1.052  11.485  20.422  0.00  0.00    +0.000 A 
ATOM      2  C   UNL     1       0.259  10.953  20.385  0.00  0.00    +0.000 A 
ATOM      3  C   UNL     1       0.731  10.221  19.299  0.00  0.00    +0.000 A 
ATOM      4  C   UNL     1      -0.105  10.011  18.219  0.00  0.00    +0.000 A 
ATOM      5  C   UNL     1      -1.409  10.531  18.241  0.00  0.00    +0.000 A 
ATOM      6  C   UNL     1      -2.237  10.390  17.041  0.00  0.00    +0.000 A 
ATOM      7  O   UNL     1      -1.867   9.654  16.129  0.00  0.00    +0.000 OA
ATOM      8  N   UNL     1      -3.406  11.124  17.021  0.00  0.00    +0.000 N 
ATOM      9  C   UNL     1      -4.167  11.122  15.784  0.00  0.00    +0.000 C 
ATOM     10  C   UNL     1      -3.910  11.694  18.177  0.00  0.00    +0.000 A 
ATOM     11  N   UNL     1      -3.266  11.754  19.302  0.00  0.00    +0.000 NA
ATOM     12  C   UNL     1      -1.928  11.250  19.327  0.00  0.00    +0.000 A 
ENDROOT
BRANCH   1  20
ATOM     13  C   UNL     1      -4.341  12.650  24.957  0.00  0.00    +0.000 C 
ATOM     14  C   UNL     1      -3.744  13.726  24.080  0.00  0.00    +0.000 C 
ATOM     15  N   UNL     1      -2.859  14.623  24.848  0.00  0.00    +0.000 N 
ATOM     16  C   UNL     1      -1.532  14.644  24.429  0.00  0.00    +0.000 C 
ATOM     17  O   UNL     1      -0.621  15.312  24.888  0.00  0.00    +0.000 OA
ATOM     18  C   UNL     1      -1.487  13.722  23.333  0.00  0.00    +0.000 A 
ATOM     19  C   UNL     1      -0.643  13.160  22.379  0.00  0.00    +0.000 A 
ATOM     20  C   UNL     1      -1.422  12.302  21.592  0.00  0.00    +0.000 A 
ATOM     21  N   UNL     1      -2.725  12.362  22.087  0.00  0.00    +0.000 N 
ATOM     22  C   UNL     1      -2.736  13.212  23.133  0.00  0.00    +0.000 A 
ATOM     23  H   UNL     1      -3.165  15.245  25.580  0.00  0.00    +0.000 HD
ATOM     24  H   UNL     1      -3.498  11.846  21.678  0.00  0.00    +0.000 HD
ENDBRANCH   1  20
BRANCH  10  25
ATOM     25  O   UNL     1      -5.161  12.208  17.995  0.00  0.00    +0.000 OA
BRANCH  25  26
ATOM     26  C   UNL     1      -6.321  11.836  18.765  0.00  0.00    +0.000 C 
ATOM     27  C   UNL     1      -6.645  10.372  18.765  0.00  0.00    +0.000 C 
ATOM     28  C   UNL     1      -6.893  12.734  19.831  0.00  0.00    +0.000 C 
ATOM     29  C   UNL     1      -7.464  12.792  18.451  0.00  0.00    +0.000 C 
ENDBRANCH  25  26
ENDBRANCH  10  25
TORSDOF 3
ENDMDL
MODEL 4
REMARK VINA RESULT:      -7.0      5.955      9.409
REMARK  Name = 
REMARK  6 active torsions:
REMARK  status: ('A' for Active; 'I' for Inactive)
REMARK    1  A    between atoms: C_1  and  C_2
REMARK    2  A    between atoms: C_8  and  C_9
REMARK    3  A    between atoms: N_16  and  C_17
REMARK    4  A    between atoms: C_18  and  O_19
REMARK    5  A    between atoms: O_19  and  C_20
REMARK    6  A    between atoms: C_20  and  C_21
REMARK                            x       y       z     vdW  Elec       q    Type
REMARK                         _______ _______ _______ _____ _____    ______ ____
ROOT
ATOM      1  C   UNL     1       3.563   7.018  17.525  0.00  0.00    +0.000 A 
ATOM      2  C   UNL     1       4.334   7.651  16.521  0.00  0.00    +0.000 A 
ATOM      3  C   UNL     1       5.226   6.947  15.718  0.00  0.00    +0.000 A 
ATOM      4  C   UNL     1       5.361   5.584  15.904  0.00  0.00    +0.000 A 
ATOM      5  C   UNL     1       4.605   4.941  16.897  0.00  0.00    +0.000 A 
ATOM      6  C   UNL     1       4.684   3.482  17.000  0.00  0.00    +0.000 A 
ATOM      7  O   UNL     1       5.547   2.873  16.372  0.00  0.00    +0.000 OA
ATOM      8  N   UNL     1       3.747   2.881  17.815  0.00  0.00    +0.000 N 
ATOM      9  C   UNL     1       3.705   1.429  17.815  0.00  0.00    +0.000 C 
ATOM     10  C   UNL     1       3.000   3.623  18.713  0.00  0.00    +0.000 A 
ATOM     11  N   UNL     1       2.972   4.920  18.742  0.00  0.00    +0.000 NA
ATOM     12  C   UNL     1       3.716   5.621  17.741  0.00  0.00    +0.000 A 
ENDROOT
BRANCH   1  20
ATOM     13  C   UNL     1       1.410   9.186  22.363  0.00  0.00    +0.000 C 
ATOM     14  C   UNL     1       0.547   8.798  21.185  0.00  0.00    +0.000 C 
ATOM     15  N   UNL     1      -0.211   9.952  20.664  0.00  0.00    +0.000 N 
ATOM     16  C   UNL     1       0.068  10.296  19.344  0.00  0.00    +0.000 C 
ATOM     17  O   UNL     1      -0.438  11.191  18.690  0.00  0.00    +0.000 OA
ATOM     18  C   UNL     1       1.063   9.352  18.930  0.00  0.00    +0.000 A 
ATOM     19  C   UNL     1       1.856   8.963  17.854  0.00  0.00    +0.000 A 
ATOM     20  C   UNL     1       2.600   7.850  18.268  0.00  0.00    +0.000 A 
ATOM     21  N   UNL     1       2.240   7.587  19.591  0.00  0.00    +0.000 N 
ATOM     22  C   UNL     1       1.326   8.504  19.966  0.00  0.00    +0.000 A 
ATOM     23  H   UNL     1      -0.937  10.438  21.167  0.00  0.00    +0.000 HD
ATOM     24  H   UNL     1       2.621   6.813  20.126  0.00  0.00    +0.000 HD
ENDBRANCH   1  20
BRANCH  10  25
ATOM     25  O   UNL     1       2.276   2.834  19.558  0.00  0.00    +0.000 OA
BRANCH  25  26
ATOM     26  C   UNL     1       1.519   3.317  20.686  0.00  0.00    +0.000 C 
ATOM     27  C   UNL     1       0.689   4.538  20.423  0.00  0.00    +0.000 C 
ATOM     28  C   UNL     1       1.221   2.447  21.879  0.00  0.00    +0.000 C 
ATOM     29  C   UNL     1       2.413   3.347  21.918  0.00  0.00    +0.000 C 
ENDBRANCH  25  26
ENDBRANCH  10  25
TORSDOF 3
ENDMDL
MODEL 5
REMARK VINA RESULT:      -6.9      6.453      9.763
REMARK  Name = 
REMARK  6 active torsions:
REMARK  status: ('A' for Active; 'I' for Inactive)
REMARK    1  A    between atoms: C_1  and  C_2
REMARK    2  A    between atoms: C_8  and  C_9
REMARK    3  A    between atoms: N_16  and  C_17
REMARK    4  A    between atoms: C_18  and  O_19
REMARK    5  A    between atoms: O_19  and  C_20
REMARK    6  A    between atoms: C_20  and  C_21
REMARK                            x       y       z     vdW  Elec       q    Type
REMARK                         _______ _______ _______ _____ _____    ______ ____
ROOT
ATOM      1  C   UNL     1       2.492   5.548  18.376  0.00  0.00    +0.000 A 
ATOM      2  C   UNL     1       1.678   4.404  18.555  0.00  0.00    +0.000 A 
ATOM      3  C   UNL     1       1.999   3.171  17.995  0.00  0.00    +0.000 A 
ATOM      4  C   UNL     1       3.154   3.058  17.243  0.00  0.00    +0.000 A 
ATOM      5  C   UNL     1       3.971   4.184  17.055  0.00  0.00    +0.000 A 
ATOM      6  C   UNL     1       5.243   4.013  16.349  0.00  0.00    +0.000 A 
ATOM      7  O   UNL     1       5.476   2.960  15.761  0.00  0.00    +0.000 OA
ATOM      8  N   UNL     1       6.115   5.081  16.405  0.00  0.00    +0.000 N 
ATOM      9  C   UNL     1       7.441   4.882  15.846  0.00  0.00    +0.000 C 
ATOM     10  C   UNL     1       5.689   6.330  16.822  0.00  0.00    +0.000 A 
ATOM     11  N   UNL     1       4.530   6.565  17.357  0.00  0.00    +0.000 NA
ATOM     12  C   UNL     1       3.667   5.447  17.582  0.00  0.00    +0.000 A 
ENDROOT
BRANCH   1  20
ATOM     13  C   UNL     1      -0.145  10.622  18.583  0.00  0.00    +0.000 C 
ATOM     14  C   UNL     1       1.159  10.347  19.296  0.00  0.00    +0.000 C 
ATOM     15  N   UNL     1       1.032  10.540  20.754  0.00  0.00    +0.000 N 
ATOM     16  C   UNL     1       1.278   9.406  21.523  0.00  0.00    +0.000 C 
ATOM     17  O   UNL     1       1.254   9.318  22.739  0.00  0.00    +0.000 OA
ATOM     18  C   UNL     1       1.581   8.382  20.568  0.00  0.00    +0.000 A 
ATOM     19  C   UNL     1       1.932   7.041  20.440  0.00  0.00    +0.000 A 
ATOM     20  C   UNL     1       2.090   6.783  19.072  0.00  0.00    +0.000 A 
ATOM     21  N   UNL     1       1.831   7.977  18.398  0.00  0.00    +0.000 N 
ATOM     22  C   UNL     1       1.522   8.916  19.314  0.00  0.00    +0.000 A 
ATOM     23  H   UNL     1       0.854  11.424  21.204  0.00  0.00    +0.000 HD
ATOM     24  H   UNL     1       1.897   8.070  17.389  0.00  0.00    +0.000 HD
ENDBRANCH   1  20
BRANCH  10  25
ATOM     25  O   UNL     1       6.637   7.291  16.624  0.00  0.00    +0.000 OA
BRANCH  25  26
ATOM     26  C   UNL     1       7.602   7.707  17.611  0.00  0.00    +0.000 C 
ATOM     27  C   UNL     1       7.833   6.734  18.728  0.00  0.00    +0.000 C 
ATOM     28  C   UNL     1       8.614   8.787  17.331  0.00  0.00    +0.000 C 
ATOM     29  C   UNL     1       7.331   9.153  18.005  0.00  0.00    +0.000 C 
ENDBRANCH  25  26
ENDBRANCH  10  25
TORSDOF 3
ENDMDL
MODEL 6
REMARK VINA RESULT:      -6.7      2.223      7.340
REMARK  Name = 
REMARK  6 active torsions:
REMARK  status: ('A' for Active; 'I' for Inactive)
REMARK    1  A    between atoms: C_1  and  C_2
REMARK    2  A    between atoms: C_8  and  C_9
REMARK    3  A    between atoms: N_16  and  C_17
REMARK    4  A    between atoms: C_18  and  O_19
REMARK    5  A    between atoms: O_19  and  C_20
REMARK    6  A    between atoms: C_20  and  C_21
REMARK                            x       y       z     vdW  Elec       q    Type
REMARK                         _______ _______ _______ _____ _____    ______ ____
ROOT
ATOM      1  C   UNL     1      -2.325  13.211  22.905  0.00  0.00    +0.000 A 
ATOM      2  C   UNL     1      -1.721  14.077  23.848  0.00  0.00    +0.000 A 
ATOM      3  C   UNL     1      -2.462  14.981  24.604  0.00  0.00    +0.000 A 
ATOM      4  C   UNL     1      -3.832  15.032  24.431  0.00  0.00    +0.000 A 
ATOM      5  C   UNL     1      -4.446  14.182  23.498  0.00  0.00    +0.000 A 
ATOM      6  C   UNL     1      -5.909  14.178  23.412  0.00  0.00    +0.000 A 
ATOM      7  O   UNL     1      -6.555  15.046  23.994  0.00  0.00    +0.000 OA
ATOM      8  N   UNL     1      -6.469  13.160  22.667  0.00  0.00    +0.000 N 
ATOM      9  C   UNL     1      -7.917  13.042  22.692  0.00  0.00    +0.000 C 
ATOM     10  C   UNL     1      -5.699  12.397  21.807  0.00  0.00    +0.000 A 
ATOM     11  N   UNL     1      -4.403  12.435  21.760  0.00  0.00    +0.000 NA
ATOM     12  C   UNL     1      -3.730  13.277  22.701  0.00  0.00    +0.000 A 
ENDROOT
BRANCH   1  20
ATOM     13  C   UNL     1       1.259  11.733  18.696  0.00  0.00    +0.000 C 
ATOM     14  C   UNL     1       0.250  10.776  19.286  0.00  0.00    +0.000 C 
ATOM     15  N   UNL     1       0.905   9.592  19.876  0.00  0.00    +0.000 N 
ATOM     16  C   UNL     1       0.696   9.420  21.242  0.00  0.00    +0.000 C 
ATOM     17  O   UNL     1       1.114   8.517  21.946  0.00  0.00    +0.000 OA
ATOM     18  C   UNL     1      -0.129  10.528  21.621  0.00  0.00    +0.000 A 
ATOM     19  C   UNL     1      -0.784  11.117  22.699  0.00  0.00    +0.000 A 
ATOM     20  C   UNL     1      -1.452  12.248  22.211  0.00  0.00    +0.000 A 
ATOM     21  N   UNL     1      -1.186  12.321  20.843  0.00  0.00    +0.000 N 
ATOM     22  C   UNL     1      -0.386  11.286  20.517  0.00  0.00    +0.000 A 
ATOM     23  H   UNL     1       1.413   8.896  19.354  0.00  0.00    +0.000 HD
ATOM     24  H   UNL     1      -1.570  13.043  20.241  0.00  0.00    +0.000 HD
ENDBRANCH   1  20
BRANCH  10  25
ATOM     25  O   UNL     1      -6.458  11.580  21.022  0.00  0.00    +0.000 OA
BRANCH  25  26
ATOM     26  C   UNL     1      -6.579  11.698  19.590  0.00  0.00    +0.000 C 
ATOM     27  C   UNL     1      -7.486  12.794  19.114  0.00  0.00    +0.000 C 
ATOM     28  C   UNL     1      -5.565  11.099  18.651  0.00  0.00    +0.000 C 
ATOM     29  C   UNL     1      -6.795  10.318  18.986  0.00  0.00    +0.000 C 
ENDBRANCH  25  26
ENDBRANCH  10  25
TORSDOF 3
ENDMDL
MODEL 7
REMARK VINA RESULT:      -6.7      1.853      4.599
REMARK  Name = 
REMARK  6 active torsions:
REMARK  status: ('A' for Active; 'I' for Inactive)
REMARK    1  A    between atoms: C_1  and  C_2
REMARK    2  A    between atoms: C_8  and  C_9
REMARK    3  A    between atoms: N_16  and  C_17
REMARK    4  A    between atoms: C_18  and  O_19
REMARK    5  A    between atoms: O_19  and  C_20
REMARK    6  A    between atoms: C_20  and  C_21
REMARK                            x       y       z     vdW  Elec       q    Type
REMARK                         _______ _______ _______ _____ _____    ______ ____
ROOT
ATOM      1  C   UNL     1      -1.845  12.065  21.291  0.00  0.00    +0.000 A 
ATOM      2  C   UNL     1      -0.582  11.734  21.838  0.00  0.00    +0.000 A 
ATOM      3  C   UNL     1       0.361  10.995  21.130  0.00  0.00    +0.000 A 
ATOM      4  C   UNL     1       0.057  10.574  19.849  0.00  0.00    +0.000 A 
ATOM      5  C   UNL     1      -1.192  10.893  19.293  0.00  0.00    +0.000 A 
ATOM      6  C   UNL     1      -1.447  10.531  17.897  0.00  0.00    +0.000 A 
ATOM      7  O   UNL     1      -0.667   9.787  17.308  0.00  0.00    +0.000 OA
ATOM      8  N   UNL     1      -2.579  11.078  17.327  0.00  0.00    +0.000 N 
ATOM      9  C   UNL     1      -2.773  10.861  15.903  0.00  0.00    +0.000 C 
ATOM     10  C   UNL     1      -3.562  11.659  18.108  0.00  0.00    +0.000 A 
ATOM     11  N   UNL     1      -3.436  11.907  19.375  0.00  0.00    +0.000 NA
ATOM     12  C   UNL     1      -2.176  11.613  19.985  0.00  0.00    +0.000 A 
ENDROOT
BRANCH   1  20
ATOM     13  C   UNL     1      -6.770  13.077  24.024  0.00  0.00    +0.000 C 
ATOM     14  C   UNL     1      -6.001  14.155  23.296  0.00  0.00    +0.000 C 
ATOM     15  N   UNL     1      -5.600  15.245  24.206  0.00  0.00    +0.000 N 
ATOM     16  C   UNL     1      -4.227  15.441  24.324  0.00  0.00    +0.000 C 
ATOM     17  O   UNL     1      -3.655  16.283  24.994  0.00  0.00    +0.000 OA
ATOM     18  C   UNL     1      -3.647  14.447  23.470  0.00  0.00    +0.000 A 
ATOM     19  C   UNL     1      -2.437  13.946  22.998  0.00  0.00    +0.000 A 
ATOM     20  C   UNL     1      -2.738  12.910  22.105  0.00  0.00    +0.000 A 
ATOM     21  N   UNL     1      -4.128  12.804  22.054  0.00  0.00    +0.000 N 
ATOM     22  C   UNL     1      -4.648  13.729  22.885  0.00  0.00    +0.000 A 
ATOM     23  H   UNL     1      -6.239  15.871  24.671  0.00  0.00    +0.000 HD
ATOM     24  H   UNL     1      -4.612  12.138  21.461  0.00  0.00    +0.000 HD
ENDBRANCH   1  20
BRANCH  10  25
ATOM     25  O   UNL     1      -4.681  11.964  17.387  0.00  0.00    +0.000 OA
BRANCH  25  26
ATOM     26  C   UNL     1      -5.997  12.135  17.948  0.00  0.00    +0.000 C 
ATOM     27  C   UNL     1      -6.681  10.868  18.370  0.00  0.00    +0.000 C 
ATOM     28  C   UNL     1      -6.470  13.461  18.484  0.00  0.00    +0.000 C 
ATOM     29  C   UNL     1      -6.799  13.090  17.074  0.00  0.00    +0.000 C 
ENDBRANCH  25  26
ENDBRANCH  10  25
TORSDOF 3
ENDMDL
MODEL 8
REMARK VINA RESULT:      -6.6      3.353      8.905
REMARK  Name = 
REMARK  6 active torsions:
REMARK  status: ('A' for Active; 'I' for Inactive)
REMARK    1  A    between atoms: C_1  and  C_2
REMARK    2  A    between atoms: C_8  and  C_9
REMARK    3  A    between atoms: N_16  and  C_17
REMARK    4  A    between atoms: C_18  and  O_19
REMARK    5  A    between atoms: O_19  and  C_20
REMARK    6  A    between atoms: C_20  and  C_21
REMARK                            x       y       z     vdW  Elec       q    Type
REMARK                         _______ _______ _______ _____ _____    ______ ____
ROOT
ATOM      1  C   UNL     1       0.727   9.101  21.135  0.00  0.00    +0.000 A 
ATOM      2  C   UNL     1       0.899   8.969  22.533  0.00  0.00    +0.000 A 
ATOM      3  C   UNL     1       0.196   9.755  23.443  0.00  0.00    +0.000 A 
ATOM      4  C   UNL     1      -0.702  10.691  22.965  0.00  0.00    +0.000 A 
ATOM      5  C   UNL     1      -0.882  10.835  21.581  0.00  0.00    +0.000 A 
ATOM      6  C   UNL     1      -1.917  11.755  21.103  0.00  0.00    +0.000 A 
ATOM      7  O   UNL     1      -2.458  12.525  21.893  0.00  0.00    +0.000 OA
ATOM      8  N   UNL     1      -2.223  11.678  19.759  0.00  0.00    +0.000 N 
ATOM      9  C   UNL     1      -3.349  12.467  19.291  0.00  0.00    +0.000 C 
ATOM     10  C   UNL     1      -1.391  11.013  18.875  0.00  0.00    +0.000 A 
ATOM     11  N   UNL     1      -0.391  10.269  19.233  0.00  0.00    +0.000 NA
ATOM     12  C   UNL     1      -0.174  10.080  20.634  0.00  0.00    +0.000 A 
ENDROOT
BRANCH   1  20
ATOM     13  C   UNL     1       1.922   3.863  19.165  0.00  0.00    +0.000 C 
ATOM     14  C   UNL     1       2.977   4.927  19.353  0.00  0.00    +0.000 C 
ATOM     15  N   UNL     1       3.654   5.251  18.082  0.00  0.00    +0.000 N 
ATOM     16  C   UNL     1       3.518   6.571  17.660  0.00  0.00    +0.000 C 
ATOM     17  O   UNL     1       3.995   7.080  16.661  0.00  0.00    +0.000 OA
ATOM     18  C   UNL     1       2.710   7.189  18.669  0.00  0.00    +0.000 A 
ATOM     19  C   UNL     1       2.124   8.394  19.049  0.00  0.00    +0.000 A 
ATOM     20  C   UNL     1       1.472   8.170  20.268  0.00  0.00    +0.000 A 
ATOM     21  N   UNL     1       1.677   6.831  20.602  0.00  0.00    +0.000 N 
ATOM     22  C   UNL     1       2.414   6.264  19.626  0.00  0.00    +0.000 A 
ATOM     23  H   UNL     1       4.241   4.616  17.565  0.00  0.00    +0.000 HD
ATOM     24  H   UNL     1       1.324   6.412  21.457  0.00  0.00    +0.000 HD
ENDBRANCH   1  20
BRANCH  10  25
ATOM     25  O   UNL     1      -1.756  11.212  17.575  0.00  0.00    +0.000 OA
BRANCH  25  26
ATOM     26  C   UNL     1      -2.841  10.533  16.914  0.00  0.00    +0.000 C 
ATOM     27  C   UNL     1      -3.376   9.331  17.635  0.00  0.00    +0.000 C 
ATOM     28  C   UNL     1      -3.668  11.199  15.845  0.00  0.00    +0.000 C 
ATOM     29  C   UNL     1      -2.503  10.355  15.440  0.00  0.00    +0.000 C 
ENDBRANCH  25  26
ENDBRANCH  10  25
TORSDOF 3
ENDMDL
MODEL 9
REMARK VINA RESULT:      -6.6      2.240      6.258
REMARK  Name = 
REMARK  6 active torsions:
REMARK  status: ('A' for Active; 'I' for Inactive)
REMARK    1  A    between atoms: C_1  and  C_2
REMARK    2  A    between atoms: C_8  and  C_9
REMARK    3  A    between atoms: N_16  and  C_17
REMARK    4  A    between atoms: C_18  and  O_19
REMARK    5  A    between atoms: O_19  and  C_20
REMARK    6  A    between atoms: C_20  and  C_21
REMARK                            x       y       z     vdW  Elec       q    Type
REMARK                         _______ _______ _______ _____ _____    ______ ____
ROOT
ATOM      1  C   UNL     1      -3.984  11.781  18.578  0.00  0.00    +0.000 A 
ATOM      2  C   UNL     1      -4.741  11.334  17.469  0.00  0.00    +0.000 A 
ATOM      3  C   UNL     1      -6.110  11.563  17.366  0.00  0.00    +0.000 A 
ATOM      4  C   UNL     1      -6.750  12.256  18.376  0.00  0.00    +0.000 A 
ATOM      5  C   UNL     1      -6.014  12.705  19.484  0.00  0.00    +0.000 A 
ATOM      6  C   UNL     1      -6.693  13.530  20.486  0.00  0.00    +0.000 A 
ATOM      7  O   UNL     1      -7.916  13.641  20.455  0.00  0.00    +0.000 OA
ATOM      8  N   UNL     1      -5.880  14.146  21.415  0.00  0.00    +0.000 N 
ATOM      9  C   UNL     1      -6.510  15.090  22.322  0.00  0.00    +0.000 C 
ATOM     10  C   UNL     1      -4.562  13.758  21.580  0.00  0.00    +0.000 A 
ATOM     11  N   UNL     1      -3.936  12.944  20.786  0.00  0.00    +0.000 NA
ATOM     12  C   UNL     1      -4.640  12.470  19.635  0.00  0.00    +0.000 A 
ENDROOT
BRANCH   1  20
ATOM     13  C   UNL     1       1.394  13.047  20.069  0.00  0.00    +0.000 C 
ATOM     14  C   UNL     1       1.026  12.516  18.703  0.00  0.00    +0.000 C 
ATOM     15  N   UNL     1       1.707  11.238  18.417  0.00  0.00    +0.000 N 
ATOM     16  C   UNL     1       0.861  10.153  18.201  0.00  0.00    +0.000 C 
ATOM     17  O   UNL     1       1.180   9.008  17.932  0.00  0.00    +0.000 OA
ATOM     18  C   UNL     1      -0.458  10.692  18.350  0.00  0.00    +0.000 A 
ATOM     19  C   UNL     1      -1.811  10.365  18.303  0.00  0.00    +0.000 A 
ATOM     20  C   UNL     1      -2.530  11.542  18.550  0.00  0.00    +0.000 A 
ATOM     21  N   UNL     1      -1.595  12.560  18.741  0.00  0.00    +0.000 N 
ATOM     22  C   UNL     1      -0.364  12.024  18.625  0.00  0.00    +0.000 A 
ATOM     23  H   UNL     1       2.702  11.129  18.305  0.00  0.00    +0.000 HD
ATOM     24  H   UNL     1      -1.854  13.526  18.917  0.00  0.00    +0.000 HD
ENDBRANCH   1  20
BRANCH  10  25
ATOM     25  O   UNL     1      -3.984  14.344  22.668  0.00  0.00    +0.000 OA
BRANCH  25  26
ATOM     26  C   UNL     1      -3.207  13.646  23.661  0.00  0.00    +0.000 C 
ATOM     27  C   UNL     1      -3.988  12.734  24.559  0.00  0.00    +0.000 C 
ATOM     28  C   UNL     1      -1.714  13.482  23.536  0.00  0.00    +0.000 C 
ATOM     29  C   UNL     1      -2.254  14.623  24.336  0.00  0.00    +0.000 C 
ENDBRANCH  25  26
ENDBRANCH  10  25
TORSDOF 3
ENDMDL
