MODEL 1
REMARK VINA RESULT:      -8.7      0.000      0.000
REMARK  Name = 
REMARK  10 active torsions:
REMARK  status: ('A' for Active; 'I' for Inactive)
REMARK    1  A    between atoms: C_1  and  C_2
REMARK    2  A    between atoms: C_2  and  C_3
REMARK    3  A    between atoms: C_2  and  C_4
REMARK    4  A    between atoms: C_2  and  C_5
REMARK    5  A    between atoms: C_5  and  C_6
REMARK    6  A    between atoms: N_8  and  C_9
REMARK    7  A    between atoms: C_16  and  C_17
REMARK    8  A    between atoms: N_19  and  C_20
REMARK    9  A    between atoms: N_26  and  C_27
REMARK   10  A    between atoms: C_27  and  C_28
REMARK                            x       y       z     vdW  Elec       q    Type
REMARK                         _______ _______ _______ _____ _____    ______ ____
ROOT
ATOM      1  C   UNL     1       2.287   7.104  19.735  0.00  0.00    +0.000 A 
ATOM      2  C   UNL     1       2.256   7.890  18.589  0.00  0.00    +0.000 A 
ATOM      3  C   UNL     1       1.570   9.111  18.567  0.00  0.00    +0.000 A 
ATOM      4  C   UNL     1       0.969   9.555  19.755  0.00  0.00    +0.000 A 
ATOM      5  C   UNL     1       1.047   8.816  20.935  0.00  0.00    +0.000 A 
ATOM      6  C   UNL     1       1.690   7.561  20.919  0.00  0.00    +0.000 A 
ATOM      7  C   UNL     1       0.427   9.595  21.953  0.00  0.00    +0.000 A 
ATOM      8  C   UNL     1      -0.074  10.765  21.397  0.00  0.00    +0.000 A 
ATOM      9  N   UNL     1       0.215  10.686  20.032  0.00  0.00    +0.000 N 
ENDROOT
BRANCH   1  12
ATOM     10  C   UNL     1       2.309   4.661  19.897  0.00  0.00    +0.000 C 
ATOM     11  O   UNL     1       1.102   4.539  20.092  0.00  0.00    +0.000 OA
ATOM     12  N   UNL     1       2.955   5.864  19.675  0.00  0.00    +0.000 N 
ATOM     13  H   UNL     1       3.796   5.827  19.114  0.00  0.00    +0.000 HD
BRANCH  10  14
ATOM     14  C   UNL     1       3.231   3.452  19.875  0.00  0.00    +0.000 C 
BRANCH  14  16
ATOM     15  C   UNL     1       4.774   3.576  17.853  0.00  0.00    +0.000 C 
ATOM     16  C   UNL     1       3.508   2.931  18.444  0.00  0.00    +0.000 C 
ATOM     17  C   UNL     1       2.310   3.217  17.524  0.00  0.00    +0.000 C 
ATOM     18  C   UNL     1       3.731   1.409  18.502  0.00  0.00    +0.000 C 
ENDBRANCH  14  16
ENDBRANCH  10  14
ENDBRANCH   1  12
BRANCH   8  19
ATOM     19  C   UNL     1      -0.745  11.899  22.028  0.00  0.00    +0.000 C 
ATOM     20  O   UNL     1      -0.118  12.884  22.405  0.00  0.00    +0.000 OA
ATOM     21  N   UNL     1      -2.114  11.761  22.192  0.00  0.00    +0.000 N 
ATOM     22  H   UNL     1      -2.529  10.902  21.863  0.00  0.00    +0.000 HD
BRANCH  21  23
ATOM     23  C   UNL     1      -2.977  12.673  22.843  0.00  0.00    +0.000 A 
ATOM     24  C   UNL     1      -3.654  12.406  24.033  0.00  0.00    +0.000 A 
ATOM     25  C   UNL     1      -4.539  13.342  24.560  0.00  0.00    +0.000 A 
ATOM     26  C   UNL     1      -4.715  14.537  23.886  0.00  0.00    +0.000 A 
ATOM     27  N   UNL     1      -4.052  14.857  22.754  0.00  0.00    +0.000 NA
ATOM     28  C   UNL     1      -3.200  13.922  22.266  0.00  0.00    +0.000 A 
ENDBRANCH  21  23
ENDBRANCH   8  19
BRANCH   9  29
ATOM     29  C   UNL     1      -0.297  11.596  18.997  0.00  0.00    +0.000 C 
BRANCH  29  30
ATOM     30  C   UNL     1      -1.526  11.124  18.259  0.00  0.00    +0.000 A 
ATOM     31  C   UNL     1      -1.537  10.089  17.314  0.00  0.00    +0.000 A 
ATOM     32  C   UNL     1      -2.694   9.809  16.580  0.00  0.00    +0.000 A 
ATOM     33  C   UNL     1      -3.863  10.540  16.799  0.00  0.00    +0.000 A 
ATOM     34  C   UNL     1      -3.885  11.529  17.777  0.00  0.00    +0.000 A 
ATOM     35  C   UNL     1      -2.725  11.808  18.496  0.00  0.00    +0.000 A 
ATOM     36  F   UNL     1      -2.765  12.773  19.427  0.00  0.00    +0.000 F 
ENDBRANCH  29  30
ENDBRANCH   9  29
TORSDOF 7
ENDMDL
MODEL 2
REMARK VINA RESULT:      -8.7      0.535      1.132
REMARK  Name = 
REMARK  10 active torsions:
REMARK  status: ('A' for Active; 'I' for Inactive)
REMARK    1  A    between atoms: C_1  and  C_2
REMARK    2  A    between atoms: C_2  and  C_3
REMARK    3  A    between atoms: C_2  and  C_4
REMARK    4  A    between atoms: C_2  and  C_5
REMARK    5  A    between atoms: C_5  and  C_6
REMARK    6  A    between atoms: N_8  and  C_9
REMARK    7  A    between atoms: C_16  and  C_17
REMARK    8  A    between atoms: N_19  and  C_20
REMARK    9  A    between atoms: N_26  and  C_27
REMARK   10  A    between atoms: C_27  and  C_28
REMARK                            x       y       z     vdW  Elec       q    Type
REMARK                         _______ _______ _______ _____ _____    ______ ____
ROOT
ATOM      1  C   UNL     1       2.347   7.050  19.544  0.00  0.00    +0.000 A 
ATOM      2  C   UNL     1       2.276   7.806  18.379  0.00  0.00    +0.000 A 
ATOM      3  C   UNL     1       1.597   9.030  18.350  0.00  0.00    +0.000 A 
ATOM      4  C   UNL     1       1.047   9.511  19.549  0.00  0.00    +0.000 A 
ATOM      5  C   UNL     1       1.166   8.804  20.744  0.00  0.00    +0.000 A 
ATOM      6  C   UNL     1       1.800   7.544  20.738  0.00  0.00    +0.000 A 
ATOM      7  C   UNL     1       0.592   9.615  21.764  0.00  0.00    +0.000 A 
ATOM      8  C   UNL     1       0.077  10.774  21.196  0.00  0.00    +0.000 A 
ATOM      9  N   UNL     1       0.311  10.655  19.824  0.00  0.00    +0.000 N 
ENDROOT
BRANCH   1  12
ATOM     10  C   UNL     1       2.369   4.617  19.809  0.00  0.00    +0.000 C 
ATOM     11  O   UNL     1       1.178   4.511  20.091  0.00  0.00    +0.000 OA
ATOM     12  N   UNL     1       3.004   5.805  19.492  0.00  0.00    +0.000 N 
ATOM     13  H   UNL     1       3.804   5.737  18.877  0.00  0.00    +0.000 HD
BRANCH  10  14
ATOM     14  C   UNL     1       3.283   3.401  19.776  0.00  0.00    +0.000 C 
BRANCH  14  16
ATOM     15  C   UNL     1       2.272   3.134  17.454  0.00  0.00    +0.000 C 
ATOM     16  C   UNL     1       3.491   2.842  18.348  0.00  0.00    +0.000 C 
ATOM     17  C   UNL     1       3.743   1.327  18.392  0.00  0.00    +0.000 C 
ATOM     18  C   UNL     1       4.718   3.527  17.718  0.00  0.00    +0.000 C 
ENDBRANCH  14  16
ENDBRANCH  10  14
ENDBRANCH   1  12
BRANCH   8  19
ATOM     19  C   UNL     1      -0.561  11.929  21.821  0.00  0.00    +0.000 C 
ATOM     20  O   UNL     1       0.088  12.917  22.152  0.00  0.00    +0.000 OA
ATOM     21  N   UNL     1      -1.924  11.809  22.037  0.00  0.00    +0.000 N 
ATOM     22  H   UNL     1      -2.358  10.945  21.745  0.00  0.00    +0.000 HD
BRANCH  21  23
ATOM     23  C   UNL     1      -2.755  12.744  22.696  0.00  0.00    +0.000 A 
ATOM     24  C   UNL     1      -2.958  14.057  22.271  0.00  0.00    +0.000 A 
ATOM     25  C   UNL     1      -3.739  14.926  23.028  0.00  0.00    +0.000 A 
ATOM     26  C   UNL     1      -4.314  14.452  24.193  0.00  0.00    +0.000 A 
ATOM     27  N   UNL     1      -4.180  13.179  24.624  0.00  0.00    +0.000 NA
ATOM     28  C   UNL     1      -3.411  12.360  23.865  0.00  0.00    +0.000 A 
ENDBRANCH  21  23
ENDBRANCH   8  19
BRANCH   9  29
ATOM     29  C   UNL     1      -0.235  11.540  18.785  0.00  0.00    +0.000 C 
BRANCH  29  30
ATOM     30  C   UNL     1      -1.529  11.089  18.153  0.00  0.00    +0.000 A 
ATOM     31  C   UNL     1      -1.643  10.021  17.253  0.00  0.00    +0.000 A 
ATOM     32  C   UNL     1      -2.859   9.758  16.613  0.00  0.00    +0.000 A 
ATOM     33  C   UNL     1      -3.983  10.539  16.883  0.00  0.00    +0.000 A 
ATOM     34  C   UNL     1      -3.901  11.564  17.820  0.00  0.00    +0.000 A 
ATOM     35  C   UNL     1      -2.684  11.826  18.445  0.00  0.00    +0.000 A 
ATOM     36  F   UNL     1      -2.624  12.825  19.338  0.00  0.00    +0.000 F 
ENDBRANCH  29  30
ENDBRANCH   9  29
TORSDOF 7
ENDMDL
MODEL 3
REMARK VINA RESULT:      -8.6      0.959      1.429
REMARK  Name = 
REMARK  10 active torsions:
REMARK  status: ('A' for Active; 'I' for Inactive)
REMARK    1  A    between atoms: C_1  and  C_2
REMARK    2  A    between atoms: C_2  and  C_3
REMARK    3  A    between atoms: C_2  and  C_4
REMARK    4  A    between atoms: C_2  and  C_5
REMARK    5  A    between atoms: C_5  and  C_6
REMARK    6  A    between atoms: N_8  and  C_9
REMARK    7  A    between atoms: C_16  and  C_17
REMARK    8  A    between atoms: N_19  and  C_20
REMARK    9  A    between atoms: N_26  and  C_27
REMARK   10  A    between atoms: C_27  and  C_28
REMARK                            x       y       z     vdW  Elec       q    Type
REMARK                         _______ _______ _______ _____ _____    ______ ____
ROOT
ATOM      1  C   UNL     1       2.314   7.035  19.582  0.00  0.00    +0.000 A 
ATOM      2  C   UNL     1       2.270   7.791  18.415  0.00  0.00    +0.000 A 
ATOM      3  C   UNL     1       1.597   9.018  18.373  0.00  0.00    +0.000 A 
ATOM      4  C   UNL     1       1.025   9.501  19.560  0.00  0.00    +0.000 A 
ATOM      5  C   UNL     1       1.117   8.794  20.757  0.00  0.00    +0.000 A 
ATOM      6  C   UNL     1       1.746   7.532  20.764  0.00  0.00    +0.000 A 
ATOM      7  C   UNL     1       0.525   9.607  21.766  0.00  0.00    +0.000 A 
ATOM      8  C   UNL     1       0.027  10.769  21.187  0.00  0.00    +0.000 A 
ATOM      9  N   UNL     1       0.289  10.648  19.820  0.00  0.00    +0.000 N 
ENDROOT
BRANCH   1  12
ATOM     10  C   UNL     1       2.320   4.601  19.844  0.00  0.00    +0.000 C 
ATOM     11  O   UNL     1       1.122   4.501  20.099  0.00  0.00    +0.000 OA
ATOM     12  N   UNL     1       2.967   5.787  19.543  0.00  0.00    +0.000 N 
ATOM     13  H   UNL     1       3.781   5.717  18.947  0.00  0.00    +0.000 HD
BRANCH  10  14
ATOM     14  C   UNL     1       3.228   3.382  19.831  0.00  0.00    +0.000 C 
BRANCH  14  16
ATOM     15  C   UNL     1       4.768   3.526  17.807  0.00  0.00    +0.000 C 
ATOM     16  C   UNL     1       3.514   2.859  18.402  0.00  0.00    +0.000 C 
ATOM     17  C   UNL     1       2.311   3.116  17.481  0.00  0.00    +0.000 C 
ATOM     18  C   UNL     1       3.768   1.342  18.468  0.00  0.00    +0.000 C 
ENDBRANCH  14  16
ENDBRANCH  10  14
ENDBRANCH   1  12
BRANCH   8  19
ATOM     19  C   UNL     1      -0.619  11.927  21.799  0.00  0.00    +0.000 C 
ATOM     20  O   UNL     1       0.032  12.895  22.181  0.00  0.00    +0.000 OA
ATOM     21  N   UNL     1      -1.993  11.832  21.942  0.00  0.00    +0.000 N 
ATOM     22  H   UNL     1      -2.429  10.983  21.612  0.00  0.00    +0.000 HD
BRANCH  21  23
ATOM     23  C   UNL     1      -2.838  12.774  22.573  0.00  0.00    +0.000 A 
ATOM     24  C   UNL     1      -3.223  13.991  22.011  0.00  0.00    +0.000 A 
ATOM     25  C   UNL     1      -4.001  14.885  22.742  0.00  0.00    +0.000 A 
ATOM     26  C   UNL     1      -4.388  14.531  24.022  0.00  0.00    +0.000 A 
ATOM     27  N   UNL     1      -4.073  13.349  24.593  0.00  0.00    +0.000 NA
ATOM     28  C   UNL     1      -3.313  12.503  23.856  0.00  0.00    +0.000 A 
ENDBRANCH  21  23
ENDBRANCH   8  19
BRANCH   9  29
ATOM     29  C   UNL     1      -0.232  11.536  18.770  0.00  0.00    +0.000 C 
BRANCH  29  30
ATOM     30  C   UNL     1      -1.670  11.308  18.373  0.00  0.00    +0.000 A 
ATOM     31  C   UNL     1      -2.752  12.067  18.840  0.00  0.00    +0.000 A 
ATOM     32  C   UNL     1      -4.065  11.700  18.525  0.00  0.00    +0.000 A 
ATOM     33  C   UNL     1      -4.314  10.589  17.719  0.00  0.00    +0.000 A 
ATOM     34  C   UNL     1      -3.248   9.863  17.197  0.00  0.00    +0.000 A 
ATOM     35  C   UNL     1      -1.945  10.228  17.524  0.00  0.00    +0.000 A 
ATOM     36  F   UNL     1      -0.932   9.509  17.019  0.00  0.00    +0.000 F 
ENDBRANCH  29  30
ENDBRANCH   9  29
TORSDOF 7
ENDMDL
MODEL 4
REMARK VINA RESULT:      -8.6      1.697      2.124
REMARK  Name = 
REMARK  10 active torsions:
REMARK  status: ('A' for Active; 'I' for Inactive)
REMARK    1  A    between atoms: C_1  and  C_2
REMARK    2  A    between atoms: C_2  and  C_3
REMARK    3  A    between atoms: C_2  and  C_4
REMARK    4  A    between atoms: C_2  and  C_5
REMARK    5  A    between atoms: C_5  and  C_6
REMARK    6  A    between atoms: N_8  and  C_9
REMARK    7  A    between atoms: C_16  and  C_17
REMARK    8  A    between atoms: N_19  and  C_20
REMARK    9  A    between atoms: N_26  and  C_27
REMARK   10  A    between atoms: C_27  and  C_28
REMARK                            x       y       z     vdW  Elec       q    Type
REMARK                         _______ _______ _______ _____ _____    ______ ____
ROOT
ATOM      1  C   UNL     1       2.585   6.971  18.442  0.00  0.00    +0.000 A 
ATOM      2  C   UNL     1       2.394   8.109  17.665  0.00  0.00    +0.000 A 
ATOM      3  C   UNL     1       1.680   9.209  18.156  0.00  0.00    +0.000 A 
ATOM      4  C   UNL     1       1.219   9.162  19.481  0.00  0.00    +0.000 A 
ATOM      5  C   UNL     1       1.458   8.061  20.300  0.00  0.00    +0.000 A 
ATOM      6  C   UNL     1       2.126   6.939  19.767  0.00  0.00    +0.000 A 
ATOM      7  C   UNL     1       0.948   8.385  21.590  0.00  0.00    +0.000 A 
ATOM      8  C   UNL     1       0.353   9.640  21.548  0.00  0.00    +0.000 A 
ATOM      9  N   UNL     1       0.475  10.068  20.223  0.00  0.00    +0.000 N 
ENDROOT
BRANCH   1  12
ATOM     10  C   UNL     1       4.441   5.376  18.410  0.00  0.00    +0.000 C 
ATOM     11  O   UNL     1       4.954   5.761  19.458  0.00  0.00    +0.000 OA
ATOM     12  N   UNL     1       3.272   5.881  17.870  0.00  0.00    +0.000 N 
ATOM     13  H   UNL     1       2.726   5.247  17.302  0.00  0.00    +0.000 HD
BRANCH  10  14
ATOM     14  C   UNL     1       5.068   4.261  17.588  0.00  0.00    +0.000 C 
BRANCH  14  16
ATOM     15  C   UNL     1       7.511   4.599  16.952  0.00  0.00    +0.000 C 
ATOM     16  C   UNL     1       6.048   4.785  16.510  0.00  0.00    +0.000 C 
ATOM     17  C   UNL     1       5.786   6.271  16.218  0.00  0.00    +0.000 C 
ATOM     18  C   UNL     1       5.837   3.984  15.212  0.00  0.00    +0.000 C 
ENDBRANCH  14  16
ENDBRANCH  10  14
ENDBRANCH   1  12
BRANCH   8  19
ATOM     19  C   UNL     1      -0.264  10.430  22.611  0.00  0.00    +0.000 C 
ATOM     20  O   UNL     1      -0.175  10.096  23.789  0.00  0.00    +0.000 OA
ATOM     21  N   UNL     1      -0.970  11.543  22.187  0.00  0.00    +0.000 N 
ATOM     22  H   UNL     1      -0.997  11.716  21.193  0.00  0.00    +0.000 HD
BRANCH  21  23
ATOM     23  C   UNL     1      -1.723  12.419  23.003  0.00  0.00    +0.000 A 
ATOM     24  C   UNL     1      -3.036  12.187  23.410  0.00  0.00    +0.000 A 
ATOM     25  C   UNL     1      -3.719  13.144  24.155  0.00  0.00    +0.000 A 
ATOM     26  C   UNL     1      -3.061  14.314  24.489  0.00  0.00    +0.000 A 
ATOM     27  N   UNL     1      -1.778  14.567  24.152  0.00  0.00    +0.000 NA
ATOM     28  C   UNL     1      -1.143  13.615  23.425  0.00  0.00    +0.000 A 
ENDBRANCH  21  23
ENDBRANCH   8  19
BRANCH   9  29
ATOM     29  C   UNL     1      -0.181  11.249  19.644  0.00  0.00    +0.000 C 
BRANCH  29  30
ATOM     30  C   UNL     1      -1.519  11.002  18.992  0.00  0.00    +0.000 A 
ATOM     31  C   UNL     1      -1.822   9.886  18.199  0.00  0.00    +0.000 A 
ATOM     32  C   UNL     1      -3.044   9.805  17.524  0.00  0.00    +0.000 A 
ATOM     33  C   UNL     1      -3.991  10.822  17.653  0.00  0.00    +0.000 A 
ATOM     34  C   UNL     1      -3.730  11.906  18.485  0.00  0.00    +0.000 A 
ATOM     35  C   UNL     1      -2.506  11.984  19.146  0.00  0.00    +0.000 A 
ATOM     36  F   UNL     1      -2.271  13.042  19.935  0.00  0.00    +0.000 F 
ENDBRANCH  29  30
ENDBRANCH   9  29
TORSDOF 7
ENDMDL
MODEL 5
REMARK VINA RESULT:      -8.6      0.867      1.375
REMARK  Name = 
REMARK  10 active torsions:
REMARK  status: ('A' for Active; 'I' for Inactive)
REMARK    1  A    between atoms: C_1  and  C_2
REMARK    2  A    between atoms: C_2  and  C_3
REMARK    3  A    between atoms: C_2  and  C_4
REMARK    4  A    between atoms: C_2  and  C_5
REMARK    5  A    between atoms: C_5  and  C_6
REMARK    6  A    between atoms: N_8  and  C_9
REMARK    7  A    between atoms: C_16  and  C_17
REMARK    8  A    between atoms: N_19  and  C_20
REMARK    9  A    between atoms: N_26  and  C_27
REMARK   10  A    between atoms: C_27  and  C_28
REMARK                            x       y       z     vdW  Elec       q    Type
REMARK                         _______ _______ _______ _____ _____    ______ ____
ROOT
ATOM      1  C   UNL     1       2.391   7.022  19.451  0.00  0.00    +0.000 A 
ATOM      2  C   UNL     1       2.333   7.805  18.303  0.00  0.00    +0.000 A 
ATOM      3  C   UNL     1       1.648   9.026  18.293  0.00  0.00    +0.000 A 
ATOM      4  C   UNL     1       1.076   9.475  19.494  0.00  0.00    +0.000 A 
ATOM      5  C   UNL     1       1.181   8.741  20.673  0.00  0.00    +0.000 A 
ATOM      6  C   UNL     1       1.823   7.485  20.647  0.00  0.00    +0.000 A 
ATOM      7  C   UNL     1       0.585   9.523  21.703  0.00  0.00    +0.000 A 
ATOM      8  C   UNL     1       0.072  10.692  21.155  0.00  0.00    +0.000 A 
ATOM      9  N   UNL     1       0.329  10.607  19.784  0.00  0.00    +0.000 N 
ENDROOT
BRANCH   1  12
ATOM     10  C   UNL     1       2.490   4.608  19.844  0.00  0.00    +0.000 C 
ATOM     11  O   UNL     1       1.349   4.508  20.288  0.00  0.00    +0.000 OA
ATOM     12  N   UNL     1       3.057   5.782  19.380  0.00  0.00    +0.000 N 
ATOM     13  H   UNL     1       3.769   5.688  18.668  0.00  0.00    +0.000 HD
BRANCH  10  14
ATOM     14  C   UNL     1       3.412   3.402  19.756  0.00  0.00    +0.000 C 
BRANCH  14  16
ATOM     15  C   UNL     1       3.774   1.243  18.455  0.00  0.00    +0.000 C 
ATOM     16  C   UNL     1       3.396   2.732  18.360  0.00  0.00    +0.000 C 
ATOM     17  C   UNL     1       4.365   3.447  17.406  0.00  0.00    +0.000 C 
ATOM     18  C   UNL     1       1.973   2.826  17.778  0.00  0.00    +0.000 C 
ENDBRANCH  14  16
ENDBRANCH  10  14
ENDBRANCH   1  12
BRANCH   8  19
ATOM     19  C   UNL     1      -0.583  11.829  21.797  0.00  0.00    +0.000 C 
ATOM     20  O   UNL     1       0.053  12.818  22.150  0.00  0.00    +0.000 OA
ATOM     21  N   UNL     1      -1.946  11.689  22.002  0.00  0.00    +0.000 N 
ATOM     22  H   UNL     1      -2.368  10.826  21.691  0.00  0.00    +0.000 HD
BRANCH  21  23
ATOM     23  C   UNL     1      -2.792  12.603  22.672  0.00  0.00    +0.000 A 
ATOM     24  C   UNL     1      -3.375  12.372  23.917  0.00  0.00    +0.000 A 
ATOM     25  C   UNL     1      -4.252  13.304  24.464  0.00  0.00    +0.000 A 
ATOM     26  C   UNL     1      -4.515  14.460  23.752  0.00  0.00    +0.000 A 
ATOM     27  N   UNL     1      -3.944  14.747  22.562  0.00  0.00    +0.000 NA
ATOM     28  C   UNL     1      -3.097  13.817  22.057  0.00  0.00    +0.000 A 
ENDBRANCH  21  23
ENDBRANCH   8  19
BRANCH   9  29
ATOM     29  C   UNL     1      -0.206  11.514  18.758  0.00  0.00    +0.000 C 
BRANCH  29  30
ATOM     30  C   UNL     1      -1.649  11.292  18.375  0.00  0.00    +0.000 A 
ATOM     31  C   UNL     1      -2.723  12.058  18.848  0.00  0.00    +0.000 A 
ATOM     32  C   UNL     1      -4.041  11.697  18.547  0.00  0.00    +0.000 A 
ATOM     33  C   UNL     1      -4.302  10.584  17.747  0.00  0.00    +0.000 A 
ATOM     34  C   UNL     1      -3.245   9.850  17.219  0.00  0.00    +0.000 A 
ATOM     35  C   UNL     1      -1.937  10.210  17.533  0.00  0.00    +0.000 A 
ATOM     36  F   UNL     1      -0.932   9.483  17.022  0.00  0.00    +0.000 F 
ENDBRANCH  29  30
ENDBRANCH   9  29
TORSDOF 7
ENDMDL
MODEL 6
REMARK VINA RESULT:      -8.6      1.234      1.789
REMARK  Name = 
REMARK  10 active torsions:
REMARK  status: ('A' for Active; 'I' for Inactive)
REMARK    1  A    between atoms: C_1  and  C_2
REMARK    2  A    between atoms: C_2  and  C_3
REMARK    3  A    between atoms: C_2  and  C_4
REMARK    4  A    between atoms: C_2  and  C_5
REMARK    5  A    between atoms: C_5  and  C_6
REMARK    6  A    between atoms: N_8  and  C_9
REMARK    7  A    between atoms: C_16  and  C_17
REMARK    8  A    between atoms: N_19  and  C_20
REMARK    9  A    between atoms: N_26  and  C_27
REMARK   10  A    between atoms: C_27  and  C_28
REMARK                            x       y       z     vdW  Elec       q    Type
REMARK                         _______ _______ _______ _____ _____    ______ ____
ROOT
ATOM      1  C   UNL     1       2.473   7.305  19.106  0.00  0.00    +0.000 A 
ATOM      2  C   UNL     1       2.338   8.117  17.985  0.00  0.00    +0.000 A 
ATOM      3  C   UNL     1       1.591   9.301  18.036  0.00  0.00    +0.000 A 
ATOM      4  C   UNL     1       1.038   9.684  19.267  0.00  0.00    +0.000 A 
ATOM      5  C   UNL     1       1.219   8.921  20.419  0.00  0.00    +0.000 A 
ATOM      6  C   UNL     1       1.922   7.702  20.333  0.00  0.00    +0.000 A 
ATOM      7  C   UNL     1       0.620   9.641  21.492  0.00  0.00    +0.000 A 
ATOM      8  C   UNL     1       0.030  10.798  20.997  0.00  0.00    +0.000 A 
ATOM      9  N   UNL     1       0.245  10.767  19.617  0.00  0.00    +0.000 N 
ENDROOT
BRANCH   1  12
ATOM     10  C   UNL     1       2.673   4.986  18.349  0.00  0.00    +0.000 C 
ATOM     11  O   UNL     1       1.580   4.943  17.790  0.00  0.00    +0.000 OA
ATOM     12  N   UNL     1       3.197   6.103  18.974  0.00  0.00    +0.000 N 
ATOM     13  H   UNL     1       4.206   6.174  18.998  0.00  0.00    +0.000 HD
BRANCH  10  14
ATOM     14  C   UNL     1       3.584   3.769  18.396  0.00  0.00    +0.000 C 
BRANCH  14  16
ATOM     15  C   UNL     1       2.156   1.723  18.910  0.00  0.00    +0.000 C 
ATOM     16  C   UNL     1       3.162   2.742  19.475  0.00  0.00    +0.000 C 
ATOM     17  C   UNL     1       2.543   3.456  20.687  0.00  0.00    +0.000 C 
ATOM     18  C   UNL     1       4.409   1.971  19.943  0.00  0.00    +0.000 C 
ENDBRANCH  14  16
ENDBRANCH  10  14
ENDBRANCH   1  12
BRANCH   8  19
ATOM     19  C   UNL     1      -0.659  11.880  21.695  0.00  0.00    +0.000 C 
ATOM     20  O   UNL     1      -0.043  12.829  22.171  0.00  0.00    +0.000 OA
ATOM     21  N   UNL     1      -2.033  11.735  21.804  0.00  0.00    +0.000 N 
ATOM     22  H   UNL     1      -2.438  10.906  21.394  0.00  0.00    +0.000 HD
BRANCH  21  23
ATOM     23  C   UNL     1      -2.915  12.594  22.499  0.00  0.00    +0.000 A 
ATOM     24  C   UNL     1      -3.457  13.765  21.970  0.00  0.00    +0.000 A 
ATOM     25  C   UNL     1      -4.261  14.583  22.758  0.00  0.00    +0.000 A 
ATOM     26  C   UNL     1      -4.515  14.200  24.063  0.00  0.00    +0.000 A 
ATOM     27  N   UNL     1      -4.045  13.057  24.607  0.00  0.00    +0.000 NA
ATOM     28  C   UNL     1      -3.264  12.284  23.812  0.00  0.00    +0.000 A 
ENDBRANCH  21  23
ENDBRANCH   8  19
BRANCH   9  29
ATOM     29  C   UNL     1      -0.369  11.676  18.637  0.00  0.00    +0.000 C 
BRANCH  29  30
ATOM     30  C   UNL     1      -1.814  11.398  18.302  0.00  0.00    +0.000 A 
ATOM     31  C   UNL     1      -2.900  12.137  18.791  0.00  0.00    +0.000 A 
ATOM     32  C   UNL     1      -4.212  11.726  18.535  0.00  0.00    +0.000 A 
ATOM     33  C   UNL     1      -4.459  10.588  17.766  0.00  0.00    +0.000 A 
ATOM     34  C   UNL     1      -3.392   9.879  17.223  0.00  0.00    +0.000 A 
ATOM     35  C   UNL     1      -2.088  10.289  17.490  0.00  0.00    +0.000 A 
ATOM     36  F   UNL     1      -1.075   9.585  16.965  0.00  0.00    +0.000 F 
ENDBRANCH  29  30
ENDBRANCH   9  29
TORSDOF 7
ENDMDL
MODEL 7
REMARK VINA RESULT:      -8.5      0.826      1.104
REMARK  Name = 
REMARK  10 active torsions:
REMARK  status: ('A' for Active; 'I' for Inactive)
REMARK    1  A    between atoms: C_1  and  C_2
REMARK    2  A    between atoms: C_2  and  C_3
REMARK    3  A    between atoms: C_2  and  C_4
REMARK    4  A    between atoms: C_2  and  C_5
REMARK    5  A    between atoms: C_5  and  C_6
REMARK    6  A    between atoms: N_8  and  C_9
REMARK    7  A    between atoms: C_16  and  C_17
REMARK    8  A    between atoms: N_19  and  C_20
REMARK    9  A    between atoms: N_26  and  C_27
REMARK   10  A    between atoms: C_27  and  C_28
REMARK                            x       y       z     vdW  Elec       q    Type
REMARK                         _______ _______ _______ _____ _____    ______ ____
ROOT
ATOM      1  C   UNL     1       2.502   7.258  18.818  0.00  0.00    +0.000 A 
ATOM      2  C   UNL     1       2.310   8.121  17.744  0.00  0.00    +0.000 A 
ATOM      3  C   UNL     1       1.555   9.292  17.884  0.00  0.00    +0.000 A 
ATOM      4  C   UNL     1       1.053   9.609  19.155  0.00  0.00    +0.000 A 
ATOM      5  C   UNL     1       1.292   8.795  20.261  0.00  0.00    +0.000 A 
ATOM      6  C   UNL     1       2.003   7.589  20.086  0.00  0.00    +0.000 A 
ATOM      7  C   UNL     1       0.734   9.456  21.392  0.00  0.00    +0.000 A 
ATOM      8  C   UNL     1       0.111  10.628  20.979  0.00  0.00    +0.000 A 
ATOM      9  N   UNL     1       0.265  10.665  19.591  0.00  0.00    +0.000 N 
ENDROOT
BRANCH   1  12
ATOM     10  C   UNL     1       2.674   4.959  17.993  0.00  0.00    +0.000 C 
ATOM     11  O   UNL     1       1.537   4.908  17.529  0.00  0.00    +0.000 OA
ATOM     12  N   UNL     1       3.232   6.072  18.597  0.00  0.00    +0.000 N 
ATOM     13  H   UNL     1       4.238   6.161  18.537  0.00  0.00    +0.000 HD
BRANCH  10  14
ATOM     14  C   UNL     1       3.605   3.758  17.935  0.00  0.00    +0.000 C 
BRANCH  14  16
ATOM     15  C   UNL     1       3.408   1.288  18.522  0.00  0.00    +0.000 C 
ATOM     16  C   UNL     1       3.332   2.728  19.058  0.00  0.00    +0.000 C 
ATOM     17  C   UNL     1       1.950   2.969  19.687  0.00  0.00    +0.000 C 
ATOM     18  C   UNL     1       4.404   2.887  20.151  0.00  0.00    +0.000 C 
ENDBRANCH  14  16
ENDBRANCH  10  14
ENDBRANCH   1  12
BRANCH   8  19
ATOM     19  C   UNL     1      -0.557  11.667  21.758  0.00  0.00    +0.000 C 
ATOM     20  O   UNL     1       0.077  12.566  22.303  0.00  0.00    +0.000 OA
ATOM     21  N   UNL     1      -1.933  11.541  21.856  0.00  0.00    +0.000 N 
ATOM     22  H   UNL     1      -2.354  10.753  21.385  0.00  0.00    +0.000 HD
BRANCH  21  23
ATOM     23  C   UNL     1      -2.799  12.362  22.615  0.00  0.00    +0.000 A 
ATOM     24  C   UNL     1      -3.281  12.041  23.883  0.00  0.00    +0.000 A 
ATOM     25  C   UNL     1      -4.187  12.883  24.522  0.00  0.00    +0.000 A 
ATOM     26  C   UNL     1      -4.582  14.041  23.876  0.00  0.00    +0.000 A 
ATOM     27  N   UNL     1      -4.113  14.413  22.666  0.00  0.00    +0.000 NA
ATOM     28  C   UNL     1      -3.233  13.570  22.071  0.00  0.00    +0.000 A 
ENDBRANCH  21  23
ENDBRANCH   8  19
BRANCH   9  29
ATOM     29  C   UNL     1      -0.400  11.612  18.683  0.00  0.00    +0.000 C 
BRANCH  29  30
ATOM     30  C   UNL     1      -1.678  11.122  18.048  0.00  0.00    +0.000 A 
ATOM     31  C   UNL     1      -1.755  10.066  17.129  0.00  0.00    +0.000 A 
ATOM     32  C   UNL     1      -2.962   9.768  16.488  0.00  0.00    +0.000 A 
ATOM     33  C   UNL     1      -4.114  10.500  16.777  0.00  0.00    +0.000 A 
ATOM     34  C   UNL     1      -4.068  11.510  17.732  0.00  0.00    +0.000 A 
ATOM     35  C   UNL     1      -2.860  11.808  18.358  0.00  0.00    +0.000 A 
ATOM     36  F   UNL     1      -2.835  12.792  19.269  0.00  0.00    +0.000 F 
ENDBRANCH  29  30
ENDBRANCH   9  29
TORSDOF 7
ENDMDL
MODEL 8
REMARK VINA RESULT:      -8.5      1.130      1.483
REMARK  Name = 
REMARK  10 active torsions:
REMARK  status: ('A' for Active; 'I' for Inactive)
REMARK    1  A    between atoms: C_1  and  C_2
REMARK    2  A    between atoms: C_2  and  C_3
REMARK    3  A    between atoms: C_2  and  C_4
REMARK    4  A    between atoms: C_2  and  C_5
REMARK    5  A    between atoms: C_5  and  C_6
REMARK    6  A    between atoms: N_8  and  C_9
REMARK    7  A    between atoms: C_16  and  C_17
REMARK    8  A    between atoms: N_19  and  C_20
REMARK    9  A    between atoms: N_26  and  C_27
REMARK   10  A    between atoms: C_27  and  C_28
REMARK                            x       y       z     vdW  Elec       q    Type
REMARK                         _______ _______ _______ _____ _____    ______ ____
ROOT
ATOM      1  C   UNL     1       2.441   7.191  18.925  0.00  0.00    +0.000 A 
ATOM      2  C   UNL     1       2.208   7.980  17.804  0.00  0.00    +0.000 A 
ATOM      3  C   UNL     1       1.518   9.195  17.905  0.00  0.00    +0.000 A 
ATOM      4  C   UNL     1       1.126   9.630  19.181  0.00  0.00    +0.000 A 
ATOM      5  C   UNL     1       1.411   8.889  20.326  0.00  0.00    +0.000 A 
ATOM      6  C   UNL     1       2.052   7.640  20.195  0.00  0.00    +0.000 A 
ATOM      7  C   UNL     1       0.968   9.659  21.439  0.00  0.00    +0.000 A 
ATOM      8  C   UNL     1       0.369  10.827  20.982  0.00  0.00    +0.000 A 
ATOM      9  N   UNL     1       0.421  10.754  19.587  0.00  0.00    +0.000 N 
ENDROOT
BRANCH   1  12
ATOM     10  C   UNL     1       2.471   4.854  18.196  0.00  0.00    +0.000 C 
ATOM     11  O   UNL     1       1.326   4.849  17.748  0.00  0.00    +0.000 OA
ATOM     12  N   UNL     1       3.099   5.957  18.745  0.00  0.00    +0.000 N 
ATOM     13  H   UNL     1       4.108   5.986  18.669  0.00  0.00    +0.000 HD
BRANCH  10  14
ATOM     14  C   UNL     1       3.331   3.600  18.177  0.00  0.00    +0.000 C 
BRANCH  14  16
ATOM     15  C   UNL     1       2.588   3.468  20.610  0.00  0.00    +0.000 C 
ATOM     16  C   UNL     1       3.064   2.668  19.384  0.00  0.00    +0.000 C 
ATOM     17  C   UNL     1       4.331   1.878  19.747  0.00  0.00    +0.000 C 
ATOM     18  C   UNL     1       1.954   1.669  19.007  0.00  0.00    +0.000 C 
ENDBRANCH  14  16
ENDBRANCH  10  14
ENDBRANCH   1  12
BRANCH   8  19
ATOM     19  C   UNL     1      -0.193  11.953  21.723  0.00  0.00    +0.000 C 
ATOM     20  O   UNL     1       0.405  13.021  21.815  0.00  0.00    +0.000 OA
ATOM     21  N   UNL     1      -1.416  11.712  22.328  0.00  0.00    +0.000 N 
ATOM     22  H   UNL     1      -1.812  10.792  22.206  0.00  0.00    +0.000 HD
BRANCH  21  23
ATOM     23  C   UNL     1      -2.127  12.603  23.165  0.00  0.00    +0.000 A 
ATOM     24  C   UNL     1      -1.652  13.847  23.579  0.00  0.00    +0.000 A 
ATOM     25  C   UNL     1      -2.397  14.623  24.463  0.00  0.00    +0.000 A 
ATOM     26  C   UNL     1      -3.614  14.137  24.904  0.00  0.00    +0.000 A 
ATOM     27  N   UNL     1      -4.133  12.958  24.501  0.00  0.00    +0.000 NA
ATOM     28  C   UNL     1      -3.382  12.226  23.642  0.00  0.00    +0.000 A 
ENDBRANCH  21  23
ENDBRANCH   8  19
BRANCH   9  29
ATOM     29  C   UNL     1      -0.267  11.662  18.659  0.00  0.00    +0.000 C 
BRANCH  29  30
ATOM     30  C   UNL     1      -1.631  11.213  18.193  0.00  0.00    +0.000 A 
ATOM     31  C   UNL     1      -1.854  10.208  17.242  0.00  0.00    +0.000 A 
ATOM     32  C   UNL     1      -3.146   9.951  16.770  0.00  0.00    +0.000 A 
ATOM     33  C   UNL     1      -4.234  10.673  17.261  0.00  0.00    +0.000 A 
ATOM     34  C   UNL     1      -4.036  11.631  18.250  0.00  0.00    +0.000 A 
ATOM     35  C   UNL     1      -2.746  11.889  18.707  0.00  0.00    +0.000 A 
ATOM     36  F   UNL     1      -2.575  12.823  19.653  0.00  0.00    +0.000 F 
ENDBRANCH  29  30
ENDBRANCH   9  29
TORSDOF 7
ENDMDL
MODEL 9
REMARK VINA RESULT:      -8.5      3.042     10.268
REMARK  Name = 
REMARK  10 active torsions:
REMARK  status: ('A' for Active; 'I' for Inactive)
REMARK    1  A    between atoms: C_1  and  C_2
REMARK    2  A    between atoms: C_2  and  C_3
REMARK    3  A    between atoms: C_2  and  C_4
REMARK    4  A    between atoms: C_2  and  C_5
REMARK    5  A    between atoms: C_5  and  C_6
REMARK    6  A    between atoms: N_8  and  C_9
REMARK    7  A    between atoms: C_16  and  C_17
REMARK    8  A    between atoms: N_19  and  C_20
REMARK    9  A    between atoms: N_26  and  C_27
REMARK   10  A    between atoms: C_27  and  C_28
REMARK                            x       y       z     vdW  Elec       q    Type
REMARK                         _______ _______ _______ _____ _____    ______ ____
ROOT
ATOM      1  C   UNL     1       0.272   9.606  20.023  0.00  0.00    +0.000 A 
ATOM      2  C   UNL     1       0.516   8.694  21.044  0.00  0.00    +0.000 A 
ATOM      3  C   UNL     1       1.448   7.661  20.884  0.00  0.00    +0.000 A 
ATOM      4  C   UNL     1       2.181   7.609  19.688  0.00  0.00    +0.000 A 
ATOM      5  C   UNL     1       2.003   8.554  18.680  0.00  0.00    +0.000 A 
ATOM      6  C   UNL     1       1.016   9.550  18.836  0.00  0.00    +0.000 A 
ATOM      7  C   UNL     1       2.963   8.267  17.668  0.00  0.00    +0.000 A 
ATOM      8  C   UNL     1       3.681   7.131  18.024  0.00  0.00    +0.000 A 
ATOM      9  N   UNL     1       3.135   6.708  19.238  0.00  0.00    +0.000 N 
ENDROOT
BRANCH   1  12
ATOM     10  C   UNL     1      -0.444  11.783  20.884  0.00  0.00    +0.000 C 
ATOM     11  O   UNL     1       0.668  12.134  21.274  0.00  0.00    +0.000 OA
ATOM     12  N   UNL     1      -0.713  10.592  20.233  0.00  0.00    +0.000 N 
ATOM     13  H   UNL     1      -1.498  10.595  19.595  0.00  0.00    +0.000 HD
BRANCH  10  14
ATOM     14  C   UNL     1      -1.665  12.666  21.086  0.00  0.00    +0.000 C 
BRANCH  14  16
ATOM     15  C   UNL     1      -1.570  13.918  23.302  0.00  0.00    +0.000 C 
ATOM     16  C   UNL     1      -2.147  12.701  22.557  0.00  0.00    +0.000 C 
ATOM     17  C   UNL     1      -1.741  11.412  23.290  0.00  0.00    +0.000 C 
ATOM     18  C   UNL     1      -3.683  12.814  22.576  0.00  0.00    +0.000 C 
ENDBRANCH  14  16
ENDBRANCH  10  14
ENDBRANCH   1  12
BRANCH   8  19
ATOM     19  C   UNL     1       4.795   6.469  17.351  0.00  0.00    +0.000 C 
ATOM     20  O   UNL     1       5.898   6.375  17.881  0.00  0.00    +0.000 OA
ATOM     21  N   UNL     1       4.521   5.994  16.079  0.00  0.00    +0.000 N 
ATOM     22  H   UNL     1       3.586   6.140  15.728  0.00  0.00    +0.000 HD
BRANCH  21  23
ATOM     23  C   UNL     1       5.444   5.392  15.191  0.00  0.00    +0.000 A 
ATOM     24  C   UNL     1       5.141   4.334  14.335  0.00  0.00    +0.000 A 
ATOM     25  C   UNL     1       6.137   3.762  13.549  0.00  0.00    +0.000 A 
ATOM     26  C   UNL     1       7.419   4.275  13.631  0.00  0.00    +0.000 A 
ATOM     27  N   UNL     1       7.752   5.323  14.414  0.00  0.00    +0.000 NA
ATOM     28  C   UNL     1       6.759   5.855  15.168  0.00  0.00    +0.000 A 
ENDBRANCH  21  23
ENDBRANCH   8  19
BRANCH   9  29
ATOM     29  C   UNL     1       3.429   5.432  19.908  0.00  0.00    +0.000 C 
BRANCH  29  30
ATOM     30  C   UNL     1       2.677   4.232  19.388  0.00  0.00    +0.000 A 
ATOM     31  C   UNL     1       3.065   3.472  18.276  0.00  0.00    +0.000 A 
ATOM     32  C   UNL     1       2.235   2.458  17.784  0.00  0.00    +0.000 A 
ATOM     33  C   UNL     1       1.023   2.171  18.412  0.00  0.00    +0.000 A 
ATOM     34  C   UNL     1       0.653   2.875  19.553  0.00  0.00    +0.000 A 
ATOM     35  C   UNL     1       1.479   3.890  20.030  0.00  0.00    +0.000 A 
ATOM     36  F   UNL     1       1.100   4.563  21.126  0.00  0.00    +0.000 F 
ENDBRANCH  29  30
ENDBRANCH   9  29
TORSDOF 7
ENDMDL
