MODEL 1
REMARK VINA RESULT:      -7.5      0.000      0.000
REMARK  Name = 
REMARK  1 active torsions:
REMARK  status: ('A' for Active; 'I' for Inactive)
REMARK    1  A    between atoms: C_2  and  C_3
REMARK                            x       y       z     vdW  Elec       q    Type
REMARK                         _______ _______ _______ _____ _____    ______ ____
ROOT
ATOM      1  C   UNL     1       3.248   5.703  18.175  0.00  0.00    +0.000 A 
ATOM      2  C   UNL     1       4.190   5.429  17.134  0.00  0.00    +0.000 A 
ATOM      3  C   UNL     1       4.879   6.405  16.368  0.00  0.00    +0.000 A 
ATOM      4  C   UNL     1       5.788   6.060  15.363  0.00  0.00    +0.000 A 
ATOM      5  C   UNL     1       6.044   4.726  15.095  0.00  0.00    +0.000 A 
ATOM      6  C   UNL     1       5.398   3.741  15.837  0.00  0.00    +0.000 A 
ATOM      7  C   UNL     1       4.483   4.076  16.853  0.00  0.00    +0.000 A 
ATOM      8  C   UNL     1       3.869   3.059  17.594  0.00  0.00    +0.000 A 
ATOM      9  C   UNL     1       2.962   3.329  18.627  0.00  0.00    +0.000 A 
ATOM     10  C   UNL     1       2.381   2.264  19.339  0.00  0.00    +0.000 A 
ATOM     11  C   UNL     1       1.472   2.494  20.369  0.00  0.00    +0.000 A 
ATOM     12  C   UNL     1       1.122   3.796  20.691  0.00  0.00    +0.000 A 
ATOM     13  C   UNL     1       1.683   4.862  19.985  0.00  0.00    +0.000 A 
ATOM     14  C   UNL     1       2.629   4.665  18.941  0.00  0.00    +0.000 A 
ENDROOT
BRANCH   1  16
ATOM     15  O   UNL     1       2.062   7.772  17.898  0.00  0.00    +0.000 OA
ATOM     16  C   UNL     1       2.896   7.114  18.506  0.00  0.00    +0.000 C 
ENDBRANCH   1  16
TORSDOF 1
ENDMDL
MODEL 2
REMARK VINA RESULT:      -7.4      0.044      4.617
REMARK  Name = 
REMARK  1 active torsions:
REMARK  status: ('A' for Active; 'I' for Inactive)
REMARK    1  A    between atoms: C_2  and  C_3
REMARK                            x       y       z     vdW  Elec       q    Type
REMARK                         _______ _______ _______ _____ _____    ______ ____
ROOT
ATOM      1  C   UNL     1       3.238   5.724  18.210  0.00  0.00    +0.000 A 
ATOM      2  C   UNL     1       2.613   4.679  18.961  0.00  0.00    +0.000 A 
ATOM      3  C   UNL     1       1.647   4.862  19.984  0.00  0.00    +0.000 A 
ATOM      4  C   UNL     1       1.078   3.788  20.676  0.00  0.00    +0.000 A 
ATOM      5  C   UNL     1       1.453   2.493  20.362  0.00  0.00    +0.000 A 
ATOM      6  C   UNL     1       2.387   2.273  19.354  0.00  0.00    +0.000 A 
ATOM      7  C   UNL     1       2.964   3.346  18.649  0.00  0.00    +0.000 A 
ATOM      8  C   UNL     1       3.884   3.087  17.625  0.00  0.00    +0.000 A 
ATOM      9  C   UNL     1       4.480   4.110  16.878  0.00  0.00    +0.000 A 
ATOM     10  C   UNL     1       5.393   3.786  15.858  0.00  0.00    +0.000 A 
ATOM     11  C   UNL     1       6.009   4.777  15.098  0.00  0.00    +0.000 A 
ATOM     12  C   UNL     1       5.728   6.109  15.357  0.00  0.00    +0.000 A 
ATOM     13  C   UNL     1       4.830   6.445  16.374  0.00  0.00    +0.000 A 
ATOM     14  C   UNL     1       4.169   5.459  17.157  0.00  0.00    +0.000 A 
ENDROOT
BRANCH   1  16
ATOM     15  O   UNL     1       2.053   7.791  17.916  0.00  0.00    +0.000 OA
ATOM     16  C   UNL     1       2.911   7.148  18.506  0.00  0.00    +0.000 C 
ENDBRANCH   1  16
TORSDOF 1
ENDMDL
MODEL 3
REMARK VINA RESULT:      -7.2      1.908      3.068
REMARK  Name = 
REMARK  1 active torsions:
REMARK  status: ('A' for Active; 'I' for Inactive)
REMARK    1  A    between atoms: C_2  and  C_3
REMARK                            x       y       z     vdW  Elec       q    Type
REMARK                         _______ _______ _______ _____ _____    ______ ____
ROOT
ATOM      1  C   UNL     1       3.511   3.574  17.778  0.00  0.00    +0.000 A 
ATOM      2  C   UNL     1       4.415   4.129  16.819  0.00  0.00    +0.000 A 
ATOM      3  C   UNL     1       5.091   3.402  15.804  0.00  0.00    +0.000 A 
ATOM      4  C   UNL     1       5.964   4.016  14.901  0.00  0.00    +0.000 A 
ATOM      5  C   UNL     1       6.185   5.381  14.978  0.00  0.00    +0.000 A 
ATOM      6  C   UNL     1       5.528   6.129  15.951  0.00  0.00    +0.000 A 
ATOM      7  C   UNL     1       4.646   5.522  16.864  0.00  0.00    +0.000 A 
ATOM      8  C   UNL     1       3.985   6.310  17.815  0.00  0.00    +0.000 A 
ATOM      9  C   UNL     1       3.085   5.768  18.740  0.00  0.00    +0.000 A 
ATOM     10  C   UNL     1       2.448   6.612  19.668  0.00  0.00    +0.000 A 
ATOM     11  C   UNL     1       1.550   6.108  20.606  0.00  0.00    +0.000 A 
ATOM     12  C   UNL     1       1.287   4.747  20.635  0.00  0.00    +0.000 A 
ATOM     13  C   UNL     1       1.919   3.896  19.725  0.00  0.00    +0.000 A 
ATOM     14  C   UNL     1       2.827   4.379  18.742  0.00  0.00    +0.000 A 
ENDROOT
BRANCH   1  16
ATOM     15  O   UNL     1       3.806   1.307  18.513  0.00  0.00    +0.000 OA
ATOM     16  C   UNL     1       3.240   2.107  17.781  0.00  0.00    +0.000 C 
ENDBRANCH   1  16
TORSDOF 1
ENDMDL
MODEL 4
REMARK VINA RESULT:      -7.2      1.906      5.381
REMARK  Name = 
REMARK  1 active torsions:
REMARK  status: ('A' for Active; 'I' for Inactive)
REMARK    1  A    between atoms: C_2  and  C_3
REMARK                            x       y       z     vdW  Elec       q    Type
REMARK                         _______ _______ _______ _____ _____    ______ ____
ROOT
ATOM      1  C   UNL     1       3.503   3.557  17.791  0.00  0.00    +0.000 A 
ATOM      2  C   UNL     1       2.831   4.363  18.762  0.00  0.00    +0.000 A 
ATOM      3  C   UNL     1       1.962   3.882  19.776  0.00  0.00    +0.000 A 
ATOM      4  C   UNL     1       1.338   4.734  20.692  0.00  0.00    +0.000 A 
ATOM      5  C   UNL     1       1.569   6.098  20.630  0.00  0.00    +0.000 A 
ATOM      6  C   UNL     1       2.427   6.605  19.658  0.00  0.00    +0.000 A 
ATOM      7  C   UNL     1       3.063   5.757  18.733  0.00  0.00    +0.000 A 
ATOM      8  C   UNL     1       3.937   6.300  17.783  0.00  0.00    +0.000 A 
ATOM      9  C   UNL     1       4.610   5.507  16.846  0.00  0.00    +0.000 A 
ATOM     10  C   UNL     1       5.481   6.111  15.920  0.00  0.00    +0.000 A 
ATOM     11  C   UNL     1       6.163   5.355  14.970  0.00  0.00    +0.000 A 
ATOM     12  C   UNL     1       5.973   3.983  14.927  0.00  0.00    +0.000 A 
ATOM     13  C   UNL     1       5.105   3.371  15.834  0.00  0.00    +0.000 A 
ATOM     14  C   UNL     1       4.406   4.109  16.829  0.00  0.00    +0.000 A 
ENDROOT
BRANCH   1  16
ATOM     15  O   UNL     1       3.800   1.304  18.566  0.00  0.00    +0.000 OA
ATOM     16  C   UNL     1       3.286   2.081  17.773  0.00  0.00    +0.000 C 
ENDBRANCH   1  16
TORSDOF 1
ENDMDL
MODEL 5
REMARK VINA RESULT:      -6.9      2.096      5.085
REMARK  Name = 
REMARK  1 active torsions:
REMARK  status: ('A' for Active; 'I' for Inactive)
REMARK    1  A    between atoms: C_2  and  C_3
REMARK                            x       y       z     vdW  Elec       q    Type
REMARK                         _______ _______ _______ _____ _____    ______ ____
ROOT
ATOM      1  C   UNL     1       5.229   5.028  18.379  0.00  0.00    +0.000 A 
ATOM      2  C   UNL     1       3.911   4.671  18.806  0.00  0.00    +0.000 A 
ATOM      3  C   UNL     1       3.372   4.902  20.098  0.00  0.00    +0.000 A 
ATOM      4  C   UNL     1       2.071   4.523  20.443  0.00  0.00    +0.000 A 
ATOM      5  C   UNL     1       1.263   3.906  19.504  0.00  0.00    +0.000 A 
ATOM      6  C   UNL     1       1.753   3.676  18.221  0.00  0.00    +0.000 A 
ATOM      7  C   UNL     1       3.059   4.056  17.862  0.00  0.00    +0.000 A 
ATOM      8  C   UNL     1       3.511   3.830  16.555  0.00  0.00    +0.000 A 
ATOM      9  C   UNL     1       4.794   4.198  16.133  0.00  0.00    +0.000 A 
ATOM     10  C   UNL     1       5.189   3.950  14.806  0.00  0.00    +0.000 A 
ATOM     11  C   UNL     1       6.458   4.297  14.352  0.00  0.00    +0.000 A 
ATOM     12  C   UNL     1       7.356   4.889  15.226  0.00  0.00    +0.000 A 
ATOM     13  C   UNL     1       6.981   5.134  16.550  0.00  0.00    +0.000 A 
ATOM     14  C   UNL     1       5.687   4.808  17.042  0.00  0.00    +0.000 A 
ENDROOT
BRANCH   1  16
ATOM     15  O   UNL     1       7.026   5.064  19.971  0.00  0.00    +0.000 OA
ATOM     16  C   UNL     1       6.172   5.671  19.340  0.00  0.00    +0.000 C 
ENDBRANCH   1  16
TORSDOF 1
ENDMDL
MODEL 6
REMARK VINA RESULT:      -6.9      1.973      3.261
REMARK  Name = 
REMARK  1 active torsions:
REMARK  status: ('A' for Active; 'I' for Inactive)
REMARK    1  A    between atoms: C_2  and  C_3
REMARK                            x       y       z     vdW  Elec       q    Type
REMARK                         _______ _______ _______ _____ _____    ______ ____
ROOT
ATOM      1  C   UNL     1       3.931   4.353  18.484  0.00  0.00    +0.000 A 
ATOM      2  C   UNL     1       4.659   4.601  17.279  0.00  0.00    +0.000 A 
ATOM      3  C   UNL     1       5.420   3.641  16.562  0.00  0.00    +0.000 A 
ATOM      4  C   UNL     1       6.108   3.959  15.387  0.00  0.00    +0.000 A 
ATOM      5  C   UNL     1       6.052   5.249  14.885  0.00  0.00    +0.000 A 
ATOM      6  C   UNL     1       5.303   6.213  15.553  0.00  0.00    +0.000 A 
ATOM      7  C   UNL     1       4.604   5.904  16.735  0.00  0.00    +0.000 A 
ATOM      8  C   UNL     1       3.842   6.894  17.367  0.00  0.00    +0.000 A 
ATOM      9  C   UNL     1       3.114   6.645  18.537  0.00  0.00    +0.000 A 
ATOM     10  C   UNL     1       2.362   7.679  19.123  0.00  0.00    +0.000 A 
ATOM     11  C   UNL     1       1.630   7.470  20.289  0.00  0.00    +0.000 A 
ATOM     12  C   UNL     1       1.649   6.221  20.890  0.00  0.00    +0.000 A 
ATOM     13  C   UNL     1       2.398   5.187  20.324  0.00  0.00    +0.000 A 
ATOM     14  C   UNL     1       3.143   5.360  19.125  0.00  0.00    +0.000 A 
ENDROOT
BRANCH   1  16
ATOM     15  O   UNL     1       4.858   2.602  19.841  0.00  0.00    +0.000 OA
ATOM     16  C   UNL     1       3.963   2.997  19.106  0.00  0.00    +0.000 C 
ENDBRANCH   1  16
TORSDOF 1
ENDMDL
MODEL 7
REMARK VINA RESULT:      -6.9      1.501      4.773
REMARK  Name = 
REMARK  1 active torsions:
REMARK  status: ('A' for Active; 'I' for Inactive)
REMARK    1  A    between atoms: C_2  and  C_3
REMARK                            x       y       z     vdW  Elec       q    Type
REMARK                         _______ _______ _______ _____ _____    ______ ____
ROOT
ATOM      1  C   UNL     1       3.272   5.855  18.640  0.00  0.00    +0.000 A 
ATOM      2  C   UNL     1       2.748   4.782  19.428  0.00  0.00    +0.000 A 
ATOM      3  C   UNL     1       1.418   4.687  19.913  0.00  0.00    +0.000 A 
ATOM      4  C   UNL     1       0.978   3.605  20.681  0.00  0.00    +0.000 A 
ATOM      5  C   UNL     1       1.854   2.575  20.983  0.00  0.00    +0.000 A 
ATOM      6  C   UNL     1       3.163   2.627  20.512  0.00  0.00    +0.000 A 
ATOM      7  C   UNL     1       3.616   3.711  19.736  0.00  0.00    +0.000 A 
ATOM      8  C   UNL     1       4.933   3.718  19.261  0.00  0.00    +0.000 A 
ATOM      9  C   UNL     1       5.438   4.759  18.472  0.00  0.00    +0.000 A 
ATOM     10  C   UNL     1       6.769   4.707  18.019  0.00  0.00    +0.000 A 
ATOM     11  C   UNL     1       7.307   5.727  17.238  0.00  0.00    +0.000 A 
ATOM     12  C   UNL     1       6.521   6.820  16.909  0.00  0.00    +0.000 A 
ATOM     13  C   UNL     1       5.200   6.889  17.360  0.00  0.00    +0.000 A 
ATOM     14  C   UNL     1       4.613   5.858  18.144  0.00  0.00    +0.000 A 
ENDROOT
BRANCH   1  16
ATOM     15  O   UNL     1       2.261   8.002  19.004  0.00  0.00    +0.000 OA
ATOM     16  C   UNL     1       2.401   7.016  18.294  0.00  0.00    +0.000 C 
ENDBRANCH   1  16
TORSDOF 1
ENDMDL
MODEL 8
REMARK VINA RESULT:      -6.9      1.505      1.505
REMARK  Name = 
REMARK  1 active torsions:
REMARK  status: ('A' for Active; 'I' for Inactive)
REMARK    1  A    between atoms: C_2  and  C_3
REMARK                            x       y       z     vdW  Elec       q    Type
REMARK                         _______ _______ _______ _____ _____    ______ ____
ROOT
ATOM      1  C   UNL     1       3.291   5.864  18.618  0.00  0.00    +0.000 A 
ATOM      2  C   UNL     1       4.637   5.869  18.135  0.00  0.00    +0.000 A 
ATOM      3  C   UNL     1       5.239   6.909  17.379  0.00  0.00    +0.000 A 
ATOM      4  C   UNL     1       6.564   6.843  16.940  0.00  0.00    +0.000 A 
ATOM      5  C   UNL     1       7.337   5.736  17.249  0.00  0.00    +0.000 A 
ATOM      6  C   UNL     1       6.785   4.703  18.002  0.00  0.00    +0.000 A 
ATOM      7  C   UNL     1       5.453   4.760  18.451  0.00  0.00    +0.000 A 
ATOM      8  C   UNL     1       4.939   3.712  19.226  0.00  0.00    +0.000 A 
ATOM      9  C   UNL     1       3.626   3.717  19.715  0.00  0.00    +0.000 A 
ATOM     10  C   UNL     1       3.169   2.638  20.492  0.00  0.00    +0.000 A 
ATOM     11  C   UNL     1       1.869   2.606  20.991  0.00  0.00    +0.000 A 
ATOM     12  C   UNL     1       1.005   3.652  20.708  0.00  0.00    +0.000 A 
ATOM     13  C   UNL     1       1.443   4.726  19.929  0.00  0.00    +0.000 A 
ATOM     14  C   UNL     1       2.768   4.800  19.419  0.00  0.00    +0.000 A 
ENDROOT
BRANCH   1  16
ATOM     15  O   UNL     1       2.242   7.985  19.024  0.00  0.00    +0.000 OA
ATOM     16  C   UNL     1       2.385   7.006  18.304  0.00  0.00    +0.000 C 
ENDBRANCH   1  16
TORSDOF 1
ENDMDL
MODEL 9
REMARK VINA RESULT:      -6.8      2.097      2.308
REMARK  Name = 
REMARK  1 active torsions:
REMARK  status: ('A' for Active; 'I' for Inactive)
REMARK    1  A    between atoms: C_2  and  C_3
REMARK                            x       y       z     vdW  Elec       q    Type
REMARK                         _______ _______ _______ _____ _____    ______ ____
ROOT
ATOM      1  C   UNL     1       5.230   5.050  18.341  0.00  0.00    +0.000 A 
ATOM      2  C   UNL     1       5.694   4.825  17.007  0.00  0.00    +0.000 A 
ATOM      3  C   UNL     1       6.994   5.124  16.523  0.00  0.00    +0.000 A 
ATOM      4  C   UNL     1       7.375   4.876  15.201  0.00  0.00    +0.000 A 
ATOM      5  C   UNL     1       6.469   4.313  14.318  0.00  0.00    +0.000 A 
ATOM      6  C   UNL     1       5.188   3.992  14.761  0.00  0.00    +0.000 A 
ATOM      7  C   UNL     1       4.795   4.235  16.090  0.00  0.00    +0.000 A 
ATOM      8  C   UNL     1       3.505   3.879  16.506  0.00  0.00    +0.000 A 
ATOM      9  C   UNL     1       3.060   4.081  17.818  0.00  0.00    +0.000 A 
ATOM     10  C   UNL     1       1.755   3.697  18.177  0.00  0.00    +0.000 A 
ATOM     11  C   UNL     1       1.276   3.888  19.470  0.00  0.00    +0.000 A 
ATOM     12  C   UNL     1       2.095   4.477  20.421  0.00  0.00    +0.000 A 
ATOM     13  C   UNL     1       3.390   4.871  20.076  0.00  0.00    +0.000 A 
ATOM     14  C   UNL     1       3.918   4.676  18.770  0.00  0.00    +0.000 A 
ENDROOT
BRANCH   1  16
ATOM     15  O   UNL     1       7.015   5.076  19.947  0.00  0.00    +0.000 OA
ATOM     16  C   UNL     1       6.136   5.679  19.345  0.00  0.00    +0.000 C 
ENDBRANCH   1  16
TORSDOF 1
ENDMDL
