MODEL 1
REMARK VINA RESULT:      -8.7      0.000      0.000
REMARK  Name = 
REMARK  6 active torsions:
REMARK  status: ('A' for Active; 'I' for Inactive)
REMARK    1  A    between atoms: N_1  and  C_2
REMARK    2  A    between atoms: C_2  and  C_3
REMARK    3  A    between atoms: C_2  and  C_9
REMARK    4  A    between atoms: C_3  and  C_4
REMARK    5  A    between atoms: C_17  and  C_18
REMARK    6  A    between atoms: C_18  and  C_20
REMARK                            x       y       z     vdW  Elec       q    Type
REMARK                         _______ _______ _______ _____ _____    ______ ____
ROOT
ATOM      1  C   UNL     1       1.465   8.391  20.482  0.00  0.00    +0.000 C 
ATOM      2  O   UNL     1       1.731   7.828  21.540  0.00  0.00    +0.000 OA
ATOM      3  N   UNL     1       1.979   8.030  19.253  0.00  0.00    +0.000 N 
ATOM      4  C   UNL     1       2.525   6.784  19.081  0.00  0.00    +0.000 A 
ATOM      5  N   UNL     1       2.099   5.944  18.172  0.00  0.00    +0.000 NA
ATOM      6  C   UNL     1       3.064   4.989  18.104  0.00  0.00    +0.000 A 
ATOM      7  C   UNL     1       3.157   3.900  17.240  0.00  0.00    +0.000 A 
ATOM      8  C   UNL     1       4.314   4.122  16.500  0.00  0.00    +0.000 A 
ATOM      9  C   UNL     1       5.527   4.414  17.122  0.00  0.00    +0.000 A 
ATOM     10  C   UNL     1       5.484   4.912  18.457  0.00  0.00    +0.000 A 
ATOM     11  C   UNL     1       4.198   5.373  18.823  0.00  0.00    +0.000 A 
ATOM     12  N   UNL     1       3.688   6.329  19.682  0.00  0.00    +0.000 N 
ATOM     13  H   UNL     1       1.390   8.345  18.484  0.00  0.00    +0.000 HD
ATOM     14  H   UNL     1       4.192   6.835  20.395  0.00  0.00    +0.000 HD
ENDROOT
BRANCH   9  15
ATOM     15  C   UNL     1       6.800   4.452  16.325  0.00  0.00    +0.000 C 
ATOM     16  O   UNL     1       7.863   4.526  16.948  0.00  0.00    +0.000 OA
BRANCH  15  17
ATOM     17  C   UNL     1       6.855   4.474  14.809  0.00  0.00    +0.000 A 
ATOM     18  C   UNL     1       6.016   3.585  14.112  0.00  0.00    +0.000 A 
ATOM     19  C   UNL     1       6.065   3.488  12.717  0.00  0.00    +0.000 A 
ATOM     20  C   UNL     1       6.958   4.266  11.985  0.00  0.00    +0.000 A 
ATOM     21  C   UNL     1       7.767   5.179  12.649  0.00  0.00    +0.000 A 
ATOM     22  C   UNL     1       7.681   5.312  14.042  0.00  0.00    +0.000 A 
ENDBRANCH  15  17
ENDBRANCH   9  15
BRANCH   1  23
ATOM     23  C   UNL     1       0.539   9.638  20.387  0.00  0.00    +0.000 C 
BRANCH  23  24
ATOM     24  N   UNL     1       0.686  10.485  21.612  0.00  0.00    +0.000 NA
ATOM     25  H   UNL     1       1.703  10.507  21.807  0.00  0.00    +0.000 HD
ATOM     26  H   UNL     1       0.331   9.965  22.419  0.00  0.00    +0.000 HD
ENDBRANCH  23  24
BRANCH  23  27
ATOM     27  C   UNL     1       0.814  10.419  19.089  0.00  0.00    +0.000 C 
BRANCH  27  28
ATOM     28  C   UNL     1      -0.417  10.930  18.403  0.00  0.00    +0.000 A 
ATOM     29  C   UNL     1      -0.902  12.220  18.347  0.00  0.00    +0.000 A 
ATOM     30  N   UNL     1      -2.085  12.139  17.668  0.00  0.00    +0.000 N 
ATOM     31  C   UNL     1      -2.282  10.826  17.341  0.00  0.00    +0.000 A 
ATOM     32  N   UNL     1      -1.288  10.074  17.766  0.00  0.00    +0.000 NA
ATOM     33  H   UNL     1      -2.713  12.905  17.462  0.00  0.00    +0.000 HD
ENDBRANCH  27  28
ENDBRANCH  23  27
ENDBRANCH   1  23
TORSDOF 6
ENDMDL
MODEL 2
REMARK VINA RESULT:      -8.5      0.965      1.024
REMARK  Name = 
REMARK  6 active torsions:
REMARK  status: ('A' for Active; 'I' for Inactive)
REMARK    1  A    between atoms: N_1  and  C_2
REMARK    2  A    between atoms: C_2  and  C_3
REMARK    3  A    between atoms: C_2  and  C_9
REMARK    4  A    between atoms: C_3  and  C_4
REMARK    5  A    between atoms: C_17  and  C_18
REMARK    6  A    between atoms: C_18  and  C_20
REMARK                            x       y       z     vdW  Elec       q    Type
REMARK                         _______ _______ _______ _____ _____    ______ ____
ROOT
ATOM      1  C   UNL     1       1.396   9.052  19.808  0.00  0.00    +0.000 C 
ATOM      2  O   UNL     1       1.607   8.629  20.941  0.00  0.00    +0.000 OA
ATOM      3  N   UNL     1       1.935   8.512  18.657  0.00  0.00    +0.000 N 
ATOM      4  C   UNL     1       2.440   7.237  18.675  0.00  0.00    +0.000 A 
ATOM      5  N   UNL     1       2.011   6.296  17.871  0.00  0.00    +0.000 NA
ATOM      6  C   UNL     1       2.942   5.309  17.966  0.00  0.00    +0.000 A 
ATOM      7  C   UNL     1       3.022   4.112  17.260  0.00  0.00    +0.000 A 
ATOM      8  C   UNL     1       4.209   4.194  16.541  0.00  0.00    +0.000 A 
ATOM      9  C   UNL     1       5.412   4.527  17.161  0.00  0.00    +0.000 A 
ATOM     10  C   UNL     1       5.345   5.202  18.415  0.00  0.00    +0.000 A 
ATOM     11  C   UNL     1       4.066   5.750  18.669  0.00  0.00    +0.000 A 
ATOM     12  N   UNL     1       3.565   6.830  19.373  0.00  0.00    +0.000 N 
ATOM     13  H   UNL     1       1.383   8.739  17.832  0.00  0.00    +0.000 HD
ATOM     14  H   UNL     1       4.065   7.410  20.029  0.00  0.00    +0.000 HD
ENDROOT
BRANCH   9  15
ATOM     15  C   UNL     1       6.710   4.416  16.413  0.00  0.00    +0.000 C 
ATOM     16  O   UNL     1       7.747   4.334  17.077  0.00  0.00    +0.000 OA
BRANCH  15  17
ATOM     17  C   UNL     1       6.829   4.466  14.902  0.00  0.00    +0.000 A 
ATOM     18  C   UNL     1       6.032   3.579  14.155  0.00  0.00    +0.000 A 
ATOM     19  C   UNL     1       6.141   3.507  12.761  0.00  0.00    +0.000 A 
ATOM     20  C   UNL     1       7.053   4.310  12.081  0.00  0.00    +0.000 A 
ATOM     21  C   UNL     1       7.821   5.220  12.795  0.00  0.00    +0.000 A 
ATOM     22  C   UNL     1       7.675   5.328  14.185  0.00  0.00    +0.000 A 
ENDBRANCH  15  17
ENDBRANCH   9  15
BRANCH   1  23
ATOM     23  C   UNL     1       0.521  10.305  19.513  0.00  0.00    +0.000 C 
BRANCH  23  24
ATOM     24  N   UNL     1       0.964  10.956  18.241  0.00  0.00    +0.000 NA
ATOM     25  H   UNL     1       0.478  10.439  17.487  0.00  0.00    +0.000 HD
ATOM     26  H   UNL     1       1.941  10.709  18.066  0.00  0.00    +0.000 HD
ENDBRANCH  23  24
BRANCH  23  27
ATOM     27  C   UNL     1      -0.973   9.931  19.500  0.00  0.00    +0.000 C 
BRANCH  27  28
ATOM     28  C   UNL     1      -1.747  10.520  18.359  0.00  0.00    +0.000 A 
ATOM     29  C   UNL     1      -2.653  11.560  18.377  0.00  0.00    +0.000 A 
ATOM     30  N   UNL     1      -3.130  11.654  17.099  0.00  0.00    +0.000 N 
ATOM     31  C   UNL     1      -2.514  10.683  16.359  0.00  0.00    +0.000 A 
ATOM     32  N   UNL     1      -1.669   9.988  17.091  0.00  0.00    +0.000 NA
ATOM     33  H   UNL     1      -3.827  12.305  16.765  0.00  0.00    +0.000 HD
ENDBRANCH  27  28
ENDBRANCH  23  27
ENDBRANCH   1  23
TORSDOF 6
ENDMDL
MODEL 3
REMARK VINA RESULT:      -8.4      0.909      1.449
REMARK  Name = 
REMARK  6 active torsions:
REMARK  status: ('A' for Active; 'I' for Inactive)
REMARK    1  A    between atoms: N_1  and  C_2
REMARK    2  A    between atoms: C_2  and  C_3
REMARK    3  A    between atoms: C_2  and  C_9
REMARK    4  A    between atoms: C_3  and  C_4
REMARK    5  A    between atoms: C_17  and  C_18
REMARK    6  A    between atoms: C_18  and  C_20
REMARK                            x       y       z     vdW  Elec       q    Type
REMARK                         _______ _______ _______ _____ _____    ______ ____
ROOT
ATOM      1  C   UNL     1       1.393   8.388  20.570  0.00  0.00    +0.000 C 
ATOM      2  O   UNL     1       1.640   7.806  21.622  0.00  0.00    +0.000 OA
ATOM      3  N   UNL     1       1.921   8.043  19.341  0.00  0.00    +0.000 N 
ATOM      4  C   UNL     1       2.462   6.797  19.158  0.00  0.00    +0.000 A 
ATOM      5  N   UNL     1       2.042   5.974  18.229  0.00  0.00    +0.000 NA
ATOM      6  C   UNL     1       3.002   5.013  18.159  0.00  0.00    +0.000 A 
ATOM      7  C   UNL     1       3.100   3.938  17.280  0.00  0.00    +0.000 A 
ATOM      8  C   UNL     1       4.269   4.163  16.560  0.00  0.00    +0.000 A 
ATOM      9  C   UNL     1       5.476   4.437  17.204  0.00  0.00    +0.000 A 
ATOM     10  C   UNL     1       5.416   4.914  18.546  0.00  0.00    +0.000 A 
ATOM     11  C   UNL     1       4.128   5.378  18.901  0.00  0.00    +0.000 A 
ATOM     12  N   UNL     1       3.612   6.323  19.768  0.00  0.00    +0.000 N 
ATOM     13  H   UNL     1       1.346   8.375  18.569  0.00  0.00    +0.000 HD
ATOM     14  H   UNL     1       4.110   6.814  20.496  0.00  0.00    +0.000 HD
ENDROOT
BRANCH   9  15
ATOM     15  C   UNL     1       6.760   4.479  16.426  0.00  0.00    +0.000 C 
ATOM     16  O   UNL     1       7.804   4.668  17.056  0.00  0.00    +0.000 OA
BRANCH  15  17
ATOM     17  C   UNL     1       6.844   4.371  14.915  0.00  0.00    +0.000 A 
ATOM     18  C   UNL     1       7.755   5.211  14.250  0.00  0.00    +0.000 A 
ATOM     19  C   UNL     1       7.836   5.228  12.852  0.00  0.00    +0.000 A 
ATOM     20  C   UNL     1       7.003   4.417  12.086  0.00  0.00    +0.000 A 
ATOM     21  C   UNL     1       6.124   3.552  12.724  0.00  0.00    +0.000 A 
ATOM     22  C   UNL     1       6.079   3.497  14.123  0.00  0.00    +0.000 A 
ENDBRANCH  15  17
ENDBRANCH   9  15
BRANCH   1  23
ATOM     23  C   UNL     1       0.477   9.643  20.481  0.00  0.00    +0.000 C 
BRANCH  23  24
ATOM     24  N   UNL     1       1.031  10.748  21.326  0.00  0.00    +0.000 NA
ATOM     25  H   UNL     1       2.019  10.489  21.497  0.00  0.00    +0.000 HD
ATOM     26  H   UNL     1       0.632  10.677  22.266  0.00  0.00    +0.000 HD
ENDBRANCH  23  24
BRANCH  23  27
ATOM     27  C   UNL     1       0.273  10.064  19.014  0.00  0.00    +0.000 C 
BRANCH  27  28
ATOM     28  C   UNL     1       0.056  11.534  18.816  0.00  0.00    +0.000 A 
ATOM     29  C   UNL     1      -1.119  12.205  18.551  0.00  0.00    +0.000 A 
ATOM     30  N   UNL     1      -0.765  13.515  18.385  0.00  0.00    +0.000 N 
ATOM     31  C   UNL     1       0.589  13.597  18.547  0.00  0.00    +0.000 A 
ATOM     32  N   UNL     1       1.112  12.418  18.815  0.00  0.00    +0.000 NA
ATOM     33  H   UNL     1      -1.387  14.280  18.161  0.00  0.00    +0.000 HD
ENDBRANCH  27  28
ENDBRANCH  23  27
ENDBRANCH   1  23
TORSDOF 6
ENDMDL
MODEL 4
REMARK VINA RESULT:      -8.4      6.475      8.365
REMARK  Name = 
REMARK  6 active torsions:
REMARK  status: ('A' for Active; 'I' for Inactive)
REMARK    1  A    between atoms: N_1  and  C_2
REMARK    2  A    between atoms: C_2  and  C_3
REMARK    3  A    between atoms: C_2  and  C_9
REMARK    4  A    between atoms: C_3  and  C_4
REMARK    5  A    between atoms: C_17  and  C_18
REMARK    6  A    between atoms: C_18  and  C_20
REMARK                            x       y       z     vdW  Elec       q    Type
REMARK                         _______ _______ _______ _____ _____    ______ ____
ROOT
ATOM      1  C   UNL     1       9.819  10.653  18.758  0.00  0.00    +0.000 C 
ATOM      2  O   UNL     1      10.017  10.771  17.552  0.00  0.00    +0.000 OA
ATOM      3  N   UNL     1       8.915   9.773  19.320  0.00  0.00    +0.000 N 
ATOM      4  C   UNL     1       8.453   8.710  18.587  0.00  0.00    +0.000 A 
ATOM      5  N   UNL     1       8.579   7.469  18.986  0.00  0.00    +0.000 NA
ATOM      6  C   UNL     1       7.745   6.761  18.179  0.00  0.00    +0.000 A 
ATOM      7  C   UNL     1       7.429   5.405  18.223  0.00  0.00    +0.000 A 
ATOM      8  C   UNL     1       6.065   5.359  18.491  0.00  0.00    +0.000 A 
ATOM      9  C   UNL     1       5.152   6.094  17.735  0.00  0.00    +0.000 A 
ATOM     10  C   UNL     1       5.649   7.208  16.998  0.00  0.00    +0.000 A 
ATOM     11  C   UNL     1       6.934   7.614  17.427  0.00  0.00    +0.000 A 
ATOM     12  N   UNL     1       7.644   8.800  17.466  0.00  0.00    +0.000 N 
ATOM     13  H   UNL     1       9.143   9.555  20.288  0.00  0.00    +0.000 HD
ATOM     14  H   UNL     1       7.402   9.667  17.011  0.00  0.00    +0.000 HD
ENDROOT
BRANCH   9  15
ATOM     15  C   UNL     1       3.675   5.879  17.907  0.00  0.00    +0.000 C 
ATOM     16  O   UNL     1       2.943   6.872  17.856  0.00  0.00    +0.000 OA
BRANCH  15  17
ATOM     17  C   UNL     1       3.040   4.535  18.205  0.00  0.00    +0.000 A 
ATOM     18  C   UNL     1       2.446   4.358  19.468  0.00  0.00    +0.000 A 
ATOM     19  C   UNL     1       1.908   3.123  19.849  0.00  0.00    +0.000 A 
ATOM     20  C   UNL     1       1.961   2.033  18.985  0.00  0.00    +0.000 A 
ATOM     21  C   UNL     1       2.507   2.195  17.718  0.00  0.00    +0.000 A 
ATOM     22  C   UNL     1       2.998   3.445  17.318  0.00  0.00    +0.000 A 
ENDBRANCH  15  17
ENDBRANCH   9  15
BRANCH   1  23
ATOM     23  C   UNL     1      10.531  11.526  19.831  0.00  0.00    +0.000 C 
BRANCH  23  24
ATOM     24  N   UNL     1      11.986  11.660  19.507  0.00  0.00    +0.000 NA
ATOM     25  H   UNL     1      12.484  11.338  20.356  0.00  0.00    +0.000 HD
ATOM     26  H   UNL     1      12.230  12.653  19.487  0.00  0.00    +0.000 HD
ENDBRANCH  23  24
BRANCH  23  27
ATOM     27  C   UNL     1       9.828  12.889  19.975  0.00  0.00    +0.000 C 
BRANCH  27  28
ATOM     28  C   UNL     1      10.586  14.041  19.389  0.00  0.00    +0.000 A 
ATOM     29  C   UNL     1      11.162  15.114  20.037  0.00  0.00    +0.000 A 
ATOM     30  N   UNL     1      11.662  15.915  19.048  0.00  0.00    +0.000 N 
ATOM     31  C   UNL     1      11.376  15.318  17.852  0.00  0.00    +0.000 A 
ATOM     32  N   UNL     1      10.733  14.182  18.027  0.00  0.00    +0.000 NA
ATOM     33  H   UNL     1      12.137  16.798  19.174  0.00  0.00    +0.000 HD
ENDBRANCH  27  28
ENDBRANCH  23  27
ENDBRANCH   1  23
TORSDOF 6
ENDMDL
MODEL 5
REMARK VINA RESULT:      -8.4      6.139      8.071
REMARK  Name = 
REMARK  6 active torsions:
REMARK  status: ('A' for Active; 'I' for Inactive)
REMARK    1  A    between atoms: N_1  and  C_2
REMARK    2  A    between atoms: C_2  and  C_3
REMARK    3  A    between atoms: C_2  and  C_9
REMARK    4  A    between atoms: C_3  and  C_4
REMARK    5  A    between atoms: C_17  and  C_18
REMARK    6  A    between atoms: C_18  and  C_20
REMARK                            x       y       z     vdW  Elec       q    Type
REMARK                         _______ _______ _______ _____ _____    ______ ____
ROOT
ATOM      1  C   UNL     1       9.774  10.576  18.732  0.00  0.00    +0.000 C 
ATOM      2  O   UNL     1       9.939  10.708  17.523  0.00  0.00    +0.000 OA
ATOM      3  N   UNL     1       8.893   9.682  19.309  0.00  0.00    +0.000 N 
ATOM      4  C   UNL     1       8.423   8.622  18.578  0.00  0.00    +0.000 A 
ATOM      5  N   UNL     1       8.570   7.378  18.962  0.00  0.00    +0.000 NA
ATOM      6  C   UNL     1       7.722   6.669  18.171  0.00  0.00    +0.000 A 
ATOM      7  C   UNL     1       7.420   5.311  18.210  0.00  0.00    +0.000 A 
ATOM      8  C   UNL     1       6.064   5.248  18.513  0.00  0.00    +0.000 A 
ATOM      9  C   UNL     1       5.124   5.982  17.789  0.00  0.00    +0.000 A 
ATOM     10  C   UNL     1       5.591   7.107  17.049  0.00  0.00    +0.000 A 
ATOM     11  C   UNL     1       6.883   7.522  17.449  0.00  0.00    +0.000 A 
ATOM     12  N   UNL     1       7.583   8.714  17.480  0.00  0.00    +0.000 N 
ATOM     13  H   UNL     1       9.149   9.457  20.269  0.00  0.00    +0.000 HD
ATOM     14  H   UNL     1       7.321   9.583  17.040  0.00  0.00    +0.000 HD
ENDROOT
BRANCH   9  15
ATOM     15  C   UNL     1       3.655   5.751  17.998  0.00  0.00    +0.000 C 
ATOM     16  O   UNL     1       2.886   6.676  17.719  0.00  0.00    +0.000 OA
BRANCH  15  17
ATOM     17  C   UNL     1       3.068   4.484  18.589  0.00  0.00    +0.000 A 
ATOM     18  C   UNL     1       2.149   3.762  17.806  0.00  0.00    +0.000 A 
ATOM     19  C   UNL     1       1.503   2.626  18.310  0.00  0.00    +0.000 A 
ATOM     20  C   UNL     1       1.750   2.192  19.609  0.00  0.00    +0.000 A 
ATOM     21  C   UNL     1       2.683   2.867  20.386  0.00  0.00    +0.000 A 
ATOM     22  C   UNL     1       3.367   3.972  19.863  0.00  0.00    +0.000 A 
ENDBRANCH  15  17
ENDBRANCH   9  15
BRANCH   1  23
ATOM     23  C   UNL     1      10.505  11.446  19.795  0.00  0.00    +0.000 C 
BRANCH  23  24
ATOM     24  N   UNL     1      11.888  11.778  19.328  0.00  0.00    +0.000 NA
ATOM     25  H   UNL     1      12.401  10.879  19.338  0.00  0.00    +0.000 HD
ATOM     26  H   UNL     1      12.369  12.301  20.065  0.00  0.00    +0.000 HD
ENDBRANCH  23  24
BRANCH  23  27
ATOM     27  C   UNL     1       9.676  12.699  20.133  0.00  0.00    +0.000 C 
BRANCH  27  28
ATOM     28  C   UNL     1       9.754  13.788  19.106  0.00  0.00    +0.000 A 
ATOM     29  C   UNL     1       8.808  14.165  18.176  0.00  0.00    +0.000 A 
ATOM     30  N   UNL     1       9.396  15.151  17.433  0.00  0.00    +0.000 N 
ATOM     31  C   UNL     1      10.659  15.335  17.922  0.00  0.00    +0.000 A 
ATOM     32  N   UNL     1      10.901  14.531  18.937  0.00  0.00    +0.000 NA
ATOM     33  H   UNL     1       8.982  15.640  16.650  0.00  0.00    +0.000 HD
ENDBRANCH  27  28
ENDBRANCH  23  27
ENDBRANCH   1  23
TORSDOF 6
ENDMDL
MODEL 6
REMARK VINA RESULT:      -8.4      0.611      1.184
REMARK  Name = 
REMARK  6 active torsions:
REMARK  status: ('A' for Active; 'I' for Inactive)
REMARK    1  A    between atoms: N_1  and  C_2
REMARK    2  A    between atoms: C_2  and  C_3
REMARK    3  A    between atoms: C_2  and  C_9
REMARK    4  A    between atoms: C_3  and  C_4
REMARK    5  A    between atoms: C_17  and  C_18
REMARK    6  A    between atoms: C_18  and  C_20
REMARK                            x       y       z     vdW  Elec       q    Type
REMARK                         _______ _______ _______ _____ _____    ______ ____
ROOT
ATOM      1  C   UNL     1       1.408   8.452  20.469  0.00  0.00    +0.000 C 
ATOM      2  O   UNL     1       1.662   7.896  21.534  0.00  0.00    +0.000 OA
ATOM      3  N   UNL     1       1.929   8.076  19.247  0.00  0.00    +0.000 N 
ATOM      4  C   UNL     1       2.468   6.825  19.091  0.00  0.00    +0.000 A 
ATOM      5  N   UNL     1       2.042   5.980  18.185  0.00  0.00    +0.000 NA
ATOM      6  C   UNL     1       3.000   5.017  18.133  0.00  0.00    +0.000 A 
ATOM      7  C   UNL     1       3.092   3.921  17.280  0.00  0.00    +0.000 A 
ATOM      8  C   UNL     1       4.256   4.127  16.548  0.00  0.00    +0.000 A 
ATOM      9  C   UNL     1       5.467   4.415  17.177  0.00  0.00    +0.000 A 
ATOM     10  C   UNL     1       5.417   4.925  18.507  0.00  0.00    +0.000 A 
ATOM     11  C   UNL     1       4.131   5.399  18.858  0.00  0.00    +0.000 A 
ATOM     12  N   UNL     1       3.621   6.366  19.705  0.00  0.00    +0.000 N 
ATOM     13  H   UNL     1       1.350   8.390  18.470  0.00  0.00    +0.000 HD
ATOM     14  H   UNL     1       4.124   6.874  20.418  0.00  0.00    +0.000 HD
ENDROOT
BRANCH   9  15
ATOM     15  C   UNL     1       6.746   4.436  16.390  0.00  0.00    +0.000 C 
ATOM     16  O   UNL     1       7.799   4.593  17.015  0.00  0.00    +0.000 OA
BRANCH  15  17
ATOM     17  C   UNL     1       6.817   4.346  14.878  0.00  0.00    +0.000 A 
ATOM     18  C   UNL     1       7.708   5.208  14.212  0.00  0.00    +0.000 A 
ATOM     19  C   UNL     1       7.775   5.241  12.814  0.00  0.00    +0.000 A 
ATOM     20  C   UNL     1       6.948   4.425  12.048  0.00  0.00    +0.000 A 
ATOM     21  C   UNL     1       6.089   3.538  12.684  0.00  0.00    +0.000 A 
ATOM     22  C   UNL     1       6.059   3.468  14.084  0.00  0.00    +0.000 A 
ENDBRANCH  15  17
ENDBRANCH   9  15
BRANCH   1  23
ATOM     23  C   UNL     1       0.493   9.706  20.356  0.00  0.00    +0.000 C 
BRANCH  23  24
ATOM     24  N   UNL     1       0.946  10.764  21.311  0.00  0.00    +0.000 NA
ATOM     25  H   UNL     1       1.057  11.619  20.738  0.00  0.00    +0.000 HD
ATOM     26  H   UNL     1       1.914  10.572  21.584  0.00  0.00    +0.000 HD
ENDBRANCH  23  24
BRANCH  23  27
ATOM     27  C   UNL     1       0.436  10.205  18.900  0.00  0.00    +0.000 C 
BRANCH  27  28
ATOM     28  C   UNL     1      -0.947  10.499  18.402  0.00  0.00    +0.000 A 
ATOM     29  C   UNL     1      -1.623   9.926  17.345  0.00  0.00    +0.000 A 
ATOM     30  N   UNL     1      -2.812  10.596  17.263  0.00  0.00    +0.000 N 
ATOM     31  C   UNL     1      -2.819  11.541  18.251  0.00  0.00    +0.000 A 
ATOM     32  N   UNL     1      -1.710  11.501  18.959  0.00  0.00    +0.000 NA
ATOM     33  H   UNL     1      -3.543  10.439  16.583  0.00  0.00    +0.000 HD
ENDBRANCH  27  28
ENDBRANCH  23  27
ENDBRANCH   1  23
TORSDOF 6
ENDMDL
MODEL 7
REMARK VINA RESULT:      -8.4      3.238      8.691
REMARK  Name = 
REMARK  6 active torsions:
REMARK  status: ('A' for Active; 'I' for Inactive)
REMARK    1  A    between atoms: N_1  and  C_2
REMARK    2  A    between atoms: C_2  and  C_3
REMARK    3  A    between atoms: C_2  and  C_9
REMARK    4  A    between atoms: C_3  and  C_4
REMARK    5  A    between atoms: C_17  and  C_18
REMARK    6  A    between atoms: C_18  and  C_20
REMARK                            x       y       z     vdW  Elec       q    Type
REMARK                         _______ _______ _______ _____ _____    ______ ____
ROOT
ATOM      1  C   UNL     1       2.349   3.833  20.289  0.00  0.00    +0.000 C 
ATOM      2  O   UNL     1       2.920   4.130  21.335  0.00  0.00    +0.000 OA
ATOM      3  N   UNL     1       1.690   4.733  19.475  0.00  0.00    +0.000 N 
ATOM      4  C   UNL     1       1.952   6.074  19.589  0.00  0.00    +0.000 A 
ATOM      5  N   UNL     1       2.365   6.801  18.581  0.00  0.00    +0.000 NA
ATOM      6  C   UNL     1       2.207   8.087  18.995  0.00  0.00    +0.000 A 
ATOM      7  C   UNL     1       2.414   9.265  18.283  0.00  0.00    +0.000 A 
ATOM      8  C   UNL     1       1.166   9.875  18.219  0.00  0.00    +0.000 A 
ATOM      9  C   UNL     1       0.395  10.073  19.364  0.00  0.00    +0.000 A 
ATOM     10  C   UNL     1       0.686   9.269  20.505  0.00  0.00    +0.000 A 
ATOM     11  C   UNL     1       1.479   8.142  20.186  0.00  0.00    +0.000 A 
ATOM     12  N   UNL     1       1.641   6.862  20.685  0.00  0.00    +0.000 N 
ATOM     13  H   UNL     1       1.608   4.395  18.518  0.00  0.00    +0.000 HD
ATOM     14  H   UNL     1       1.285   6.502  21.558  0.00  0.00    +0.000 HD
ENDROOT
BRANCH   9  15
ATOM     15  C   UNL     1      -0.853  10.907  19.306  0.00  0.00    +0.000 C 
ATOM     16  O   UNL     1      -1.067  11.682  20.243  0.00  0.00    +0.000 OA
BRANCH  15  17
ATOM     17  C   UNL     1      -1.893  10.807  18.207  0.00  0.00    +0.000 A 
ATOM     18  C   UNL     1      -3.041  11.612  18.318  0.00  0.00    +0.000 A 
ATOM     19  C   UNL     1      -4.083  11.521  17.388  0.00  0.00    +0.000 A 
ATOM     20  C   UNL     1      -4.009  10.617  16.332  0.00  0.00    +0.000 A 
ATOM     21  C   UNL     1      -2.868   9.840  16.181  0.00  0.00    +0.000 A 
ATOM     22  C   UNL     1      -1.803   9.969  17.083  0.00  0.00    +0.000 A 
ENDBRANCH  15  17
ENDBRANCH   9  15
BRANCH   1  23
ATOM     23  C   UNL     1       2.244   2.375  19.756  0.00  0.00    +0.000 C 
BRANCH  23  24
ATOM     24  N   UNL     1       1.031   2.226  18.893  0.00  0.00    +0.000 NA
ATOM     25  H   UNL     1       1.200   2.842  18.078  0.00  0.00    +0.000 HD
ATOM     26  H   UNL     1       0.243   2.695  19.347  0.00  0.00    +0.000 HD
ENDBRANCH  23  24
BRANCH  23  27
ATOM     27  C   UNL     1       3.541   1.968  19.032  0.00  0.00    +0.000 C 
BRANCH  27  28
ATOM     28  C   UNL     1       4.173   3.066  18.231  0.00  0.00    +0.000 A 
ATOM     29  C   UNL     1       5.292   3.816  18.527  0.00  0.00    +0.000 A 
ATOM     30  N   UNL     1       5.401   4.730  17.516  0.00  0.00    +0.000 N 
ATOM     31  C   UNL     1       4.361   4.514  16.655  0.00  0.00    +0.000 A 
ATOM     32  N   UNL     1       3.607   3.512  17.057  0.00  0.00    +0.000 NA
ATOM     33  H   UNL     1       6.106   5.449  17.430  0.00  0.00    +0.000 HD
ENDBRANCH  27  28
ENDBRANCH  23  27
ENDBRANCH   1  23
TORSDOF 6
ENDMDL
MODEL 8
REMARK VINA RESULT:      -8.3      4.164      6.427
REMARK  Name = 
REMARK  6 active torsions:
REMARK  status: ('A' for Active; 'I' for Inactive)
REMARK    1  A    between atoms: N_1  and  C_2
REMARK    2  A    between atoms: C_2  and  C_3
REMARK    3  A    between atoms: C_2  and  C_9
REMARK    4  A    between atoms: C_3  and  C_4
REMARK    5  A    between atoms: C_17  and  C_18
REMARK    6  A    between atoms: C_18  and  C_20
REMARK                            x       y       z     vdW  Elec       q    Type
REMARK                         _______ _______ _______ _____ _____    ______ ____
ROOT
ATOM      1  C   UNL     1      -2.546  11.331  17.243  0.00  0.00    +0.000 C 
ATOM      2  O   UNL     1      -1.746  12.177  16.855  0.00  0.00    +0.000 OA
ATOM      3  N   UNL     1      -2.198  10.172  17.909  0.00  0.00    +0.000 N 
ATOM      4  C   UNL     1      -0.970  10.074  18.510  0.00  0.00    +0.000 A 
ATOM      5  N   UNL     1      -0.827   9.810  19.785  0.00  0.00    +0.000 NA
ATOM      6  C   UNL     1       0.486   9.488  19.926  0.00  0.00    +0.000 A 
ATOM      7  C   UNL     1       1.161   9.044  21.061  0.00  0.00    +0.000 A 
ATOM      8  C   UNL     1       1.608   7.767  20.742  0.00  0.00    +0.000 A 
ATOM      9  C   UNL     1       2.320   7.520  19.568  0.00  0.00    +0.000 A 
ATOM     10  C   UNL     1       2.204   8.469  18.511  0.00  0.00    +0.000 A 
ATOM     11  C   UNL     1       1.100   9.336  18.680  0.00  0.00    +0.000 A 
ATOM     12  N   UNL     1       0.247  10.039  17.849  0.00  0.00    +0.000 N 
ATOM     13  H   UNL     1      -2.971   9.797  18.456  0.00  0.00    +0.000 HD
ATOM     14  H   UNL     1       0.357  10.194  16.858  0.00  0.00    +0.000 HD
ENDROOT
BRANCH   9  15
ATOM     15  C   UNL     1       2.965   6.183  19.338  0.00  0.00    +0.000 C 
ATOM     16  O   UNL     1       4.137   6.173  18.950  0.00  0.00    +0.000 OA
BRANCH  15  17
ATOM     17  C   UNL     1       2.248   4.855  19.486  0.00  0.00    +0.000 A 
ATOM     18  C   UNL     1       1.899   4.166  18.311  0.00  0.00    +0.000 A 
ATOM     19  C   UNL     1       1.166   2.974  18.360  0.00  0.00    +0.000 A 
ATOM     20  C   UNL     1       0.754   2.448  19.582  0.00  0.00    +0.000 A 
ATOM     21  C   UNL     1       1.122   3.091  20.757  0.00  0.00    +0.000 A 
ATOM     22  C   UNL     1       1.899   4.256  20.709  0.00  0.00    +0.000 A 
ENDBRANCH  15  17
ENDBRANCH   9  15
BRANCH   1  23
ATOM     23  C   UNL     1      -4.079  11.424  16.991  0.00  0.00    +0.000 C 
BRANCH  23  24
ATOM     24  N   UNL     1      -4.422  10.818  15.666  0.00  0.00    +0.000 NA
ATOM     25  H   UNL     1      -5.444  10.947  15.565  0.00  0.00    +0.000 HD
ATOM     26  H   UNL     1      -4.347   9.800  15.740  0.00  0.00    +0.000 HD
ENDBRANCH  23  24
BRANCH  23  27
ATOM     27  C   UNL     1      -4.860  10.788  18.155  0.00  0.00    +0.000 C 
BRANCH  27  28
ATOM     28  C   UNL     1      -6.049  11.579  18.608  0.00  0.00    +0.000 A 
ATOM     29  C   UNL     1      -6.962  12.277  17.845  0.00  0.00    +0.000 A 
ATOM     30  N   UNL     1      -7.801  12.883  18.739  0.00  0.00    +0.000 N 
ATOM     31  C   UNL     1      -7.376  12.546  19.993  0.00  0.00    +0.000 A 
ATOM     32  N   UNL     1      -6.325  11.754  19.946  0.00  0.00    +0.000 NA
ATOM     33  H   UNL     1      -8.579  13.489  18.516  0.00  0.00    +0.000 HD
ENDBRANCH  27  28
ENDBRANCH  23  27
ENDBRANCH   1  23
TORSDOF 6
ENDMDL
MODEL 9
REMARK VINA RESULT:      -8.3      5.427      7.802
REMARK  Name = 
REMARK  6 active torsions:
REMARK  status: ('A' for Active; 'I' for Inactive)
REMARK    1  A    between atoms: N_1  and  C_2
REMARK    2  A    between atoms: C_2  and  C_3
REMARK    3  A    between atoms: C_2  and  C_9
REMARK    4  A    between atoms: C_3  and  C_4
REMARK    5  A    between atoms: C_17  and  C_18
REMARK    6  A    between atoms: C_18  and  C_20
REMARK                            x       y       z     vdW  Elec       q    Type
REMARK                         _______ _______ _______ _____ _____    ______ ____
ROOT
ATOM      1  C   UNL     1       8.250   9.427  18.112  0.00  0.00    +0.000 C 
ATOM      2  O   UNL     1       7.361  10.158  17.686  0.00  0.00    +0.000 OA
ATOM      3  N   UNL     1       8.180   8.049  18.149  0.00  0.00    +0.000 N 
ATOM      4  C   UNL     1       7.267   7.392  17.365  0.00  0.00    +0.000 A 
ATOM      5  N   UNL     1       7.613   6.478  16.493  0.00  0.00    +0.000 NA
ATOM      6  C   UNL     1       6.449   5.858  16.162  0.00  0.00    +0.000 A 
ATOM      7  C   UNL     1       6.250   4.756  15.335  0.00  0.00    +0.000 A 
ATOM      8  C   UNL     1       5.718   3.772  16.162  0.00  0.00    +0.000 A 
ATOM      9  C   UNL     1       4.618   4.029  16.981  0.00  0.00    +0.000 A 
ATOM     10  C   UNL     1       4.328   5.390  17.291  0.00  0.00    +0.000 A 
ATOM     11  C   UNL     1       5.413   6.253  17.013  0.00  0.00    +0.000 A 
ATOM     12  N   UNL     1       5.891   7.450  17.516  0.00  0.00    +0.000 N 
ATOM     13  H   UNL     1       9.102   7.619  18.180  0.00  0.00    +0.000 HD
ATOM     14  H   UNL     1       5.417   8.071  18.154  0.00  0.00    +0.000 HD
ENDROOT
BRANCH   9  15
ATOM     15  C   UNL     1       3.937   2.908  17.713  0.00  0.00    +0.000 C 
ATOM     16  O   UNL     1       4.090   1.764  17.275  0.00  0.00    +0.000 OA
BRANCH  15  17
ATOM     17  C   UNL     1       3.025   3.103  18.909  0.00  0.00    +0.000 A 
ATOM     18  C   UNL     1       1.711   3.539  18.664  0.00  0.00    +0.000 A 
ATOM     19  C   UNL     1       0.832   3.818  19.718  0.00  0.00    +0.000 A 
ATOM     20  C   UNL     1       1.247   3.680  21.039  0.00  0.00    +0.000 A 
ATOM     21  C   UNL     1       2.528   3.213  21.303  0.00  0.00    +0.000 A 
ATOM     22  C   UNL     1       3.390   2.884  20.248  0.00  0.00    +0.000 A 
ENDBRANCH  15  17
ENDBRANCH   9  15
BRANCH   1  23
ATOM     23  C   UNL     1       9.576   9.963  18.726  0.00  0.00    +0.000 C 
BRANCH  23  24
ATOM     24  N   UNL     1      10.229  10.927  17.785  0.00  0.00    +0.000 NA
ATOM     25  H   UNL     1      11.108  11.211  18.253  0.00  0.00    +0.000 HD
ATOM     26  H   UNL     1       9.699  11.803  17.790  0.00  0.00    +0.000 HD
ENDBRANCH  23  24
BRANCH  23  27
ATOM     27  C   UNL     1       9.323  10.571  20.118  0.00  0.00    +0.000 C 
BRANCH  27  28
ATOM     28  C   UNL     1       9.711  12.014  20.242  0.00  0.00    +0.000 A 
ATOM     29  C   UNL     1       8.900  13.129  20.233  0.00  0.00    +0.000 A 
ATOM     30  N   UNL     1       9.747  14.200  20.301  0.00  0.00    +0.000 N 
ATOM     31  C   UNL     1      11.023  13.712  20.342  0.00  0.00    +0.000 A 
ATOM     32  N   UNL     1      11.032  12.395  20.315  0.00  0.00    +0.000 NA
ATOM     33  H   UNL     1       9.482  15.176  20.297  0.00  0.00    +0.000 HD
ENDBRANCH  27  28
ENDBRANCH  23  27
ENDBRANCH   1  23
TORSDOF 6
ENDMDL
