MODEL 1
REMARK VINA RESULT:      -7.5      0.000      0.000
REMARK  Name = 
REMARK  3 active torsions:
REMARK  status: ('A' for Active; 'I' for Inactive)
REMARK    1  A    between atoms: C_2  and  N_3
REMARK    2  A    between atoms: C_6  and  N_7
REMARK    3  A    between atoms: C_14  and  C_15
REMARK                            x       y       z     vdW  Elec       q    Type
REMARK                         _______ _______ _______ _____ _____    ______ ____
ROOT
ATOM      1  N   UNL     1       4.976   3.670  17.338  0.00  0.00    +0.000 N 
ATOM      2  C   UNL     1       4.772   3.663  18.693  0.00  0.00    +0.000 C 
ATOM      3  O   UNL     1       5.604   4.129  19.468  0.00  0.00    +0.000 OA
ATOM      4  N   UNL     1       3.570   3.137  19.110  0.00  0.00    +0.000 N 
ATOM      5  C   UNL     1       2.557   2.439  18.314  0.00  0.00    +0.000 C 
ATOM      6  C   UNL     1       1.157   3.050  18.507  0.00  0.00    +0.000 C 
ATOM      7  O   UNL     1       0.827   3.356  19.873  0.00  0.00    +0.000 OA
ATOM      8  C   UNL     1       1.848   4.132  20.554  0.00  0.00    +0.000 C 
ATOM      9  C   UNL     1       3.165   3.324  20.504  0.00  0.00    +0.000 C 
ATOM     10  H   UNL     1       4.122   3.873  16.845  0.00  0.00    +0.000 HD
ENDROOT
BRANCH   8  11
ATOM     11  C   UNL     1       1.917   5.576  20.055  0.00  0.00    +0.000 A 
ATOM     12  C   UNL     1       1.529   6.636  20.884  0.00  0.00    +0.000 A 
ATOM     13  C   UNL     1       1.558   7.959  20.435  0.00  0.00    +0.000 A 
ATOM     14  C   UNL     1       2.002   8.249  19.149  0.00  0.00    +0.000 A 
ATOM     15  C   UNL     1       2.430   7.216  18.320  0.00  0.00    +0.000 A 
ATOM     16  C   UNL     1       2.409   5.900  18.777  0.00  0.00    +0.000 A 
ENDBRANCH   8  11
BRANCH   1  20
ATOM     17  N   UNL     1       6.441   4.580  14.398  0.00  0.00    +0.000 N 
ATOM     18  C   UNL     1       5.388   5.506  14.852  0.00  0.00    +0.000 C 
ATOM     19  C   UNL     1       5.753   5.751  16.306  0.00  0.00    +0.000 C 
ATOM     20  C   UNL     1       6.150   4.363  16.800  0.00  0.00    +0.000 C 
ATOM     21  C   UNL     1       6.792   3.697  15.554  0.00  0.00    +0.000 C 
BRANCH  17  23
ATOM     22  N   UNL     1       7.078   4.169  12.022  0.00  0.00    +0.000 NA
ATOM     23  C   UNL     1       6.777   4.351  13.124  0.00  0.00    +0.000 C 
ENDBRANCH  17  23
ENDBRANCH   1  20
TORSDOF 3
ENDMDL
MODEL 2
REMARK VINA RESULT:      -7.5      0.063      1.026
REMARK  Name = 
REMARK  3 active torsions:
REMARK  status: ('A' for Active; 'I' for Inactive)
REMARK    1  A    between atoms: C_2  and  N_3
REMARK    2  A    between atoms: C_6  and  N_7
REMARK    3  A    between atoms: C_14  and  C_15
REMARK                            x       y       z     vdW  Elec       q    Type
REMARK                         _______ _______ _______ _____ _____    ______ ____
ROOT
ATOM      1  N   UNL     1       4.998   3.653  17.341  0.00  0.00    +0.000 N 
ATOM      2  C   UNL     1       4.790   3.631  18.695  0.00  0.00    +0.000 C 
ATOM      3  O   UNL     1       5.615   4.098  19.476  0.00  0.00    +0.000 OA
ATOM      4  N   UNL     1       3.592   3.091  19.103  0.00  0.00    +0.000 N 
ATOM      5  C   UNL     1       2.588   2.391  18.297  0.00  0.00    +0.000 C 
ATOM      6  C   UNL     1       1.182   2.987  18.491  0.00  0.00    +0.000 C 
ATOM      7  O   UNL     1       0.844   3.278  19.859  0.00  0.00    +0.000 OA
ATOM      8  C   UNL     1       1.856   4.056  20.550  0.00  0.00    +0.000 C 
ATOM      9  C   UNL     1       3.181   3.261  20.497  0.00  0.00    +0.000 C 
ATOM     10  H   UNL     1       4.144   3.852  16.846  0.00  0.00    +0.000 HD
ENDROOT
BRANCH   8  11
ATOM     11  C   UNL     1       1.913   5.506  20.065  0.00  0.00    +0.000 A 
ATOM     12  C   UNL     1       2.339   5.807  18.766  0.00  0.00    +0.000 A 
ATOM     13  C   UNL     1       2.424   7.128  18.317  0.00  0.00    +0.000 A 
ATOM     14  C   UNL     1       2.059   8.175  19.156  0.00  0.00    +0.000 A 
ATOM     15  C   UNL     1       1.594   7.898  20.438  0.00  0.00    +0.000 A 
ATOM     16  C   UNL     1       1.501   6.579  20.878  0.00  0.00    +0.000 A 
ENDBRANCH   8  11
BRANCH   1  20
ATOM     17  N   UNL     1       6.461   4.608  14.413  0.00  0.00    +0.000 N 
ATOM     18  C   UNL     1       5.400   5.520  14.876  0.00  0.00    +0.000 C 
ATOM     19  C   UNL     1       5.760   5.752  16.333  0.00  0.00    +0.000 C 
ATOM     20  C   UNL     1       6.167   4.362  16.813  0.00  0.00    +0.000 C 
ATOM     21  C   UNL     1       6.817   3.715  15.560  0.00  0.00    +0.000 C 
BRANCH  17  23
ATOM     22  N   UNL     1       7.114   4.214  12.039  0.00  0.00    +0.000 NA
ATOM     23  C   UNL     1       6.802   4.396  13.138  0.00  0.00    +0.000 C 
ENDBRANCH  17  23
ENDBRANCH   1  20
TORSDOF 3
ENDMDL
MODEL 3
REMARK VINA RESULT:      -6.7      8.011      9.947
REMARK  Name = 
REMARK  3 active torsions:
REMARK  status: ('A' for Active; 'I' for Inactive)
REMARK    1  A    between atoms: C_2  and  N_3
REMARK    2  A    between atoms: C_6  and  N_7
REMARK    3  A    between atoms: C_14  and  C_15
REMARK                            x       y       z     vdW  Elec       q    Type
REMARK                         _______ _______ _______ _____ _____    ______ ____
ROOT
ATOM      1  N   UNL     1      -2.530  12.113  18.016  0.00  0.00    +0.000 N 
ATOM      2  C   UNL     1      -2.549  12.595  19.298  0.00  0.00    +0.000 C 
ATOM      3  O   UNL     1      -3.490  12.365  20.054  0.00  0.00    +0.000 OA
ATOM      4  N   UNL     1      -1.437  13.310  19.679  0.00  0.00    +0.000 N 
ATOM      5  C   UNL     1      -0.317  13.762  18.850  0.00  0.00    +0.000 C 
ATOM      6  C   UNL     1       1.041  13.349  19.448  0.00  0.00    +0.000 C 
ATOM      7  O   UNL     1       1.149  13.549  20.868  0.00  0.00    +0.000 OA
ATOM      8  C   UNL     1       0.040  12.985  21.616  0.00  0.00    +0.000 C 
ATOM      9  C   UNL     1      -1.261  13.637  21.095  0.00  0.00    +0.000 C 
ATOM     10  H   UNL     1      -1.605  11.812  17.755  0.00  0.00    +0.000 HD
ENDROOT
BRANCH   8  11
ATOM     11  C   UNL     1       0.071  11.456  21.646  0.00  0.00    +0.000 A 
ATOM     12  C   UNL     1       0.764  10.738  20.664  0.00  0.00    +0.000 A 
ATOM     13  C   UNL     1       0.778   9.340  20.660  0.00  0.00    +0.000 A 
ATOM     14  C   UNL     1       0.115   8.633  21.658  0.00  0.00    +0.000 A 
ATOM     15  C   UNL     1      -0.547   9.325  22.666  0.00  0.00    +0.000 A 
ATOM     16  C   UNL     1      -0.549  10.719  22.672  0.00  0.00    +0.000 A 
ENDBRANCH   8  11
BRANCH   1  20
ATOM     17  N   UNL     1      -3.550  10.252  15.347  0.00  0.00    +0.000 N 
ATOM     18  C   UNL     1      -2.532   9.589  16.183  0.00  0.00    +0.000 C 
ATOM     19  C   UNL     1      -3.080   9.764  17.590  0.00  0.00    +0.000 C 
ATOM     20  C   UNL     1      -3.593  11.201  17.584  0.00  0.00    +0.000 C 
ATOM     21  C   UNL     1      -4.087  11.411  16.127  0.00  0.00    +0.000 C 
BRANCH  17  23
ATOM     22  N   UNL     1      -3.876   9.912  12.898  0.00  0.00    +0.000 NA
ATOM     23  C   UNL     1      -3.720  10.061  14.035  0.00  0.00    +0.000 C 
ENDBRANCH  17  23
ENDBRANCH   1  20
TORSDOF 3
ENDMDL
MODEL 4
REMARK VINA RESULT:      -6.6      8.117     10.036
REMARK  Name = 
REMARK  3 active torsions:
REMARK  status: ('A' for Active; 'I' for Inactive)
REMARK    1  A    between atoms: C_2  and  N_3
REMARK    2  A    between atoms: C_6  and  N_7
REMARK    3  A    between atoms: C_14  and  C_15
REMARK                            x       y       z     vdW  Elec       q    Type
REMARK                         _______ _______ _______ _____ _____    ______ ____
ROOT
ATOM      1  N   UNL     1      -2.742  12.187  18.302  0.00  0.00    +0.000 N 
ATOM      2  C   UNL     1      -2.791  12.595  19.610  0.00  0.00    +0.000 C 
ATOM      3  O   UNL     1      -3.706  12.252  20.353  0.00  0.00    +0.000 OA
ATOM      4  N   UNL     1      -1.735  13.371  20.028  0.00  0.00    +0.000 N 
ATOM      5  C   UNL     1      -0.657  13.953  19.224  0.00  0.00    +0.000 C 
ATOM      6  C   UNL     1       0.731  13.614  19.796  0.00  0.00    +0.000 C 
ATOM      7  O   UNL     1       0.832  13.743  21.225  0.00  0.00    +0.000 OA
ATOM      8  C   UNL     1      -0.226  13.055  21.942  0.00  0.00    +0.000 C 
ATOM      9  C   UNL     1      -1.576  13.632  21.460  0.00  0.00    +0.000 C 
ATOM     10  H   UNL     1      -1.798  11.974  18.024  0.00  0.00    +0.000 HD
ENDROOT
BRANCH   8  11
ATOM     11  C   UNL     1      -0.078  11.533  21.887  0.00  0.00    +0.000 A 
ATOM     12  C   UNL     1      -0.727  10.719  22.823  0.00  0.00    +0.000 A 
ATOM     13  C   UNL     1      -0.579   9.329  22.803  0.00  0.00    +0.000 A 
ATOM     14  C   UNL     1       0.205   8.724  21.826  0.00  0.00    +0.000 A 
ATOM     15  C   UNL     1       0.827   9.510  20.861  0.00  0.00    +0.000 A 
ATOM     16  C   UNL     1       0.668  10.895  20.878  0.00  0.00    +0.000 A 
ENDBRANCH   8  11
BRANCH   1  20
ATOM     17  N   UNL     1      -3.555  10.306  15.578  0.00  0.00    +0.000 N 
ATOM     18  C   UNL     1      -2.532   9.692  16.444  0.00  0.00    +0.000 C 
ATOM     19  C   UNL     1      -3.139   9.816  17.831  0.00  0.00    +0.000 C 
ATOM     20  C   UNL     1      -3.734  11.221  17.822  0.00  0.00    +0.000 C 
ATOM     21  C   UNL     1      -4.187  11.421  16.350  0.00  0.00    +0.000 C 
BRANCH  17  23
ATOM     22  N   UNL     1      -3.780   9.956  13.119  0.00  0.00    +0.000 NA
ATOM     23  C   UNL     1      -3.667  10.122  14.259  0.00  0.00    +0.000 C 
ENDBRANCH  17  23
ENDBRANCH   1  20
TORSDOF 3
ENDMDL
MODEL 5
REMARK VINA RESULT:      -6.5      3.381      6.595
REMARK  Name = 
REMARK  3 active torsions:
REMARK  status: ('A' for Active; 'I' for Inactive)
REMARK    1  A    between atoms: C_2  and  N_3
REMARK    2  A    between atoms: C_6  and  N_7
REMARK    3  A    between atoms: C_14  and  C_15
REMARK                            x       y       z     vdW  Elec       q    Type
REMARK                         _______ _______ _______ _____ _____    ______ ____
ROOT
ATOM      1  N   UNL     1       2.178   7.066  20.208  0.00  0.00    +0.000 N 
ATOM      2  C   UNL     1       2.255   6.574  18.931  0.00  0.00    +0.000 C 
ATOM      3  O   UNL     1       2.131   7.308  17.954  0.00  0.00    +0.000 OA
ATOM      4  N   UNL     1       2.516   5.227  18.830  0.00  0.00    +0.000 N 
ATOM      5  C   UNL     1       2.556   4.224  19.898  0.00  0.00    +0.000 C 
ATOM      6  C   UNL     1       3.862   3.409  19.868  0.00  0.00    +0.000 C 
ATOM      7  O   UNL     1       4.268   2.988  18.553  0.00  0.00    +0.000 OA
ATOM      8  C   UNL     1       4.288   4.068  17.583  0.00  0.00    +0.000 C 
ATOM      9  C   UNL     1       2.867   4.673  17.521  0.00  0.00    +0.000 C 
ATOM     10  H   UNL     1       2.851   6.621  20.809  0.00  0.00    +0.000 HD
ENDROOT
BRANCH   8  11
ATOM     11  C   UNL     1       5.436   5.050  17.822  0.00  0.00    +0.000 A 
ATOM     12  C   UNL     1       5.495   6.263  17.125  0.00  0.00    +0.000 A 
ATOM     13  C   UNL     1       6.552   7.158  17.311  0.00  0.00    +0.000 A 
ATOM     14  C   UNL     1       7.562   6.866  18.222  0.00  0.00    +0.000 A 
ATOM     15  C   UNL     1       7.504   5.685  18.956  0.00  0.00    +0.000 A 
ATOM     16  C   UNL     1       6.442   4.800  18.775  0.00  0.00    +0.000 A 
ENDBRANCH   8  11
BRANCH   1  20
ATOM     17  N   UNL     1      -0.020   9.659  19.943  0.00  0.00    +0.000 N 
ATOM     18  C   UNL     1      -0.141   8.900  21.201  0.00  0.00    +0.000 C 
ATOM     19  C   UNL     1       1.296   8.810  21.685  0.00  0.00    +0.000 C 
ATOM     20  C   UNL     1       2.073   8.515  20.405  0.00  0.00    +0.000 C 
ATOM     21  C   UNL     1       1.278   9.272  19.307  0.00  0.00    +0.000 C 
BRANCH  17  23
ATOM     22  N   UNL     1      -1.884  10.872  18.814  0.00  0.00    +0.000 NA
ATOM     23  C   UNL     1      -1.016  10.307  19.329  0.00  0.00    +0.000 C 
ENDBRANCH  17  23
ENDBRANCH   1  20
TORSDOF 3
ENDMDL
MODEL 6
REMARK VINA RESULT:      -6.4      3.363      6.573
REMARK  Name = 
REMARK  3 active torsions:
REMARK  status: ('A' for Active; 'I' for Inactive)
REMARK    1  A    between atoms: C_2  and  N_3
REMARK    2  A    between atoms: C_6  and  N_7
REMARK    3  A    between atoms: C_14  and  C_15
REMARK                            x       y       z     vdW  Elec       q    Type
REMARK                         _______ _______ _______ _____ _____    ______ ____
ROOT
ATOM      1  N   UNL     1       2.193   7.059  20.189  0.00  0.00    +0.000 N 
ATOM      2  C   UNL     1       2.242   6.560  18.914  0.00  0.00    +0.000 C 
ATOM      3  O   UNL     1       2.095   7.289  17.936  0.00  0.00    +0.000 OA
ATOM      4  N   UNL     1       2.503   5.213  18.813  0.00  0.00    +0.000 N 
ATOM      5  C   UNL     1       2.570   4.216  19.885  0.00  0.00    +0.000 C 
ATOM      6  C   UNL     1       3.876   3.402  19.828  0.00  0.00    +0.000 C 
ATOM      7  O   UNL     1       4.252   2.976  18.507  0.00  0.00    +0.000 OA
ATOM      8  C   UNL     1       4.248   4.051  17.531  0.00  0.00    +0.000 C 
ATOM      9  C   UNL     1       2.825   4.653  17.499  0.00  0.00    +0.000 C 
ATOM     10  H   UNL     1       2.881   6.617  20.777  0.00  0.00    +0.000 HD
ENDROOT
BRANCH   8  11
ATOM     11  C   UNL     1       5.399   5.036  17.739  0.00  0.00    +0.000 A 
ATOM     12  C   UNL     1       6.482   4.704  18.563  0.00  0.00    +0.000 A 
ATOM     13  C   UNL     1       7.528   5.603  18.787  0.00  0.00    +0.000 A 
ATOM     14  C   UNL     1       7.522   6.849  18.167  0.00  0.00    +0.000 A 
ATOM     15  C   UNL     1       6.477   7.186  17.312  0.00  0.00    +0.000 A 
ATOM     16  C   UNL     1       5.441   6.282  17.084  0.00  0.00    +0.000 A 
ENDBRANCH   8  11
BRANCH   1  20
ATOM     17  N   UNL     1      -0.008   9.650  19.937  0.00  0.00    +0.000 N 
ATOM     18  C   UNL     1      -0.115   8.896  21.200  0.00  0.00    +0.000 C 
ATOM     19  C   UNL     1       1.327   8.809  21.669  0.00  0.00    +0.000 C 
ATOM     20  C   UNL     1       2.091   8.508  20.382  0.00  0.00    +0.000 C 
ATOM     21  C   UNL     1       1.284   9.260  19.289  0.00  0.00    +0.000 C 
BRANCH  17  23
ATOM     22  N   UNL     1      -1.879  10.865  18.822  0.00  0.00    +0.000 NA
ATOM     23  C   UNL     1      -1.009  10.296  19.332  0.00  0.00    +0.000 C 
ENDBRANCH  17  23
ENDBRANCH   1  20
TORSDOF 3
ENDMDL
MODEL 7
REMARK VINA RESULT:      -6.1     10.286     12.875
REMARK  Name = 
REMARK  3 active torsions:
REMARK  status: ('A' for Active; 'I' for Inactive)
REMARK    1  A    between atoms: C_2  and  N_3
REMARK    2  A    between atoms: C_6  and  N_7
REMARK    3  A    between atoms: C_14  and  C_15
REMARK                            x       y       z     vdW  Elec       q    Type
REMARK                         _______ _______ _______ _____ _____    ______ ____
ROOT
ATOM      1  N   UNL     1       8.027  13.959  22.254  0.00  0.00    +0.000 N 
ATOM      2  C   UNL     1       8.986  14.837  21.821  0.00  0.00    +0.000 C 
ATOM      3  O   UNL     1       9.993  15.063  22.486  0.00  0.00    +0.000 OA
ATOM      4  N   UNL     1       8.756  15.405  20.589  0.00  0.00    +0.000 N 
ATOM      5  C   UNL     1       7.551  15.323  19.759  0.00  0.00    +0.000 C 
ATOM      6  C   UNL     1       7.876  14.877  18.322  0.00  0.00    +0.000 C 
ATOM      7  O   UNL     1       9.029  15.516  17.748  0.00  0.00    +0.000 OA
ATOM      8  C   UNL     1      10.202  15.464  18.603  0.00  0.00    +0.000 C 
ATOM      9  C   UNL     1       9.840  16.146  19.942  0.00  0.00    +0.000 C 
ATOM     10  H   UNL     1       7.663  13.413  21.490  0.00  0.00    +0.000 HD
ENDROOT
BRANCH   8  11
ATOM     11  C   UNL     1      10.799  14.059  18.694  0.00  0.00    +0.000 A 
ATOM     12  C   UNL     1      10.522  13.101  17.712  0.00  0.00    +0.000 A 
ATOM     13  C   UNL     1      11.036  11.804  17.795  0.00  0.00    +0.000 A 
ATOM     14  C   UNL     1      11.862  11.448  18.856  0.00  0.00    +0.000 A 
ATOM     15  C   UNL     1      12.184  12.394  19.824  0.00  0.00    +0.000 A 
ATOM     16  C   UNL     1      11.678  13.690  19.731  0.00  0.00    +0.000 A 
ENDBRANCH   8  11
BRANCH   1  20
ATOM     17  N   UNL     1       6.450  12.722  25.012  0.00  0.00    +0.000 N 
ATOM     18  C   UNL     1       6.308  11.876  23.814  0.00  0.00    +0.000 C 
ATOM     19  C   UNL     1       7.735  11.765  23.304  0.00  0.00    +0.000 C 
ATOM     20  C   UNL     1       8.273  13.183  23.473  0.00  0.00    +0.000 C 
ATOM     21  C   UNL     1       7.547  13.704  24.742  0.00  0.00    +0.000 C 
BRANCH  17  23
ATOM     22  N   UNL     1       4.790  12.876  26.867  0.00  0.00    +0.000 NA
ATOM     23  C   UNL     1       5.562  12.814  26.008  0.00  0.00    +0.000 C 
ENDBRANCH  17  23
ENDBRANCH   1  20
TORSDOF 3
ENDMDL
MODEL 8
REMARK VINA RESULT:      -6.1     10.258     12.832
REMARK  Name = 
REMARK  3 active torsions:
REMARK  status: ('A' for Active; 'I' for Inactive)
REMARK    1  A    between atoms: C_2  and  N_3
REMARK    2  A    between atoms: C_6  and  N_7
REMARK    3  A    between atoms: C_14  and  C_15
REMARK                            x       y       z     vdW  Elec       q    Type
REMARK                         _______ _______ _______ _____ _____    ______ ____
ROOT
ATOM      1  N   UNL     1       8.005  13.966  22.225  0.00  0.00    +0.000 N 
ATOM      2  C   UNL     1       8.984  14.821  21.790  0.00  0.00    +0.000 C 
ATOM      3  O   UNL     1      10.001  15.017  22.450  0.00  0.00    +0.000 OA
ATOM      4  N   UNL     1       8.762  15.402  20.563  0.00  0.00    +0.000 N 
ATOM      5  C   UNL     1       7.551  15.357  19.740  0.00  0.00    +0.000 C 
ATOM      6  C   UNL     1       7.855  14.910  18.298  0.00  0.00    +0.000 C 
ATOM      7  O   UNL     1       9.022  15.521  17.721  0.00  0.00    +0.000 OA
ATOM      8  C   UNL     1      10.198  15.434  18.568  0.00  0.00    +0.000 C 
ATOM      9  C   UNL     1       9.861  16.118  19.913  0.00  0.00    +0.000 C 
ATOM     10  H   UNL     1       7.623  13.435  21.460  0.00  0.00    +0.000 HD
ENDROOT
BRANCH   8  11
ATOM     11  C   UNL     1      10.758  14.014  18.649  0.00  0.00    +0.000 A 
ATOM     12  C   UNL     1      11.651  13.655  19.666  0.00  0.00    +0.000 A 
ATOM     13  C   UNL     1      12.195  12.370  19.737  0.00  0.00    +0.000 A 
ATOM     14  C   UNL     1      11.833  11.406  18.800  0.00  0.00    +0.000 A 
ATOM     15  C   UNL     1      10.917  11.727  17.804  0.00  0.00    +0.000 A 
ATOM     16  C   UNL     1      10.370  13.008  17.743  0.00  0.00    +0.000 A 
ENDBRANCH   8  11
BRANCH   1  20
ATOM     17  N   UNL     1       6.416  12.768  24.992  0.00  0.00    +0.000 N 
ATOM     18  C   UNL     1       6.236  11.932  23.792  0.00  0.00    +0.000 C 
ATOM     19  C   UNL     1       7.653  11.778  23.267  0.00  0.00    +0.000 C 
ATOM     20  C   UNL     1       8.238  13.177  23.437  0.00  0.00    +0.000 C 
ATOM     21  C   UNL     1       7.541  13.716  24.716  0.00  0.00    +0.000 C 
BRANCH  17  23
ATOM     22  N   UNL     1       4.794  12.973  26.875  0.00  0.00    +0.000 NA
ATOM     23  C   UNL     1       5.541  12.883  25.996  0.00  0.00    +0.000 C 
ENDBRANCH  17  23
ENDBRANCH   1  20
TORSDOF 3
ENDMDL
MODEL 9
REMARK VINA RESULT:      -6.1      9.660     12.063
REMARK  Name = 
REMARK  3 active torsions:
REMARK  status: ('A' for Active; 'I' for Inactive)
REMARK    1  A    between atoms: C_2  and  N_3
REMARK    2  A    between atoms: C_6  and  N_7
REMARK    3  A    between atoms: C_14  and  C_15
REMARK                            x       y       z     vdW  Elec       q    Type
REMARK                         _______ _______ _______ _____ _____    ______ ____
ROOT
ATOM      1  N   UNL     1       9.614  11.896  21.835  0.00  0.00    +0.000 N 
ATOM      2  C   UNL     1       9.620  11.334  20.585  0.00  0.00    +0.000 C 
ATOM      3  O   UNL     1       8.673  10.664  20.181  0.00  0.00    +0.000 OA
ATOM      4  N   UNL     1      10.730  11.604  19.819  0.00  0.00    +0.000 N 
ATOM      5  C   UNL     1      11.972  12.271  20.218  0.00  0.00    +0.000 C 
ATOM      6  C   UNL     1      12.333  13.426  19.267  0.00  0.00    +0.000 C 
ATOM      7  O   UNL     1      12.170  13.118  17.871  0.00  0.00    +0.000 OA
ATOM      8  C   UNL     1      10.872  12.548  17.554  0.00  0.00    +0.000 C 
ATOM      9  C   UNL     1      10.704  11.263  18.396  0.00  0.00    +0.000 C 
ATOM     10  H   UNL     1      10.024  12.816  21.821  0.00  0.00    +0.000 HD
ENDROOT
BRANCH   8  11
ATOM     11  C   UNL     1       9.743  13.575  17.648  0.00  0.00    +0.000 A 
ATOM     12  C   UNL     1       8.404  13.164  17.664  0.00  0.00    +0.000 A 
ATOM     13  C   UNL     1       7.359  14.090  17.719  0.00  0.00    +0.000 A 
ATOM     14  C   UNL     1       7.637  15.452  17.786  0.00  0.00    +0.000 A 
ATOM     15  C   UNL     1       8.960  15.883  17.812  0.00  0.00    +0.000 A 
ATOM     16  C   UNL     1       9.999  14.955  17.766  0.00  0.00    +0.000 A 
ENDBRANCH   8  11
BRANCH   1  20
ATOM     17  N   UNL     1       8.202  13.102  24.694  0.00  0.00    +0.000 N 
ATOM     18  C   UNL     1       8.039  13.988  23.527  0.00  0.00    +0.000 C 
ATOM     19  C   UNL     1       7.539  13.044  22.448  0.00  0.00    +0.000 C 
ATOM     20  C   UNL     1       8.401  11.801  22.651  0.00  0.00    +0.000 C 
ATOM     21  C   UNL     1       8.641  11.765  24.184  0.00  0.00    +0.000 C 
BRANCH  17  23
ATOM     22  N   UNL     1       8.310  13.835  27.075  0.00  0.00    +0.000 NA
ATOM     23  C   UNL     1       8.268  13.500  25.969  0.00  0.00    +0.000 C 
ENDBRANCH  17  23
ENDBRANCH   1  20
TORSDOF 3
ENDMDL
