MODEL 1
REMARK VINA RESULT:      -8.6      0.000      0.000
REMARK  Name = 
REMARK  7 active torsions:
REMARK  status: ('A' for Active; 'I' for Inactive)
REMARK    1  A    between atoms: C_1  and  O_2
REMARK    2  A    between atoms: O_2  and  C_3
REMARK    3  A    between atoms: C_7  and  N_8
REMARK    4  A    between atoms: N_8  and  C_9
REMARK    5  A    between atoms: C_9  and  C_10
REMARK    6  A    between atoms: C_9  and  C_21
REMARK    7  A    between atoms: C_10  and  C_12
REMARK                            x       y       z     vdW  Elec       q    Type
REMARK                         _______ _______ _______ _____ _____    ______ ____
ROOT
ATOM      1  C   UNL     1       3.226   7.693  18.326  0.00  0.00    +0.000 C 
ENDROOT
BRANCH   1   2
ATOM      2  C   UNL     1       2.597   6.406  18.780  0.00  0.00    +0.000 A 
ATOM      3  N   UNL     1       2.020   5.518  17.979  0.00  0.00    +0.000 NA
ATOM      4  C   UNL     1       1.701   4.482  18.809  0.00  0.00    +0.000 A 
ATOM      5  C   UNL     1       1.085   3.253  18.545  0.00  0.00    +0.000 A 
ATOM      6  C   UNL     1       0.859   2.380  19.616  0.00  0.00    +0.000 A 
ATOM      7  C   UNL     1       1.254   2.714  20.917  0.00  0.00    +0.000 A 
ATOM      8  C   UNL     1       1.895   3.939  21.194  0.00  0.00    +0.000 A 
ATOM      9  C   UNL     1       2.090   4.778  20.111  0.00  0.00    +0.000 A 
ATOM     10  O   UNL     1       2.678   6.023  20.093  0.00  0.00    +0.000 OA
ENDBRANCH   1   2
BRANCH   1  11
ATOM     11  N   UNL     1       4.186   7.524  17.212  0.00  0.00    +0.000 N 
ATOM     12  H   UNL     1       3.730   7.758  16.322  0.00  0.00    +0.000 HD
BRANCH  11  17
ATOM     13  C   UNL     1       6.943   5.088  17.788  0.00  0.00    +0.000 A 
ATOM     14  C   UNL     1       7.022   4.507  16.527  0.00  0.00    +0.000 A 
ATOM     15  C   UNL     1       6.093   4.851  15.549  0.00  0.00    +0.000 A 
ATOM     16  C   UNL     1       5.116   5.809  15.824  0.00  0.00    +0.000 A 
ATOM     17  C   UNL     1       5.022   6.416  17.083  0.00  0.00    +0.000 A 
ATOM     18  C   UNL     1       5.913   5.990  18.072  0.00  0.00    +0.000 A 
BRANCH  13  20
ATOM     19  C   UNL     1       8.066   5.608  19.794  0.00  0.00    +0.000 C 
ATOM     20  O   UNL     1       7.924   4.733  18.679  0.00  0.00    +0.000 OA
ENDBRANCH  13  20
ENDBRANCH  11  17
ENDBRANCH   1  11
BRANCH   1  21
ATOM     21  C   UNL     1       2.193   8.794  18.152  0.00  0.00    +0.000 C 
ATOM     22  O   UNL     1       2.241   9.400  17.053  0.00  0.00    +0.000 OA
BRANCH  21  23
ATOM     23  C   UNL     1       1.147   9.211  19.077  0.00  0.00    +0.000 A 
ATOM     24  C   UNL     1      -0.052   9.673  18.559  0.00  0.00    +0.000 A 
ATOM     25  N   UNL     1      -0.632  10.456  19.505  0.00  0.00    +0.000 N 
ATOM     26  C   UNL     1      -0.201  10.043  20.730  0.00  0.00    +0.000 A 
ATOM     27  C   UNL     1      -0.761  10.311  21.982  0.00  0.00    +0.000 A 
ATOM     28  C   UNL     1      -0.146   9.751  23.089  0.00  0.00    +0.000 A 
ATOM     29  C   UNL     1       1.037   9.027  22.944  0.00  0.00    +0.000 A 
ATOM     30  C   UNL     1       1.623   8.813  21.676  0.00  0.00    +0.000 A 
ATOM     31  C   UNL     1       0.962   9.283  20.521  0.00  0.00    +0.000 A 
ATOM     32  H   UNL     1      -1.371  11.131  19.341  0.00  0.00    +0.000 HD
ENDBRANCH  21  23
ENDBRANCH   1  21
TORSDOF 6
ENDMDL
MODEL 2
REMARK VINA RESULT:      -8.5      1.269      2.090
REMARK  Name = 
REMARK  7 active torsions:
REMARK  status: ('A' for Active; 'I' for Inactive)
REMARK    1  A    between atoms: C_1  and  O_2
REMARK    2  A    between atoms: O_2  and  C_3
REMARK    3  A    between atoms: C_7  and  N_8
REMARK    4  A    between atoms: N_8  and  C_9
REMARK    5  A    between atoms: C_9  and  C_10
REMARK    6  A    between atoms: C_9  and  C_21
REMARK    7  A    between atoms: C_10  and  C_12
REMARK                            x       y       z     vdW  Elec       q    Type
REMARK                         _______ _______ _______ _____ _____    ______ ____
ROOT
ATOM      1  C   UNL     1       3.056   7.757  18.277  0.00  0.00    +0.000 C 
ENDROOT
BRANCH   1   2
ATOM      2  C   UNL     1       2.655   6.411  18.811  0.00  0.00    +0.000 A 
ATOM      3  N   UNL     1       2.685   6.061  20.091  0.00  0.00    +0.000 NA
ATOM      4  C   UNL     1       2.137   4.811  20.106  0.00  0.00    +0.000 A 
ATOM      5  C   UNL     1       1.889   3.932  21.167  0.00  0.00    +0.000 A 
ATOM      6  C   UNL     1       1.328   2.683  20.877  0.00  0.00    +0.000 A 
ATOM      7  C   UNL     1       1.002   2.324  19.563  0.00  0.00    +0.000 A 
ATOM      8  C   UNL     1       1.226   3.207  18.488  0.00  0.00    +0.000 A 
ATOM      9  C   UNL     1       1.792   4.427  18.814  0.00  0.00    +0.000 A 
ATOM     10  O   UNL     1       2.121   5.466  17.973  0.00  0.00    +0.000 OA
ENDBRANCH   1   2
BRANCH   1  11
ATOM     11  N   UNL     1       3.961   7.687  17.108  0.00  0.00    +0.000 N 
ATOM     12  H   UNL     1       3.411   7.704  16.242  0.00  0.00    +0.000 HD
BRANCH  11  17
ATOM     13  C   UNL     1       6.017   4.708  16.232  0.00  0.00    +0.000 A 
ATOM     14  C   UNL     1       6.950   4.745  17.262  0.00  0.00    +0.000 A 
ATOM     15  C   UNL     1       6.950   5.813  18.156  0.00  0.00    +0.000 A 
ATOM     16  C   UNL     1       5.986   6.815  18.043  0.00  0.00    +0.000 A 
ATOM     17  C   UNL     1       5.028   6.795  17.020  0.00  0.00    +0.000 A 
ATOM     18  C   UNL     1       5.105   5.758  16.086  0.00  0.00    +0.000 A 
BRANCH  13  20
ATOM     19  C   UNL     1       6.207   3.875  14.035  0.00  0.00    +0.000 C 
ATOM     20  O   UNL     1       6.052   3.600  15.424  0.00  0.00    +0.000 OA
ENDBRANCH  13  20
ENDBRANCH  11  17
ENDBRANCH   1  11
BRANCH   1  21
ATOM     21  C   UNL     1       1.861   8.686  18.138  0.00  0.00    +0.000 C 
ATOM     22  O   UNL     1       1.292   8.658  17.018  0.00  0.00    +0.000 OA
BRANCH  21  23
ATOM     23  C   UNL     1       1.280   9.573  19.138  0.00  0.00    +0.000 A 
ATOM     24  C   UNL     1       1.228  10.932  18.870  0.00  0.00    +0.000 A 
ATOM     25  N   UNL     1       1.156  11.581  20.061  0.00  0.00    +0.000 N 
ATOM     26  C   UNL     1       0.575  10.750  20.971  0.00  0.00    +0.000 A 
ATOM     27  C   UNL     1      -0.002  11.078  22.202  0.00  0.00    +0.000 A 
ATOM     28  C   UNL     1      -0.554  10.046  22.942  0.00  0.00    +0.000 A 
ATOM     29  C   UNL     1      -0.448   8.729  22.499  0.00  0.00    +0.000 A 
ATOM     30  C   UNL     1       0.190   8.407  21.280  0.00  0.00    +0.000 A 
ATOM     31  C   UNL     1       0.670   9.446  20.455  0.00  0.00    +0.000 A 
ATOM     32  H   UNL     1       1.361  12.563  20.211  0.00  0.00    +0.000 HD
ENDBRANCH  21  23
ENDBRANCH   1  21
TORSDOF 6
ENDMDL
MODEL 3
REMARK VINA RESULT:      -8.4      1.097      1.736
REMARK  Name = 
REMARK  7 active torsions:
REMARK  status: ('A' for Active; 'I' for Inactive)
REMARK    1  A    between atoms: C_1  and  O_2
REMARK    2  A    between atoms: O_2  and  C_3
REMARK    3  A    between atoms: C_7  and  N_8
REMARK    4  A    between atoms: N_8  and  C_9
REMARK    5  A    between atoms: C_9  and  C_10
REMARK    6  A    between atoms: C_9  and  C_21
REMARK    7  A    between atoms: C_10  and  C_12
REMARK                            x       y       z     vdW  Elec       q    Type
REMARK                         _______ _______ _______ _____ _____    ______ ____
ROOT
ATOM      1  C   UNL     1       3.013   7.676  18.368  0.00  0.00    +0.000 C 
ENDROOT
BRANCH   1   2
ATOM      2  C   UNL     1       2.481   6.354  18.845  0.00  0.00    +0.000 A 
ATOM      3  N   UNL     1       2.025   5.389  18.056  0.00  0.00    +0.000 NA
ATOM      4  C   UNL     1       1.762   4.359  18.911  0.00  0.00    +0.000 A 
ATOM      5  C   UNL     1       1.272   3.069  18.669  0.00  0.00    +0.000 A 
ATOM      6  C   UNL     1       1.075   2.218  19.763  0.00  0.00    +0.000 A 
ATOM      7  C   UNL     1       1.377   2.632  21.066  0.00  0.00    +0.000 A 
ATOM      8  C   UNL     1       1.890   3.920  21.322  0.00  0.00    +0.000 A 
ATOM      9  C   UNL     1       2.060   4.735  20.216  0.00  0.00    +0.000 A 
ATOM     10  O   UNL     1       2.534   6.027  20.175  0.00  0.00    +0.000 OA
ENDBRANCH   1   2
BRANCH   1  11
ATOM     11  N   UNL     1       3.984   7.561  17.258  0.00  0.00    +0.000 N 
ATOM     12  H   UNL     1       3.483   7.429  16.371  0.00  0.00    +0.000 HD
BRANCH  11  17
ATOM     13  C   UNL     1       6.758   5.271  16.294  0.00  0.00    +0.000 A 
ATOM     14  C   UNL     1       7.095   4.759  17.542  0.00  0.00    +0.000 A 
ATOM     15  C   UNL     1       6.479   5.262  18.684  0.00  0.00    +0.000 A 
ATOM     16  C   UNL     1       5.493   6.243  18.569  0.00  0.00    +0.000 A 
ATOM     17  C   UNL     1       5.129   6.768  17.322  0.00  0.00    +0.000 A 
ATOM     18  C   UNL     1       5.824   6.307  16.200  0.00  0.00    +0.000 A 
BRANCH  13  20
ATOM     19  C   UNL     1       6.491   4.103  14.264  0.00  0.00    +0.000 C 
ATOM     20  O   UNL     1       7.374   4.689  15.216  0.00  0.00    +0.000 OA
ENDBRANCH  13  20
ENDBRANCH  11  17
ENDBRANCH   1  11
BRANCH   1  21
ATOM     21  C   UNL     1       1.900   8.694  18.176  0.00  0.00    +0.000 C 
ATOM     22  O   UNL     1       1.428   8.753  17.013  0.00  0.00    +0.000 OA
BRANCH  21  23
ATOM     23  C   UNL     1       1.297   9.578  19.165  0.00  0.00    +0.000 A 
ATOM     24  C   UNL     1       1.238  10.935  18.895  0.00  0.00    +0.000 A 
ATOM     25  N   UNL     1       1.143  11.585  20.083  0.00  0.00    +0.000 N 
ATOM     26  C   UNL     1       0.554  10.751  20.986  0.00  0.00    +0.000 A 
ATOM     27  C   UNL     1      -0.043  11.076  22.207  0.00  0.00    +0.000 A 
ATOM     28  C   UNL     1      -0.599  10.041  22.940  0.00  0.00    +0.000 A 
ATOM     29  C   UNL     1      -0.476   8.724  22.501  0.00  0.00    +0.000 A 
ATOM     30  C   UNL     1       0.183   8.405  21.292  0.00  0.00    +0.000 A 
ATOM     31  C   UNL     1       0.668   9.447  20.473  0.00  0.00    +0.000 A 
ATOM     32  H   UNL     1       1.338  12.569  20.236  0.00  0.00    +0.000 HD
ENDBRANCH  21  23
ENDBRANCH   1  21
TORSDOF 6
ENDMDL
MODEL 4
REMARK VINA RESULT:      -8.3      1.570      4.342
REMARK  Name = 
REMARK  7 active torsions:
REMARK  status: ('A' for Active; 'I' for Inactive)
REMARK    1  A    between atoms: C_1  and  O_2
REMARK    2  A    between atoms: O_2  and  C_3
REMARK    3  A    between atoms: C_7  and  N_8
REMARK    4  A    between atoms: N_8  and  C_9
REMARK    5  A    between atoms: C_9  and  C_10
REMARK    6  A    between atoms: C_9  and  C_21
REMARK    7  A    between atoms: C_10  and  C_12
REMARK                            x       y       z     vdW  Elec       q    Type
REMARK                         _______ _______ _______ _____ _____    ______ ____
ROOT
ATOM      1  C   UNL     1       2.309   6.807  18.948  0.00  0.00    +0.000 C 
ENDROOT
BRANCH   1   2
ATOM      2  C   UNL     1       3.591   6.301  18.349  0.00  0.00    +0.000 A 
ATOM      3  N   UNL     1       4.744   6.196  18.998  0.00  0.00    +0.000 NA
ATOM      4  C   UNL     1       5.577   5.597  18.097  0.00  0.00    +0.000 A 
ATOM      5  C   UNL     1       6.919   5.214  18.206  0.00  0.00    +0.000 A 
ATOM      6  C   UNL     1       7.534   4.631  17.091  0.00  0.00    +0.000 A 
ATOM      7  C   UNL     1       6.826   4.415  15.903  0.00  0.00    +0.000 A 
ATOM      8  C   UNL     1       5.468   4.776  15.787  0.00  0.00    +0.000 A 
ATOM      9  C   UNL     1       4.899   5.360  16.906  0.00  0.00    +0.000 A 
ATOM     10  O   UNL     1       3.608   5.809  17.069  0.00  0.00    +0.000 OA
ENDBRANCH   1   2
BRANCH   1  11
ATOM     11  N   UNL     1       2.053   6.303  20.315  0.00  0.00    +0.000 N 
ATOM     12  H   UNL     1       2.686   6.762  20.980  0.00  0.00    +0.000 HD
BRANCH  11  17
ATOM     13  C   UNL     1       2.798   2.766  21.216  0.00  0.00    +0.000 A 
ATOM     14  C   UNL     1       1.672   2.140  20.693  0.00  0.00    +0.000 A 
ATOM     15  C   UNL     1       0.642   2.907  20.156  0.00  0.00    +0.000 A 
ATOM     16  C   UNL     1       0.763   4.296  20.103  0.00  0.00    +0.000 A 
ATOM     17  C   UNL     1       1.892   4.951  20.614  0.00  0.00    +0.000 A 
ATOM     18  C   UNL     1       2.872   4.163  21.224  0.00  0.00    +0.000 A 
BRANCH  13  20
ATOM     19  C   UNL     1       4.813   1.640  20.737  0.00  0.00    +0.000 C 
ATOM     20  O   UNL     1       3.789   1.939  21.681  0.00  0.00    +0.000 OA
ENDBRANCH  13  20
ENDBRANCH  11  17
ENDBRANCH   1  11
BRANCH   1  21
ATOM     21  C   UNL     1       2.148   8.305  18.751  0.00  0.00    +0.000 C 
ATOM     22  O   UNL     1       2.944   8.822  17.928  0.00  0.00    +0.000 OA
BRANCH  21  23
ATOM     23  C   UNL     1       1.179   9.203  19.366  0.00  0.00    +0.000 A 
ATOM     24  C   UNL     1       0.452  10.055  18.551  0.00  0.00    +0.000 A 
ATOM     25  N   UNL     1       0.038  11.099  19.314  0.00  0.00    +0.000 N 
ATOM     26  C   UNL     1      -0.061  10.675  20.606  0.00  0.00    +0.000 A 
ATOM     27  C   UNL     1      -0.749  11.275  21.665  0.00  0.00    +0.000 A 
ATOM     28  C   UNL     1      -0.719  10.630  22.890  0.00  0.00    +0.000 A 
ATOM     29  C   UNL     1       0.048   9.479  23.060  0.00  0.00    +0.000 A 
ATOM     30  C   UNL     1       0.785   8.916  21.993  0.00  0.00    +0.000 A 
ATOM     31  C   UNL     1       0.690   9.492  20.708  0.00  0.00    +0.000 A 
ATOM     32  H   UNL     1      -0.285  11.995  18.966  0.00  0.00    +0.000 HD
ENDBRANCH  21  23
ENDBRANCH   1  21
TORSDOF 6
ENDMDL
MODEL 5
REMARK VINA RESULT:      -8.2      1.470      2.484
REMARK  Name = 
REMARK  7 active torsions:
REMARK  status: ('A' for Active; 'I' for Inactive)
REMARK    1  A    between atoms: C_1  and  O_2
REMARK    2  A    between atoms: O_2  and  C_3
REMARK    3  A    between atoms: C_7  and  N_8
REMARK    4  A    between atoms: N_8  and  C_9
REMARK    5  A    between atoms: C_9  and  C_10
REMARK    6  A    between atoms: C_9  and  C_21
REMARK    7  A    between atoms: C_10  and  C_12
REMARK                            x       y       z     vdW  Elec       q    Type
REMARK                         _______ _______ _______ _____ _____    ______ ____
ROOT
ATOM      1  C   UNL     1       3.385   7.490  18.268  0.00  0.00    +0.000 C 
ENDROOT
BRANCH   1   2
ATOM      2  C   UNL     1       2.971   6.101  18.669  0.00  0.00    +0.000 A 
ATOM      3  N   UNL     1       3.362   5.481  19.775  0.00  0.00    +0.000 NA
ATOM      4  C   UNL     1       2.656   4.313  19.766  0.00  0.00    +0.000 A 
ATOM      5  C   UNL     1       2.632   3.250  20.678  0.00  0.00    +0.000 A 
ATOM      6  C   UNL     1       1.815   2.150  20.393  0.00  0.00    +0.000 A 
ATOM      7  C   UNL     1       1.025   2.115  19.238  0.00  0.00    +0.000 A 
ATOM      8  C   UNL     1       1.023   3.187  18.322  0.00  0.00    +0.000 A 
ATOM      9  C   UNL     1       1.851   4.251  18.633  0.00  0.00    +0.000 A 
ATOM     10  O   UNL     1       2.049   5.413  17.923  0.00  0.00    +0.000 OA
ENDBRANCH   1   2
BRANCH   1  11
ATOM     11  N   UNL     1       4.194   7.534  17.031  0.00  0.00    +0.000 N 
ATOM     12  H   UNL     1       3.576   7.612  16.214  0.00  0.00    +0.000 HD
BRANCH  11  17
ATOM     13  C   UNL     1       6.190   4.626  15.834  0.00  0.00    +0.000 A 
ATOM     14  C   UNL     1       7.252   4.676  16.730  0.00  0.00    +0.000 A 
ATOM     15  C   UNL     1       7.345   5.731  17.633  0.00  0.00    +0.000 A 
ATOM     16  C   UNL     1       6.349   6.707  17.669  0.00  0.00    +0.000 A 
ATOM     17  C   UNL     1       5.263   6.674  16.784  0.00  0.00    +0.000 A 
ATOM     18  C   UNL     1       5.240   5.653  15.830  0.00  0.00    +0.000 A 
BRANCH  13  20
ATOM     19  C   UNL     1       6.182   3.827  13.617  0.00  0.00    +0.000 C 
ATOM     20  O   UNL     1       6.145   3.531  15.010  0.00  0.00    +0.000 OA
ENDBRANCH  13  20
ENDBRANCH  11  17
ENDBRANCH   1  11
BRANCH   1  21
ATOM     21  C   UNL     1       2.222   8.466  18.338  0.00  0.00    +0.000 C 
ATOM     22  O   UNL     1       1.802   8.874  17.227  0.00  0.00    +0.000 OA
BRANCH  21  23
ATOM     23  C   UNL     1       1.521   8.959  19.517  0.00  0.00    +0.000 A 
ATOM     24  C   UNL     1       1.498   8.170  20.655  0.00  0.00    +0.000 A 
ATOM     25  N   UNL     1       0.420   8.544  21.391  0.00  0.00    +0.000 N 
ATOM     26  C   UNL     1       0.137   9.848  21.110  0.00  0.00    +0.000 A 
ATOM     27  C   UNL     1      -0.645  10.743  21.845  0.00  0.00    +0.000 A 
ATOM     28  C   UNL     1      -0.762  12.035  21.358  0.00  0.00    +0.000 A 
ATOM     29  C   UNL     1      -0.188  12.380  20.136  0.00  0.00    +0.000 A 
ATOM     30  C   UNL     1       0.553  11.445  19.376  0.00  0.00    +0.000 A 
ATOM     31  C   UNL     1       0.776  10.153  19.896  0.00  0.00    +0.000 A 
ATOM     32  H   UNL     1      -0.008   7.998  22.131  0.00  0.00    +0.000 HD
ENDBRANCH  21  23
ENDBRANCH   1  21
TORSDOF 6
ENDMDL
MODEL 6
REMARK VINA RESULT:      -8.2      1.307      2.251
REMARK  Name = 
REMARK  7 active torsions:
REMARK  status: ('A' for Active; 'I' for Inactive)
REMARK    1  A    between atoms: C_1  and  O_2
REMARK    2  A    between atoms: O_2  and  C_3
REMARK    3  A    between atoms: C_7  and  N_8
REMARK    4  A    between atoms: N_8  and  C_9
REMARK    5  A    between atoms: C_9  and  C_10
REMARK    6  A    between atoms: C_9  and  C_21
REMARK    7  A    between atoms: C_10  and  C_12
REMARK                            x       y       z     vdW  Elec       q    Type
REMARK                         _______ _______ _______ _____ _____    ______ ____
ROOT
ATOM      1  C   UNL     1       3.228   7.490  18.223  0.00  0.00    +0.000 C 
ENDROOT
BRANCH   1   2
ATOM      2  C   UNL     1       2.687   6.163  18.676  0.00  0.00    +0.000 A 
ATOM      3  N   UNL     1       2.006   5.319  17.911  0.00  0.00    +0.000 NA
ATOM      4  C   UNL     1       1.826   4.224  18.705  0.00  0.00    +0.000 A 
ATOM      5  C   UNL     1       1.190   3.003  18.451  0.00  0.00    +0.000 A 
ATOM      6  C   UNL     1       1.137   2.056  19.481  0.00  0.00    +0.000 A 
ATOM      7  C   UNL     1       1.719   2.309  20.728  0.00  0.00    +0.000 A 
ATOM      8  C   UNL     1       2.381   3.526  20.991  0.00  0.00    +0.000 A 
ATOM      9  C   UNL     1       2.403   4.440  19.952  0.00  0.00    +0.000 A 
ATOM     10  O   UNL     1       2.969   5.695  19.933  0.00  0.00    +0.000 OA
ENDBRANCH   1   2
BRANCH   1  11
ATOM     11  N   UNL     1       3.997   7.419  16.961  0.00  0.00    +0.000 N 
ATOM     12  H   UNL     1       3.353   7.343  16.166  0.00  0.00    +0.000 HD
BRANCH  11  17
ATOM     13  C   UNL     1       6.203   4.615  15.893  0.00  0.00    +0.000 A 
ATOM     14  C   UNL     1       7.184   4.690  16.876  0.00  0.00    +0.000 A 
ATOM     15  C   UNL     1       7.158   5.730  17.800  0.00  0.00    +0.000 A 
ATOM     16  C   UNL     1       6.123   6.666  17.766  0.00  0.00    +0.000 A 
ATOM     17  C   UNL     1       5.117   6.607  16.792  0.00  0.00    +0.000 A 
ATOM     18  C   UNL     1       5.215   5.603  15.825  0.00  0.00    +0.000 A 
BRANCH  13  20
ATOM     19  C   UNL     1       6.199   3.849  13.664  0.00  0.00    +0.000 C 
ATOM     20  O   UNL     1       6.271   3.534  15.051  0.00  0.00    +0.000 OA
ENDBRANCH  13  20
ENDBRANCH  11  17
ENDBRANCH   1  11
BRANCH   1  21
ATOM     21  C   UNL     1       2.175   8.583  18.300  0.00  0.00    +0.000 C 
ATOM     22  O   UNL     1       1.857   9.094  17.197  0.00  0.00    +0.000 OA
BRANCH  21  23
ATOM     23  C   UNL     1       1.472   9.086  19.473  0.00  0.00    +0.000 A 
ATOM     24  C   UNL     1       1.515   8.343  20.642  0.00  0.00    +0.000 A 
ATOM     25  N   UNL     1       0.434   8.689  21.387  0.00  0.00    +0.000 N 
ATOM     26  C   UNL     1       0.074   9.962  21.061  0.00  0.00    +0.000 A 
ATOM     27  C   UNL     1      -0.741  10.844  21.777  0.00  0.00    +0.000 A 
ATOM     28  C   UNL     1      -0.939  12.106  21.242  0.00  0.00    +0.000 A 
ATOM     29  C   UNL     1      -0.409  12.431  19.994  0.00  0.00    +0.000 A 
ATOM     30  C   UNL     1       0.366  11.508  19.255  0.00  0.00    +0.000 A 
ATOM     31  C   UNL     1       0.670  10.251  19.821  0.00  0.00    +0.000 A 
ATOM     32  H   UNL     1       0.051   8.151  22.157  0.00  0.00    +0.000 HD
ENDBRANCH  21  23
ENDBRANCH   1  21
TORSDOF 6
ENDMDL
MODEL 7
REMARK VINA RESULT:      -8.2      0.979      1.573
REMARK  Name = 
REMARK  7 active torsions:
REMARK  status: ('A' for Active; 'I' for Inactive)
REMARK    1  A    between atoms: C_1  and  O_2
REMARK    2  A    between atoms: O_2  and  C_3
REMARK    3  A    between atoms: C_7  and  N_8
REMARK    4  A    between atoms: N_8  and  C_9
REMARK    5  A    between atoms: C_9  and  C_10
REMARK    6  A    between atoms: C_9  and  C_21
REMARK    7  A    between atoms: C_10  and  C_12
REMARK                            x       y       z     vdW  Elec       q    Type
REMARK                         _______ _______ _______ _____ _____    ______ ____
ROOT
ATOM      1  C   UNL     1       3.190   7.499  18.306  0.00  0.00    +0.000 C 
ENDROOT
BRANCH   1   2
ATOM      2  C   UNL     1       2.616   6.199  18.796  0.00  0.00    +0.000 A 
ATOM      3  N   UNL     1       1.972   5.320  18.039  0.00  0.00    +0.000 NA
ATOM      4  C   UNL     1       1.740   4.268  18.878  0.00  0.00    +0.000 A 
ATOM      5  C   UNL     1       1.111   3.038  18.652  0.00  0.00    +0.000 A 
ATOM      6  C   UNL     1       0.994   2.146  19.725  0.00  0.00    +0.000 A 
ATOM      7  C   UNL     1       1.508   2.462  20.988  0.00  0.00    +0.000 A 
ATOM      8  C   UNL     1       2.163   3.688  21.224  0.00  0.00    +0.000 A 
ATOM      9  C   UNL     1       2.249   4.546  20.142  0.00  0.00    +0.000 A 
ATOM     10  O   UNL     1       2.824   5.796  20.090  0.00  0.00    +0.000 OA
ENDBRANCH   1   2
BRANCH   1  11
ATOM     11  N   UNL     1       4.029   7.359  17.096  0.00  0.00    +0.000 N 
ATOM     12  H   UNL     1       3.452   7.489  16.256  0.00  0.00    +0.000 HD
BRANCH  11  17
ATOM     13  C   UNL     1       6.930   5.088  17.643  0.00  0.00    +0.000 A 
ATOM     14  C   UNL     1       7.144   4.650  16.341  0.00  0.00    +0.000 A 
ATOM     15  C   UNL     1       6.261   5.024  15.332  0.00  0.00    +0.000 A 
ATOM     16  C   UNL     1       5.192   5.873  15.622  0.00  0.00    +0.000 A 
ATOM     17  C   UNL     1       4.960   6.336  16.924  0.00  0.00    +0.000 A 
ATOM     18  C   UNL     1       5.811   5.876  17.933  0.00  0.00    +0.000 A 
BRANCH  13  20
ATOM     19  C   UNL     1       8.042   5.628  19.650  0.00  0.00    +0.000 C 
ATOM     20  O   UNL     1       7.871   4.716  18.568  0.00  0.00    +0.000 OA
ENDBRANCH  13  20
ENDBRANCH  11  17
ENDBRANCH   1  11
BRANCH   1  21
ATOM     21  C   UNL     1       2.141   8.598  18.265  0.00  0.00    +0.000 C 
ATOM     22  O   UNL     1       1.869   9.031  17.117  0.00  0.00    +0.000 OA
BRANCH  21  23
ATOM     23  C   UNL     1       1.396   9.184  19.372  0.00  0.00    +0.000 A 
ATOM     24  C   UNL     1       1.395   8.529  20.592  0.00  0.00    +0.000 A 
ATOM     25  N   UNL     1       0.288   8.927  21.270  0.00  0.00    +0.000 N 
ATOM     26  C   UNL     1      -0.057  10.174  20.839  0.00  0.00    +0.000 A 
ATOM     27  C   UNL     1      -0.896  11.104  21.458  0.00  0.00    +0.000 A 
ATOM     28  C   UNL     1      -1.071  12.324  20.826  0.00  0.00    +0.000 A 
ATOM     29  C   UNL     1      -0.495  12.558  19.578  0.00  0.00    +0.000 A 
ATOM     30  C   UNL     1       0.304  11.584  18.938  0.00  0.00    +0.000 A 
ATOM     31  C   UNL     1       0.585  10.372  19.605  0.00  0.00    +0.000 A 
ATOM     32  H   UNL     1      -0.124   8.447  22.063  0.00  0.00    +0.000 HD
ENDBRANCH  21  23
ENDBRANCH   1  21
TORSDOF 6
ENDMDL
MODEL 8
REMARK VINA RESULT:      -8.0      2.198      6.918
REMARK  Name = 
REMARK  7 active torsions:
REMARK  status: ('A' for Active; 'I' for Inactive)
REMARK    1  A    between atoms: C_1  and  O_2
REMARK    2  A    between atoms: O_2  and  C_3
REMARK    3  A    between atoms: C_7  and  N_8
REMARK    4  A    between atoms: N_8  and  C_9
REMARK    5  A    between atoms: C_9  and  C_10
REMARK    6  A    between atoms: C_9  and  C_21
REMARK    7  A    between atoms: C_10  and  C_12
REMARK                            x       y       z     vdW  Elec       q    Type
REMARK                         _______ _______ _______ _____ _____    ______ ____
ROOT
ATOM      1  C   UNL     1       4.836   5.712  17.211  0.00  0.00    +0.000 C 
ENDROOT
BRANCH   1   2
ATOM      2  C   UNL     1       5.436   5.362  15.878  0.00  0.00    +0.000 A 
ATOM      3  N   UNL     1       6.563   5.870  15.394  0.00  0.00    +0.000 NA
ATOM      4  C   UNL     1       6.762   5.186  14.231  0.00  0.00    +0.000 A 
ATOM      5  C   UNL     1       7.790   5.269  13.284  0.00  0.00    +0.000 A 
ATOM      6  C   UNL     1       7.720   4.444  12.154  0.00  0.00    +0.000 A 
ATOM      7  C   UNL     1       6.663   3.544  11.980  0.00  0.00    +0.000 A 
ATOM      8  C   UNL     1       5.632   3.434  12.936  0.00  0.00    +0.000 A 
ATOM      9  C   UNL     1       5.731   4.273  14.032  0.00  0.00    +0.000 A 
ATOM     10  O   UNL     1       4.874   4.381  15.103  0.00  0.00    +0.000 OA
ENDBRANCH   1   2
BRANCH   1  11
ATOM     11  N   UNL     1       3.468   6.268  17.118  0.00  0.00    +0.000 N 
ATOM     12  H   UNL     1       3.244   6.478  16.138  0.00  0.00    +0.000 HD
BRANCH  11  17
ATOM     13  C   UNL     1       1.786   7.940  19.989  0.00  0.00    +0.000 A 
ATOM     14  C   UNL     1       1.538   9.190  19.431  0.00  0.00    +0.000 A 
ATOM     15  C   UNL     1       2.030   9.490  18.164  0.00  0.00    +0.000 A 
ATOM     16  C   UNL     1       2.728   8.522  17.441  0.00  0.00    +0.000 A 
ATOM     17  C   UNL     1       2.982   7.252  17.977  0.00  0.00    +0.000 A 
ATOM     18  C   UNL     1       2.552   7.007  19.284  0.00  0.00    +0.000 A 
BRANCH  13  20
ATOM     19  C   UNL     1       0.138   8.561  21.556  0.00  0.00    +0.000 C 
ATOM     20  O   UNL     1       1.227   7.706  21.220  0.00  0.00    +0.000 OA
ENDBRANCH  13  20
ENDBRANCH  11  17
ENDBRANCH   1  11
BRANCH   1  21
ATOM     21  C   UNL     1       5.035   4.601  18.228  0.00  0.00    +0.000 C 
ATOM     22  O   UNL     1       6.177   4.557  18.751  0.00  0.00    +0.000 OA
BRANCH  21  23
ATOM     23  C   UNL     1       4.072   3.610  18.691  0.00  0.00    +0.000 A 
ATOM     24  C   UNL     1       3.883   2.464  17.935  0.00  0.00    +0.000 A 
ATOM     25  N   UNL     1       2.651   1.976  18.233  0.00  0.00    +0.000 N 
ATOM     26  C   UNL     1       2.326   2.368  19.498  0.00  0.00    +0.000 A 
ATOM     27  C   UNL     1       1.340   1.847  20.341  0.00  0.00    +0.000 A 
ATOM     28  C   UNL     1       1.220   2.406  21.602  0.00  0.00    +0.000 A 
ATOM     29  C   UNL     1       2.001   3.504  21.961  0.00  0.00    +0.000 A 
ATOM     30  C   UNL     1       2.953   4.057  21.075  0.00  0.00    +0.000 A 
ATOM     31  C   UNL     1       3.171   3.443  19.823  0.00  0.00    +0.000 A 
ATOM     32  H   UNL     1       2.127   1.313  17.673  0.00  0.00    +0.000 HD
ENDBRANCH  21  23
ENDBRANCH   1  21
TORSDOF 6
ENDMDL
MODEL 9
REMARK VINA RESULT:      -8.0      1.972      5.837
REMARK  Name = 
REMARK  7 active torsions:
REMARK  status: ('A' for Active; 'I' for Inactive)
REMARK    1  A    between atoms: C_1  and  O_2
REMARK    2  A    between atoms: O_2  and  C_3
REMARK    3  A    between atoms: C_7  and  N_8
REMARK    4  A    between atoms: N_8  and  C_9
REMARK    5  A    between atoms: C_9  and  C_10
REMARK    6  A    between atoms: C_9  and  C_21
REMARK    7  A    between atoms: C_10  and  C_12
REMARK                            x       y       z     vdW  Elec       q    Type
REMARK                         _______ _______ _______ _____ _____    ______ ____
ROOT
ATOM      1  C   UNL     1       2.480   7.864  18.185  0.00  0.00    +0.000 C 
ENDROOT
BRANCH   1   2
ATOM      2  C   UNL     1       1.743   9.174  18.184  0.00  0.00    +0.000 A 
ATOM      3  N   UNL     1       0.422   9.302  18.165  0.00  0.00    +0.000 NA
ATOM      4  C   UNL     1       0.219  10.646  18.284  0.00  0.00    +0.000 A 
ATOM      5  C   UNL     1      -0.965  11.392  18.338  0.00  0.00    +0.000 A 
ATOM      6  C   UNL     1      -0.867  12.785  18.440  0.00  0.00    +0.000 A 
ATOM      7  C   UNL     1       0.379  13.420  18.509  0.00  0.00    +0.000 A 
ATOM      8  C   UNL     1       1.578  12.680  18.478  0.00  0.00    +0.000 A 
ATOM      9  C   UNL     1       1.440  11.308  18.365  0.00  0.00    +0.000 A 
ATOM     10  O   UNL     1       2.430  10.353  18.307  0.00  0.00    +0.000 OA
ENDBRANCH   1   2
BRANCH   1  11
ATOM     11  N   UNL     1       3.881   7.970  17.722  0.00  0.00    +0.000 N 
ATOM     12  H   UNL     1       3.969   8.748  17.057  0.00  0.00    +0.000 HD
BRANCH  11  17
ATOM     13  C   UNL     1       6.471   5.294  17.679  0.00  0.00    +0.000 A 
ATOM     14  C   UNL     1       6.515   5.021  16.316  0.00  0.00    +0.000 A 
ATOM     15  C   UNL     1       5.613   5.642  15.457  0.00  0.00    +0.000 A 
ATOM     16  C   UNL     1       4.700   6.571  15.960  0.00  0.00    +0.000 A 
ATOM     17  C   UNL     1       4.642   6.871  17.327  0.00  0.00    +0.000 A 
ATOM     18  C   UNL     1       5.501   6.169  18.178  0.00  0.00    +0.000 A 
BRANCH  13  20
ATOM     19  C   UNL     1       8.041   5.516  19.423  0.00  0.00    +0.000 C 
ATOM     20  O   UNL     1       7.424   4.678  18.449  0.00  0.00    +0.000 OA
ENDBRANCH  13  20
ENDBRANCH  11  17
ENDBRANCH   1  11
BRANCH   1  21
ATOM     21  C   UNL     1       2.264   7.097  19.480  0.00  0.00    +0.000 C 
ATOM     22  O   UNL     1       2.102   7.811  20.501  0.00  0.00    +0.000 OA
BRANCH  21  23
ATOM     23  C   UNL     1       2.191   5.655  19.679  0.00  0.00    +0.000 A 
ATOM     24  C   UNL     1       1.845   5.175  20.932  0.00  0.00    +0.000 A 
ATOM     25  N   UNL     1       2.330   3.911  21.034  0.00  0.00    +0.000 N 
ATOM     26  C   UNL     1       2.414   3.379  19.782  0.00  0.00    +0.000 A 
ATOM     27  C   UNL     1       2.532   2.035  19.417  0.00  0.00    +0.000 A 
ATOM     28  C   UNL     1       2.574   1.744  18.063  0.00  0.00    +0.000 A 
ATOM     29  C   UNL     1       2.590   2.773  17.123  0.00  0.00    +0.000 A 
ATOM     30  C   UNL     1       2.528   4.131  17.512  0.00  0.00    +0.000 A 
ATOM     31  C   UNL     1       2.379   4.454  18.877  0.00  0.00    +0.000 A 
ATOM     32  H   UNL     1       2.465   3.397  21.899  0.00  0.00    +0.000 HD
ENDBRANCH  21  23
ENDBRANCH   1  21
TORSDOF 6
ENDMDL
