MODEL 1
REMARK VINA RESULT:      -9.3      0.000      0.000
REMARK  Name = 
REMARK  5 active torsions:
REMARK  status: ('A' for Active; 'I' for Inactive)
REMARK    1  A    between atoms: C_2  and  C_26
REMARK    2  A    between atoms: N_3  and  C_4
REMARK    3  A    between atoms: C_8  and  N_9
REMARK    4  A    between atoms: C_15  and  N_16
REMARK    5  A    between atoms: N_16  and  C_17
REMARK                            x       y       z     vdW  Elec       q    Type
REMARK                         _______ _______ _______ _____ _____    ______ ____
ROOT
ATOM      1  N   UNL     1       1.647   6.927  21.209  0.00  0.00    +0.000 N 
ATOM      2  C   UNL     1       1.327   8.255  20.960  0.00  0.00    +0.000 A 
ATOM      3  N   UNL     1       1.537   9.117  21.968  0.00  0.00    +0.000 NA
ATOM      4  C   UNL     1       1.246  10.413  21.727  0.00  0.00    +0.000 A 
ATOM      5  C   UNL     1       0.725  10.860  20.541  0.00  0.00    +0.000 A 
ATOM      6  F   UNL     1       0.441  12.156  20.352  0.00  0.00    +0.000 F 
ATOM      7  C   UNL     1       0.542   9.918  19.551  0.00  0.00    +0.000 A 
ATOM      8  N   UNL     1       0.858   8.631  19.763  0.00  0.00    +0.000 NA
ATOM      9  H   UNL     1       2.029   6.833  22.138  0.00  0.00    +0.000 HD
ENDROOT
BRANCH   1  14
ATOM     10  C   UNL     1       2.803   4.646  18.458  0.00  0.00    +0.000 A 
ATOM     11  C   UNL     1       2.005   3.537  18.734  0.00  0.00    +0.000 A 
ATOM     12  C   UNL     1       1.077   3.571  19.774  0.00  0.00    +0.000 A 
ATOM     13  C   UNL     1       0.954   4.714  20.561  0.00  0.00    +0.000 A 
ATOM     14  C   UNL     1       1.778   5.827  20.347  0.00  0.00    +0.000 A 
ATOM     15  C   UNL     1       2.693   5.774  19.280  0.00  0.00    +0.000 A 
BRANCH  10  18
ATOM     16  O   UNL     1       5.685   4.124  18.515  0.00  0.00    +0.000 OA
ATOM     17  C   UNL     1       5.081   4.444  17.493  0.00  0.00    +0.000 C 
ATOM     18  N   UNL     1       3.722   4.687  17.384  0.00  0.00    +0.000 N 
ATOM     19  H   UNL     1       3.357   4.794  16.440  0.00  0.00    +0.000 HD
BRANCH  17  20
ATOM     20  C   UNL     1       5.856   4.539  16.224  0.00  0.00    +0.000 A 
ATOM     21  C   UNL     1       6.932   5.417  16.164  0.00  0.00    +0.000 A 
ATOM     22  N   UNL     1       7.664   5.604  15.036  0.00  0.00    +0.000 NA
ATOM     23  C   UNL     1       7.262   4.881  13.969  0.00  0.00    +0.000 A 
ATOM     24  C   UNL     1       6.196   3.995  14.031  0.00  0.00    +0.000 A 
ATOM     25  N   UNL     1       5.465   3.787  15.157  0.00  0.00    +0.000 NA
ENDBRANCH  17  20
ENDBRANCH  10  18
ENDBRANCH   1  14
BRANCH   7  26
ATOM     26  N   UNL     1       0.030  10.305  18.296  0.00  0.00    +0.000 N 
ATOM     27  H   UNL     1       0.674  10.911  17.803  0.00  0.00    +0.000 HD
BRANCH  26  28
ATOM     28  C   UNL     1      -1.323  10.450  17.934  0.00  0.00    +0.000 A 
ATOM     29  C   UNL     1      -2.148  11.331  18.649  0.00  0.00    +0.000 A 
ATOM     30  C   UNL     1      -3.455  11.582  18.226  0.00  0.00    +0.000 A 
ATOM     31  C   UNL     1      -3.938  10.960  17.082  0.00  0.00    +0.000 A 
ATOM     32  F   UNL     1      -5.161  11.265  16.631  0.00  0.00    +0.000 F 
ATOM     33  C   UNL     1      -3.164  10.040  16.391  0.00  0.00    +0.000 A 
ATOM     34  C   UNL     1      -1.862   9.779  16.824  0.00  0.00    +0.000 A 
ENDBRANCH  26  28
ENDBRANCH   7  26
TORSDOF 5
ENDMDL
MODEL 2
REMARK VINA RESULT:      -9.0      4.256      9.555
REMARK  Name = 
REMARK  5 active torsions:
REMARK  status: ('A' for Active; 'I' for Inactive)
REMARK    1  A    between atoms: C_2  and  C_26
REMARK    2  A    between atoms: N_3  and  C_4
REMARK    3  A    between atoms: C_8  and  N_9
REMARK    4  A    between atoms: C_15  and  N_16
REMARK    5  A    between atoms: N_16  and  C_17
REMARK                            x       y       z     vdW  Elec       q    Type
REMARK                         _______ _______ _______ _____ _____    ______ ____
ROOT
ATOM      1  N   UNL     1       1.865   5.872  20.692  0.00  0.00    +0.000 N 
ATOM      2  C   UNL     1       2.666   4.753  20.505  0.00  0.00    +0.000 A 
ATOM      3  N   UNL     1       2.307   3.646  21.176  0.00  0.00    +0.000 NA
ATOM      4  C   UNL     1       3.070   2.549  20.986  0.00  0.00    +0.000 A 
ATOM      5  C   UNL     1       4.185   2.536  20.187  0.00  0.00    +0.000 A 
ATOM      6  F   UNL     1       4.918   1.424  20.038  0.00  0.00    +0.000 F 
ATOM      7  C   UNL     1       4.487   3.707  19.526  0.00  0.00    +0.000 A 
ATOM      8  N   UNL     1       3.719   4.798  19.679  0.00  0.00    +0.000 NA
ATOM      9  H   UNL     1       1.095   5.647  21.304  0.00  0.00    +0.000 HD
ENDROOT
BRANCH   1  14
ATOM     10  C   UNL     1       1.324   9.491  19.844  0.00  0.00    +0.000 A 
ATOM     11  C   UNL     1       1.781   9.485  18.527  0.00  0.00    +0.000 A 
ATOM     12  C   UNL     1       2.208   8.300  17.930  0.00  0.00    +0.000 A 
ATOM     13  C   UNL     1       2.199   7.110  18.655  0.00  0.00    +0.000 A 
ATOM     14  C   UNL     1       1.797   7.090  19.997  0.00  0.00    +0.000 A 
ATOM     15  C   UNL     1       1.354   8.295  20.571  0.00  0.00    +0.000 A 
BRANCH  10  18
ATOM     16  O   UNL     1      -1.325  10.715  19.582  0.00  0.00    +0.000 OA
ATOM     17  C   UNL     1      -0.437  11.181  20.294  0.00  0.00    +0.000 C 
ATOM     18  N   UNL     1       0.828  10.651  20.483  0.00  0.00    +0.000 N 
ATOM     19  H   UNL     1       1.389  11.074  21.219  0.00  0.00    +0.000 HD
BRANCH  17  20
ATOM     20  C   UNL     1      -0.745  12.410  21.078  0.00  0.00    +0.000 A 
ATOM     21  C   UNL     1      -0.900  12.301  22.455  0.00  0.00    +0.000 A 
ATOM     22  N   UNL     1      -1.227  13.358  23.242  0.00  0.00    +0.000 NA
ATOM     23  C   UNL     1      -1.406  14.524  22.585  0.00  0.00    +0.000 A 
ATOM     24  C   UNL     1      -1.240  14.637  21.212  0.00  0.00    +0.000 A 
ATOM     25  N   UNL     1      -0.897  13.591  20.416  0.00  0.00    +0.000 NA
ENDBRANCH  17  20
ENDBRANCH  10  18
ENDBRANCH   1  14
BRANCH   7  26
ATOM     26  N   UNL     1       5.605   3.766  18.670  0.00  0.00    +0.000 N 
ATOM     27  H   UNL     1       6.146   2.911  18.708  0.00  0.00    +0.000 HD
BRANCH  26  28
ATOM     28  C   UNL     1       6.325   4.912  18.284  0.00  0.00    +0.000 A 
ATOM     29  C   UNL     1       5.928   5.640  17.152  0.00  0.00    +0.000 A 
ATOM     30  C   UNL     1       6.551   6.848  16.829  0.00  0.00    +0.000 A 
ATOM     31  C   UNL     1       7.567   7.334  17.642  0.00  0.00    +0.000 A 
ATOM     32  F   UNL     1       8.107   8.532  17.378  0.00  0.00    +0.000 F 
ATOM     33  C   UNL     1       8.019   6.606  18.732  0.00  0.00    +0.000 A 
ATOM     34  C   UNL     1       7.405   5.391  19.044  0.00  0.00    +0.000 A 
ENDBRANCH  26  28
ENDBRANCH   7  26
TORSDOF 5
ENDMDL
MODEL 3
REMARK VINA RESULT:      -8.9      4.221      9.570
REMARK  Name = 
REMARK  5 active torsions:
REMARK  status: ('A' for Active; 'I' for Inactive)
REMARK    1  A    between atoms: C_2  and  C_26
REMARK    2  A    between atoms: N_3  and  C_4
REMARK    3  A    between atoms: C_8  and  N_9
REMARK    4  A    between atoms: C_15  and  N_16
REMARK    5  A    between atoms: N_16  and  C_17
REMARK                            x       y       z     vdW  Elec       q    Type
REMARK                         _______ _______ _______ _____ _____    ______ ____
ROOT
ATOM      1  N   UNL     1       1.845   5.978  20.720  0.00  0.00    +0.000 N 
ATOM      2  C   UNL     1       2.638   4.854  20.526  0.00  0.00    +0.000 A 
ATOM      3  N   UNL     1       2.290   3.755  21.216  0.00  0.00    +0.000 NA
ATOM      4  C   UNL     1       3.045   2.654  21.019  0.00  0.00    +0.000 A 
ATOM      5  C   UNL     1       4.141   2.628  20.196  0.00  0.00    +0.000 A 
ATOM      6  F   UNL     1       4.868   1.513  20.041  0.00  0.00    +0.000 F 
ATOM      7  C   UNL     1       4.433   3.793  19.517  0.00  0.00    +0.000 A 
ATOM      8  N   UNL     1       3.672   4.887  19.676  0.00  0.00    +0.000 NA
ATOM      9  H   UNL     1       1.088   5.761  21.351  0.00  0.00    +0.000 HD
ENDROOT
BRANCH   1  14
ATOM     10  C   UNL     1       1.039   9.516  19.750  0.00  0.00    +0.000 A 
ATOM     11  C   UNL     1       1.746   9.588  18.551  0.00  0.00    +0.000 A 
ATOM     12  C   UNL     1       2.426   8.475  18.061  0.00  0.00    +0.000 A 
ATOM     13  C   UNL     1       2.420   7.281  18.779  0.00  0.00    +0.000 A 
ATOM     14  C   UNL     1       1.766   7.189  20.016  0.00  0.00    +0.000 A 
ATOM     15  C   UNL     1       1.072   8.321  20.479  0.00  0.00    +0.000 A 
BRANCH  10  18
ATOM     16  O   UNL     1       0.687  10.303  22.550  0.00  0.00    +0.000 OA
ATOM     17  C   UNL     1       0.153  10.895  21.614  0.00  0.00    +0.000 C 
ATOM     18  N   UNL     1       0.286  10.596  20.268  0.00  0.00    +0.000 N 
ATOM     19  H   UNL     1      -0.100  11.273  19.615  0.00  0.00    +0.000 HD
BRANCH  17  20
ATOM     20  C   UNL     1      -0.687  12.085  21.929  0.00  0.00    +0.000 A 
ATOM     21  C   UNL     1      -1.855  12.287  21.203  0.00  0.00    +0.000 A 
ATOM     22  N   UNL     1      -2.656  13.368  21.389  0.00  0.00    +0.000 NA
ATOM     23  C   UNL     1      -2.226  14.243  22.324  0.00  0.00    +0.000 A 
ATOM     24  C   UNL     1      -1.066  14.036  23.057  0.00  0.00    +0.000 A 
ATOM     25  N   UNL     1      -0.265  12.951  22.892  0.00  0.00    +0.000 NA
ENDBRANCH  17  20
ENDBRANCH  10  18
ENDBRANCH   1  14
BRANCH   7  26
ATOM     26  N   UNL     1       5.532   3.839  18.636  0.00  0.00    +0.000 N 
ATOM     27  H   UNL     1       6.057   2.973  18.652  0.00  0.00    +0.000 HD
BRANCH  26  28
ATOM     28  C   UNL     1       6.265   4.975  18.245  0.00  0.00    +0.000 A 
ATOM     29  C   UNL     1       5.854   5.727  17.135  0.00  0.00    +0.000 A 
ATOM     30  C   UNL     1       6.493   6.926  16.811  0.00  0.00    +0.000 A 
ATOM     31  C   UNL     1       7.541   7.380  17.601  0.00  0.00    +0.000 A 
ATOM     32  F   UNL     1       8.098   8.569  17.339  0.00  0.00    +0.000 F 
ATOM     33  C   UNL     1       8.006   6.627  18.669  0.00  0.00    +0.000 A 
ATOM     34  C   UNL     1       7.375   5.421  18.982  0.00  0.00    +0.000 A 
ENDBRANCH  26  28
ENDBRANCH   7  26
TORSDOF 5
ENDMDL
MODEL 4
REMARK VINA RESULT:      -8.9      0.849      1.218
REMARK  Name = 
REMARK  5 active torsions:
REMARK  status: ('A' for Active; 'I' for Inactive)
REMARK    1  A    between atoms: C_2  and  C_26
REMARK    2  A    between atoms: N_3  and  C_4
REMARK    3  A    between atoms: C_8  and  N_9
REMARK    4  A    between atoms: C_15  and  N_16
REMARK    5  A    between atoms: N_16  and  C_17
REMARK                            x       y       z     vdW  Elec       q    Type
REMARK                         _______ _______ _______ _____ _____    ______ ____
ROOT
ATOM      1  N   UNL     1       1.676   8.070  21.104  0.00  0.00    +0.000 N 
ATOM      2  C   UNL     1       1.186   9.286  20.646  0.00  0.00    +0.000 A 
ATOM      3  N   UNL     1       1.384  10.347  21.445  0.00  0.00    +0.000 NA
ATOM      4  C   UNL     1       0.927  11.535  20.997  0.00  0.00    +0.000 A 
ATOM      5  C   UNL     1       0.254  11.686  19.812  0.00  0.00    +0.000 A 
ATOM      6  F   UNL     1      -0.192  12.885  19.414  0.00  0.00    +0.000 F 
ATOM      7  C   UNL     1       0.093  10.553  19.043  0.00  0.00    +0.000 A 
ATOM      8  N   UNL     1       0.571   9.369  19.459  0.00  0.00    +0.000 NA
ATOM      9  H   UNL     1       2.148   8.200  21.987  0.00  0.00    +0.000 HD
ENDROOT
BRANCH   1  14
ATOM     10  C   UNL     1       2.918   5.382  18.794  0.00  0.00    +0.000 A 
ATOM     11  C   UNL     1       2.182   4.304  19.286  0.00  0.00    +0.000 A 
ATOM     12  C   UNL     1       1.267   4.483  20.321  0.00  0.00    +0.000 A 
ATOM     13  C   UNL     1       1.093   5.744  20.888  0.00  0.00    +0.000 A 
ATOM     14  C   UNL     1       1.855   6.838  20.456  0.00  0.00    +0.000 A 
ATOM     15  C   UNL     1       2.759   6.635  19.398  0.00  0.00    +0.000 A 
BRANCH  10  18
ATOM     16  O   UNL     1       5.578   4.153  18.769  0.00  0.00    +0.000 OA
ATOM     17  C   UNL     1       5.075   4.687  17.782  0.00  0.00    +0.000 C 
ATOM     18  N   UNL     1       3.821   5.270  17.711  0.00  0.00    +0.000 N 
ATOM     19  H   UNL     1       3.496   5.532  16.783  0.00  0.00    +0.000 HD
BRANCH  17  20
ATOM     20  C   UNL     1       5.853   4.677  16.511  0.00  0.00    +0.000 A 
ATOM     21  C   UNL     1       6.887   5.592  16.354  0.00  0.00    +0.000 A 
ATOM     22  N   UNL     1       7.617   5.687  15.213  0.00  0.00    +0.000 NA
ATOM     23  C   UNL     1       7.254   4.832  14.232  0.00  0.00    +0.000 A 
ATOM     24  C   UNL     1       6.229   3.910  14.391  0.00  0.00    +0.000 A 
ATOM     25  N   UNL     1       5.503   3.795  15.533  0.00  0.00    +0.000 NA
ENDBRANCH  17  20
ENDBRANCH  10  18
ENDBRANCH   1  14
BRANCH   7  26
ATOM     26  N   UNL     1      -0.570  10.631  17.802  0.00  0.00    +0.000 N 
ATOM     27  H   UNL     1       0.067  10.880  17.056  0.00  0.00    +0.000 HD
BRANCH  26  28
ATOM     28  C   UNL     1      -1.917  10.969  17.574  0.00  0.00    +0.000 A 
ATOM     29  C   UNL     1      -2.473  10.811  16.295  0.00  0.00    +0.000 A 
ATOM     30  C   UNL     1      -3.837  11.019  16.082  0.00  0.00    +0.000 A 
ATOM     31  C   UNL     1      -4.652  11.379  17.148  0.00  0.00    +0.000 A 
ATOM     32  F   UNL     1      -5.972  11.497  16.959  0.00  0.00    +0.000 F 
ATOM     33  C   UNL     1      -4.119  11.599  18.409  0.00  0.00    +0.000 A 
ATOM     34  C   UNL     1      -2.751  11.405  18.617  0.00  0.00    +0.000 A 
ENDBRANCH  26  28
ENDBRANCH   7  26
TORSDOF 5
ENDMDL
MODEL 5
REMARK VINA RESULT:      -8.8      4.428      9.615
REMARK  Name = 
REMARK  5 active torsions:
REMARK  status: ('A' for Active; 'I' for Inactive)
REMARK    1  A    between atoms: C_2  and  C_26
REMARK    2  A    between atoms: N_3  and  C_4
REMARK    3  A    between atoms: C_8  and  N_9
REMARK    4  A    between atoms: C_15  and  N_16
REMARK    5  A    between atoms: N_16  and  C_17
REMARK                            x       y       z     vdW  Elec       q    Type
REMARK                         _______ _______ _______ _____ _____    ______ ____
ROOT
ATOM      1  N   UNL     1       1.709   5.780  20.870  0.00  0.00    +0.000 N 
ATOM      2  C   UNL     1       2.543   4.698  20.620  0.00  0.00    +0.000 A 
ATOM      3  N   UNL     1       2.176   3.526  21.162  0.00  0.00    +0.000 NA
ATOM      4  C   UNL     1       2.973   2.467  20.908  0.00  0.00    +0.000 A 
ATOM      5  C   UNL     1       4.126   2.550  20.172  0.00  0.00    +0.000 A 
ATOM      6  F   UNL     1       4.892   1.471  19.956  0.00  0.00    +0.000 F 
ATOM      7  C   UNL     1       4.435   3.785  19.643  0.00  0.00    +0.000 A 
ATOM      8  N   UNL     1       3.636   4.842  19.859  0.00  0.00    +0.000 NA
ATOM      9  H   UNL     1       0.914   5.483  21.417  0.00  0.00    +0.000 HD
ENDROOT
BRANCH   1  14
ATOM     10  C   UNL     1       1.207   9.468  20.370  0.00  0.00    +0.000 A 
ATOM     11  C   UNL     1       1.647   9.579  19.052  0.00  0.00    +0.000 A 
ATOM     12  C   UNL     1       2.051   8.451  18.341  0.00  0.00    +0.000 A 
ATOM     13  C   UNL     1       2.034   7.199  18.953  0.00  0.00    +0.000 A 
ATOM     14  C   UNL     1       1.649   7.058  20.293  0.00  0.00    +0.000 A 
ATOM     15  C   UNL     1       1.229   8.210  20.982  0.00  0.00    +0.000 A 
BRANCH  10  18
ATOM     16  O   UNL     1      -1.227  11.044  19.947  0.00  0.00    +0.000 OA
ATOM     17  C   UNL     1      -0.423  11.279  20.847  0.00  0.00    +0.000 C 
ATOM     18  N   UNL     1       0.735  10.570  21.121  0.00  0.00    +0.000 N 
ATOM     19  H   UNL     1       1.210  10.801  21.991  0.00  0.00    +0.000 HD
BRANCH  17  20
ATOM     20  C   UNL     1      -0.726  12.402  21.778  0.00  0.00    +0.000 A 
ATOM     21  C   UNL     1       0.139  13.489  21.816  0.00  0.00    +0.000 A 
ATOM     22  N   UNL     1      -0.032  14.534  22.666  0.00  0.00    +0.000 NA
ATOM     23  C   UNL     1      -1.101  14.433  23.485  0.00  0.00    +0.000 A 
ATOM     24  C   UNL     1      -1.973  13.354  23.440  0.00  0.00    +0.000 A 
ATOM     25  N   UNL     1      -1.822  12.311  22.583  0.00  0.00    +0.000 NA
ENDBRANCH  17  20
ENDBRANCH  10  18
ENDBRANCH   1  14
BRANCH   7  26
ATOM     26  N   UNL     1       5.594   3.946  18.857  0.00  0.00    +0.000 N 
ATOM     27  H   UNL     1       6.215   3.151  18.945  0.00  0.00    +0.000 HD
BRANCH  26  28
ATOM     28  C   UNL     1       6.217   5.154  18.493  0.00  0.00    +0.000 A 
ATOM     29  C   UNL     1       7.376   5.574  19.163  0.00  0.00    +0.000 A 
ATOM     30  C   UNL     1       8.078   6.702  18.731  0.00  0.00    +0.000 A 
ATOM     31  C   UNL     1       7.627   7.408  17.624  0.00  0.00    +0.000 A 
ATOM     32  F   UNL     1       8.345   8.440  17.161  0.00  0.00    +0.000 F 
ATOM     33  C   UNL     1       6.452   7.050  16.980  0.00  0.00    +0.000 A 
ATOM     34  C   UNL     1       5.744   5.930  17.422  0.00  0.00    +0.000 A 
ENDBRANCH  26  28
ENDBRANCH   7  26
TORSDOF 5
ENDMDL
MODEL 6
REMARK VINA RESULT:      -8.8      4.346      9.658
REMARK  Name = 
REMARK  5 active torsions:
REMARK  status: ('A' for Active; 'I' for Inactive)
REMARK    1  A    between atoms: C_2  and  C_26
REMARK    2  A    between atoms: N_3  and  C_4
REMARK    3  A    between atoms: C_8  and  N_9
REMARK    4  A    between atoms: C_15  and  N_16
REMARK    5  A    between atoms: N_16  and  C_17
REMARK                            x       y       z     vdW  Elec       q    Type
REMARK                         _______ _______ _______ _____ _____    ______ ____
ROOT
ATOM      1  N   UNL     1       1.701   5.721  21.037  0.00  0.00    +0.000 N 
ATOM      2  C   UNL     1       2.543   4.652  20.756  0.00  0.00    +0.000 A 
ATOM      3  N   UNL     1       2.255   3.491  21.367  0.00  0.00    +0.000 NA
ATOM      4  C   UNL     1       3.058   2.444  21.085  0.00  0.00    +0.000 A 
ATOM      5  C   UNL     1       4.145   2.529  20.254  0.00  0.00    +0.000 A 
ATOM      6  F   UNL     1       4.921   1.464  20.013  0.00  0.00    +0.000 F 
ATOM      7  C   UNL     1       4.375   3.752  19.659  0.00  0.00    +0.000 A 
ATOM      8  N   UNL     1       3.566   4.795  19.903  0.00  0.00    +0.000 NA
ATOM      9  H   UNL     1       0.962   5.424  21.656  0.00  0.00    +0.000 HD
ENDROOT
BRANCH   1  14
ATOM     10  C   UNL     1       0.702   9.270  20.321  0.00  0.00    +0.000 A 
ATOM     11  C   UNL     1       1.412   9.470  19.137  0.00  0.00    +0.000 A 
ATOM     12  C   UNL     1       2.158   8.436  18.575  0.00  0.00    +0.000 A 
ATOM     13  C   UNL     1       2.215   7.194  19.203  0.00  0.00    +0.000 A 
ATOM     14  C   UNL     1       1.559   6.975  20.422  0.00  0.00    +0.000 A 
ATOM     15  C   UNL     1       0.798   8.028  20.960  0.00  0.00    +0.000 A 
BRANCH  10  18
ATOM     16  O   UNL     1       1.488  11.919  21.294  0.00  0.00    +0.000 OA
ATOM     17  C   UNL     1       0.337  11.493  21.363  0.00  0.00    +0.000 C 
ATOM     18  N   UNL     1      -0.114  10.265  20.909  0.00  0.00    +0.000 N 
ATOM     19  H   UNL     1      -1.122  10.127  20.904  0.00  0.00    +0.000 HD
BRANCH  17  20
ATOM     20  C   UNL     1      -0.705  12.386  21.943  0.00  0.00    +0.000 A 
ATOM     21  C   UNL     1      -1.934  12.482  21.302  0.00  0.00    +0.000 A 
ATOM     22  N   UNL     1      -2.924  13.307  21.732  0.00  0.00    +0.000 NA
ATOM     23  C   UNL     1      -2.620  14.040  22.824  0.00  0.00    +0.000 A 
ATOM     24  C   UNL     1      -1.398  13.937  23.473  0.00  0.00    +0.000 A 
ATOM     25  N   UNL     1      -0.406  13.104  23.062  0.00  0.00    +0.000 NA
ENDBRANCH  17  20
ENDBRANCH  10  18
ENDBRANCH   1  14
BRANCH   7  26
ATOM     26  N   UNL     1       5.461   3.913  18.776  0.00  0.00    +0.000 N 
ATOM     27  H   UNL     1       6.043   3.086  18.749  0.00  0.00    +0.000 HD
BRANCH  26  28
ATOM     28  C   UNL     1       6.112   5.113  18.434  0.00  0.00    +0.000 A 
ATOM     29  C   UNL     1       7.275   5.499  19.116  0.00  0.00    +0.000 A 
ATOM     30  C   UNL     1       8.003   6.618  18.706  0.00  0.00    +0.000 A 
ATOM     31  C   UNL     1       7.574   7.350  17.607  0.00  0.00    +0.000 A 
ATOM     32  F   UNL     1       8.317   8.373  17.164  0.00  0.00    +0.000 F 
ATOM     33  C   UNL     1       6.396   7.026  16.951  0.00  0.00    +0.000 A 
ATOM     34  C   UNL     1       5.661   5.916  17.372  0.00  0.00    +0.000 A 
ENDBRANCH  26  28
ENDBRANCH   7  26
TORSDOF 5
ENDMDL
MODEL 7
REMARK VINA RESULT:      -8.7      4.354      9.542
REMARK  Name = 
REMARK  5 active torsions:
REMARK  status: ('A' for Active; 'I' for Inactive)
REMARK    1  A    between atoms: C_2  and  C_26
REMARK    2  A    between atoms: N_3  and  C_4
REMARK    3  A    between atoms: C_8  and  N_9
REMARK    4  A    between atoms: C_15  and  N_16
REMARK    5  A    between atoms: N_16  and  C_17
REMARK                            x       y       z     vdW  Elec       q    Type
REMARK                         _______ _______ _______ _____ _____    ______ ____
ROOT
ATOM      1  N   UNL     1       1.893   5.956  20.450  0.00  0.00    +0.000 N 
ATOM      2  C   UNL     1       2.709   4.836  20.352  0.00  0.00    +0.000 A 
ATOM      3  N   UNL     1       2.285   3.733  20.992  0.00  0.00    +0.000 NA
ATOM      4  C   UNL     1       3.063   2.636  20.885  0.00  0.00    +0.000 A 
ATOM      5  C   UNL     1       4.252   2.617  20.202  0.00  0.00    +0.000 A 
ATOM      6  F   UNL     1       4.997   1.506  20.134  0.00  0.00    +0.000 F 
ATOM      7  C   UNL     1       4.619   3.785  19.567  0.00  0.00    +0.000 A 
ATOM      8  N   UNL     1       3.839   4.876  19.635  0.00  0.00    +0.000 NA
ATOM      9  H   UNL     1       1.066   5.734  20.984  0.00  0.00    +0.000 HD
ENDROOT
BRANCH   1  14
ATOM     10  C   UNL     1       1.479   9.577  19.543  0.00  0.00    +0.000 A 
ATOM     11  C   UNL     1       2.023   9.551  18.260  0.00  0.00    +0.000 A 
ATOM     12  C   UNL     1       2.467   8.355  17.701  0.00  0.00    +0.000 A 
ATOM     13  C   UNL     1       2.386   7.171  18.431  0.00  0.00    +0.000 A 
ATOM     14  C   UNL     1       1.896   7.169  19.745  0.00  0.00    +0.000 A 
ATOM     15  C   UNL     1       1.438   8.386  20.279  0.00  0.00    +0.000 A 
BRANCH  10  18
ATOM     16  O   UNL     1      -1.249  10.636  19.404  0.00  0.00    +0.000 OA
ATOM     17  C   UNL     1      -0.341  11.198  20.013  0.00  0.00    +0.000 C 
ATOM     18  N   UNL     1       0.964  10.751  20.140  0.00  0.00    +0.000 N 
ATOM     19  H   UNL     1       1.552  11.255  20.801  0.00  0.00    +0.000 HD
BRANCH  17  20
ATOM     20  C   UNL     1      -0.662  12.461  20.735  0.00  0.00    +0.000 A 
ATOM     21  C   UNL     1      -1.375  13.449  20.066  0.00  0.00    +0.000 A 
ATOM     22  N   UNL     1      -1.671  14.649  20.628  0.00  0.00    +0.000 NA
ATOM     23  C   UNL     1      -1.207  14.819  21.885  0.00  0.00    +0.000 A 
ATOM     24  C   UNL     1      -0.505  13.829  22.559  0.00  0.00    +0.000 A 
ATOM     25  N   UNL     1      -0.217  12.619  22.013  0.00  0.00    +0.000 NA
ENDBRANCH  17  20
ENDBRANCH  10  18
ENDBRANCH   1  14
BRANCH   7  26
ATOM     26  N   UNL     1       5.817   3.838  18.827  0.00  0.00    +0.000 N 
ATOM     27  H   UNL     1       6.608   4.063  19.417  0.00  0.00    +0.000 HD
BRANCH  26  28
ATOM     28  C   UNL     1       5.967   4.181  17.470  0.00  0.00    +0.000 A 
ATOM     29  C   UNL     1       7.196   4.673  17.003  0.00  0.00    +0.000 A 
ATOM     30  C   UNL     1       7.401   4.897  15.640  0.00  0.00    +0.000 A 
ATOM     31  C   UNL     1       6.380   4.623  14.739  0.00  0.00    +0.000 A 
ATOM     32  F   UNL     1       6.605   4.759  13.425  0.00  0.00    +0.000 F 
ATOM     33  C   UNL     1       5.137   4.193  15.179  0.00  0.00    +0.000 A 
ATOM     34  C   UNL     1       4.930   3.984  16.544  0.00  0.00    +0.000 A 
ENDBRANCH  26  28
ENDBRANCH   7  26
TORSDOF 5
ENDMDL
MODEL 8
REMARK VINA RESULT:      -8.5      3.864      9.203
REMARK  Name = 
REMARK  5 active torsions:
REMARK  status: ('A' for Active; 'I' for Inactive)
REMARK    1  A    between atoms: C_2  and  C_26
REMARK    2  A    between atoms: N_3  and  C_4
REMARK    3  A    between atoms: C_8  and  N_9
REMARK    4  A    between atoms: C_15  and  N_16
REMARK    5  A    between atoms: N_16  and  C_17
REMARK                            x       y       z     vdW  Elec       q    Type
REMARK                         _______ _______ _______ _____ _____    ______ ____
ROOT
ATOM      1  N   UNL     1       3.602   7.618  17.148  0.00  0.00    +0.000 N 
ATOM      2  C   UNL     1       4.240   6.455  16.737  0.00  0.00    +0.000 A 
ATOM      3  N   UNL     1       5.141   6.588  15.749  0.00  0.00    +0.000 NA
ATOM      4  C   UNL     1       5.779   5.465  15.357  0.00  0.00    +0.000 A 
ATOM      5  C   UNL     1       5.521   4.227  15.887  0.00  0.00    +0.000 A 
ATOM      6  F   UNL     1       6.172   3.138  15.457  0.00  0.00    +0.000 F 
ATOM      7  C   UNL     1       4.588   4.170  16.901  0.00  0.00    +0.000 A 
ATOM      8  N   UNL     1       3.968   5.283  17.325  0.00  0.00    +0.000 NA
ATOM      9  H   UNL     1       3.960   8.408  16.633  0.00  0.00    +0.000 HD
ENDROOT
BRANCH   1  14
ATOM     10  C   UNL     1       1.353   9.337  19.617  0.00  0.00    +0.000 A 
ATOM     11  C   UNL     1       1.173   8.292  20.523  0.00  0.00    +0.000 A 
ATOM     12  C   UNL     1       1.821   7.073  20.338  0.00  0.00    +0.000 A 
ATOM     13  C   UNL     1       2.645   6.882  19.231  0.00  0.00    +0.000 A 
ATOM     14  C   UNL     1       2.806   7.891  18.271  0.00  0.00    +0.000 A 
ATOM     15  C   UNL     1       2.155   9.118  18.490  0.00  0.00    +0.000 A 
BRANCH  10  18
ATOM     16  O   UNL     1      -1.357  10.189  18.902  0.00  0.00    +0.000 OA
ATOM     17  C   UNL     1      -0.525  10.945  19.401  0.00  0.00    +0.000 C 
ATOM     18  N   UNL     1       0.764  10.612  19.782  0.00  0.00    +0.000 N 
ATOM     19  H   UNL     1       1.273  11.314  20.316  0.00  0.00    +0.000 HD
BRANCH  17  20
ATOM     20  C   UNL     1      -0.936  12.350  19.677  0.00  0.00    +0.000 A 
ATOM     21  C   UNL     1      -0.229  13.383  19.072  0.00  0.00    +0.000 A 
ATOM     22  N   UNL     1      -0.503  14.693  19.303  0.00  0.00    +0.000 NA
ATOM     23  C   UNL     1      -1.506  14.920  20.177  0.00  0.00    +0.000 A 
ATOM     24  C   UNL     1      -2.220  13.890  20.774  0.00  0.00    +0.000 A 
ATOM     25  N   UNL     1      -1.967  12.577  20.538  0.00  0.00    +0.000 NA
ENDBRANCH  17  20
ENDBRANCH  10  18
ENDBRANCH   1  14
BRANCH   7  26
ATOM     26  N   UNL     1       4.284   2.936  17.510  0.00  0.00    +0.000 N 
ATOM     27  H   UNL     1       4.357   2.170  16.854  0.00  0.00    +0.000 HD
BRANCH  26  28
ATOM     28  C   UNL     1       3.417   2.712  18.596  0.00  0.00    +0.000 A 
ATOM     29  C   UNL     1       3.915   2.738  19.908  0.00  0.00    +0.000 A 
ATOM     30  C   UNL     1       3.049   2.645  21.000  0.00  0.00    +0.000 A 
ATOM     31  C   UNL     1       1.682   2.532  20.783  0.00  0.00    +0.000 A 
ATOM     32  F   UNL     1       0.846   2.526  21.830  0.00  0.00    +0.000 F 
ATOM     33  C   UNL     1       1.169   2.444  19.498  0.00  0.00    +0.000 A 
ATOM     34  C   UNL     1       2.038   2.522  18.408  0.00  0.00    +0.000 A 
ENDBRANCH  26  28
ENDBRANCH   7  26
TORSDOF 5
ENDMDL
MODEL 9
REMARK VINA RESULT:      -8.4      4.284      9.879
REMARK  Name = 
REMARK  5 active torsions:
REMARK  status: ('A' for Active; 'I' for Inactive)
REMARK    1  A    between atoms: C_2  and  C_26
REMARK    2  A    between atoms: N_3  and  C_4
REMARK    3  A    between atoms: C_8  and  N_9
REMARK    4  A    between atoms: C_15  and  N_16
REMARK    5  A    between atoms: N_16  and  C_17
REMARK                            x       y       z     vdW  Elec       q    Type
REMARK                         _______ _______ _______ _____ _____    ______ ____
ROOT
ATOM      1  N   UNL     1       1.765   6.689  21.107  0.00  0.00    +0.000 N 
ATOM      2  C   UNL     1       2.130   5.474  20.541  0.00  0.00    +0.000 A 
ATOM      3  N   UNL     1       2.175   4.420  21.372  0.00  0.00    +0.000 NA
ATOM      4  C   UNL     1       2.511   3.233  20.825  0.00  0.00    +0.000 A 
ATOM      5  C   UNL     1       2.836   3.077  19.502  0.00  0.00    +0.000 A 
ATOM      6  F   UNL     1       3.174   1.879  19.007  0.00  0.00    +0.000 F 
ATOM      7  C   UNL     1       2.761   4.203  18.710  0.00  0.00    +0.000 A 
ATOM      8  N   UNL     1       2.397   5.385  19.231  0.00  0.00    +0.000 NA
ATOM      9  H   UNL     1       1.556   6.563  22.087  0.00  0.00    +0.000 HD
ENDROOT
BRANCH   1  14
ATOM     10  C   UNL     1       0.247  10.077  20.537  0.00  0.00    +0.000 A 
ATOM     11  C   UNL     1       0.787  10.357  19.282  0.00  0.00    +0.000 A 
ATOM     12  C   UNL     1       1.590   9.424  18.631  0.00  0.00    +0.000 A 
ATOM     13  C   UNL     1       1.876   8.203  19.239  0.00  0.00    +0.000 A 
ATOM     14  C   UNL     1       1.395   7.910  20.523  0.00  0.00    +0.000 A 
ATOM     15  C   UNL     1       0.573   8.861  21.152  0.00  0.00    +0.000 A 
BRANCH  10  18
ATOM     16  O   UNL     1      -0.070  10.431  23.428  0.00  0.00    +0.000 OA
ATOM     17  C   UNL     1      -0.724  11.061  22.599  0.00  0.00    +0.000 C 
ATOM     18  N   UNL     1      -0.617  10.963  21.221  0.00  0.00    +0.000 N 
ATOM     19  H   UNL     1      -1.122  11.660  20.679  0.00  0.00    +0.000 HD
BRANCH  17  20
ATOM     20  C   UNL     1      -1.699  12.069  23.099  0.00  0.00    +0.000 A 
ATOM     21  C   UNL     1      -1.286  13.390  23.228  0.00  0.00    +0.000 A 
ATOM     22  N   UNL     1      -2.091  14.366  23.720  0.00  0.00    +0.000 NA
ATOM     23  C   UNL     1      -3.324  13.956  24.090  0.00  0.00    +0.000 A 
ATOM     24  C   UNL     1      -3.742  12.640  23.951  0.00  0.00    +0.000 A 
ATOM     25  N   UNL     1      -2.952  11.658  23.445  0.00  0.00    +0.000 NA
ENDBRANCH  17  20
ENDBRANCH  10  18
ENDBRANCH   1  14
BRANCH   7  26
ATOM     26  N   UNL     1       3.059   4.118  17.335  0.00  0.00    +0.000 N 
ATOM     27  H   UNL     1       2.508   3.402  16.879  0.00  0.00    +0.000 HD
BRANCH  26  28
ATOM     28  C   UNL     1       4.282   4.422  16.706  0.00  0.00    +0.000 A 
ATOM     29  C   UNL     1       5.039   3.399  16.116  0.00  0.00    +0.000 A 
ATOM     30  C   UNL     1       6.187   3.698  15.379  0.00  0.00    +0.000 A 
ATOM     31  C   UNL     1       6.577   5.022  15.225  0.00  0.00    +0.000 A 
ATOM     32  F   UNL     1       7.630   5.314  14.451  0.00  0.00    +0.000 F 
ATOM     33  C   UNL     1       5.881   6.048  15.848  0.00  0.00    +0.000 A 
ATOM     34  C   UNL     1       4.742   5.744  16.596  0.00  0.00    +0.000 A 
ENDBRANCH  26  28
ENDBRANCH   7  26
TORSDOF 5
ENDMDL
