MODEL 1
REMARK VINA RESULT:      -8.0      0.000      0.000
REMARK  Name = 
REMARK  7 active torsions:
REMARK  status: ('A' for Active; 'I' for Inactive)
REMARK    1  A    between atoms: O_1  and  C_2
REMARK    2  A    between atoms: C_8  and  C_9
REMARK    3  A    between atoms: N_11  and  C_12
REMARK    4  A    between atoms: C_12  and  N_14
REMARK    5  A    between atoms: N_14  and  C_15
REMARK    6  A    between atoms: C_21  and  C_22
REMARK    7  A    between atoms: C_25  and  N_26
REMARK                            x       y       z     vdW  Elec       q    Type
REMARK                         _______ _______ _______ _____ _____    ______ ____
ROOT
ATOM      1  C   UNL     1       1.582   8.684  19.379  0.00  0.00    +0.000 C 
ATOM      2  N   UNL     1       1.214   8.876  20.610  0.00  0.00    +0.000 NA
ATOM      3  N   UNL     1       0.345   9.959  20.605  0.00  0.00    +0.000 N 
ATOM      4  C   UNL     1       0.162  10.550  19.255  0.00  0.00    +0.000 C 
ATOM      5  C   UNL     1       1.019   9.639  18.373  0.00  0.00    +0.000 C 
ENDROOT
BRANCH   1  12
ATOM      6  C   UNL     1       2.580   6.372  19.674  0.00  0.00    +0.000 A 
ATOM      7  C   UNL     1       3.416   5.346  19.221  0.00  0.00    +0.000 A 
ATOM      8  C   UNL     1       4.128   5.510  18.033  0.00  0.00    +0.000 A 
ATOM      9  C   UNL     1       4.015   6.704  17.314  0.00  0.00    +0.000 A 
ATOM     10 CL   UNL     1       4.910   6.901  15.857  0.00  0.00    +0.000 Cl
ATOM     11  C   UNL     1       3.182   7.725  17.761  0.00  0.00    +0.000 A 
ATOM     12  C   UNL     1       2.458   7.564  18.954  0.00  0.00    +0.000 A 
BRANCH   6  13
ATOM     13  O   UNL     1       1.883   6.171  20.832  0.00  0.00    +0.000 OA
ATOM     14  H   UNL     1       1.490   5.282  20.832  0.00  0.00    +0.000 HD
ENDBRANCH   6  13
ENDBRANCH   1  12
BRANCH   4  15
ATOM     15  C   UNL     1       0.589  12.021  19.130  0.00  0.00    +0.000 A 
ATOM     16  C   UNL     1      -0.315  13.010  18.708  0.00  0.00    +0.000 A 
ATOM     17  C   UNL     1       0.068  14.349  18.581  0.00  0.00    +0.000 A 
ATOM     18  C   UNL     1       1.353  14.782  18.918  0.00  0.00    +0.000 A 
ATOM     19  C   UNL     1       2.235  13.805  19.381  0.00  0.00    +0.000 A 
ATOM     20  C   UNL     1       1.867  12.463  19.475  0.00  0.00    +0.000 A 
BRANCH  18  21
ATOM     21  N   UNL     1       1.765  16.097  18.850  0.00  0.00    +0.000 N 
ATOM     22  C   UNL     1       0.820  17.214  18.948  0.00  0.00    +0.000 C 
ATOM     23  C   UNL     1       0.625  17.888  17.587  0.00  0.00    +0.000 C 
ATOM     24  O   UNL     1       1.882  18.277  17.005  0.00  0.00    +0.000 OA
ATOM     25  C   UNL     1       2.715  17.123  16.813  0.00  0.00    +0.000 C 
ATOM     26  C   UNL     1       3.019  16.410  18.140  0.00  0.00    +0.000 C 
ENDBRANCH  18  21
ENDBRANCH   4  15
BRANCH   3  27
ATOM     27  C   UNL     1      -0.379  10.245  21.773  0.00  0.00    +0.000 C 
ATOM     28  S   UNL     1      -0.124   9.477  23.252  0.00  0.00    +0.000 S 
BRANCH  27  29
ATOM     29  N   UNL     1      -1.316  11.248  21.559  0.00  0.00    +0.000 N 
ATOM     30  H   UNL     1      -1.899  11.070  20.748  0.00  0.00    +0.000 HD
BRANCH  29  31
ATOM     31  C   UNL     1      -1.583  12.396  22.332  0.00  0.00    +0.000 A 
ATOM     32  C   UNL     1      -2.764  12.431  23.078  0.00  0.00    +0.000 A 
ATOM     33  C   UNL     1      -3.063  13.536  23.884  0.00  0.00    +0.000 A 
ATOM     34  C   UNL     1      -2.156  14.588  23.996  0.00  0.00    +0.000 A 
ATOM     35  C   UNL     1      -0.955  14.541  23.292  0.00  0.00    +0.000 A 
ATOM     36  C   UNL     1      -0.677  13.455  22.455  0.00  0.00    +0.000 A 
ENDBRANCH  29  31
ENDBRANCH  27  29
ENDBRANCH   3  27
TORSDOF 7
ENDMDL
MODEL 2
REMARK VINA RESULT:      -7.9      3.428      8.131
REMARK  Name = 
REMARK  7 active torsions:
REMARK  status: ('A' for Active; 'I' for Inactive)
REMARK    1  A    between atoms: O_1  and  C_2
REMARK    2  A    between atoms: C_8  and  C_9
REMARK    3  A    between atoms: N_11  and  C_12
REMARK    4  A    between atoms: C_12  and  N_14
REMARK    5  A    between atoms: N_14  and  C_15
REMARK    6  A    between atoms: C_21  and  C_22
REMARK    7  A    between atoms: C_25  and  N_26
REMARK                            x       y       z     vdW  Elec       q    Type
REMARK                         _______ _______ _______ _____ _____    ______ ____
ROOT
ATOM      1  C   UNL     1       0.049  13.657  18.930  0.00  0.00    +0.000 C 
ATOM      2  N   UNL     1      -0.739  13.191  18.008  0.00  0.00    +0.000 NA
ATOM      3  N   UNL     1      -1.195  11.958  18.457  0.00  0.00    +0.000 N 
ATOM      4  C   UNL     1      -0.622  11.569  19.770  0.00  0.00    +0.000 C 
ATOM      5  C   UNL     1       0.248  12.778  20.126  0.00  0.00    +0.000 C 
ENDROOT
BRANCH   1  12
ATOM      6  C   UNL     1      -0.033  16.191  18.973  0.00  0.00    +0.000 A 
ATOM      7  C   UNL     1       0.621  17.426  18.907  0.00  0.00    +0.000 A 
ATOM      8  C   UNL     1       2.005  17.466  18.736  0.00  0.00    +0.000 A 
ATOM      9  C   UNL     1       2.725  16.273  18.615  0.00  0.00    +0.000 A 
ATOM     10 CL   UNL     1       4.431  16.335  18.389  0.00  0.00    +0.000 Cl
ATOM     11  C   UNL     1       2.077  15.043  18.683  0.00  0.00    +0.000 A 
ATOM     12  C   UNL     1       0.685  14.996  18.860  0.00  0.00    +0.000 A 
BRANCH   6  13
ATOM     13  O   UNL     1      -1.387  16.188  19.159  0.00  0.00    +0.000 OA
ATOM     14  H   UNL     1      -1.674  17.046  19.513  0.00  0.00    +0.000 HD
ENDBRANCH   6  13
ENDBRANCH   1  12
BRANCH   4  15
ATOM     15  C   UNL     1       0.197  10.269  19.758  0.00  0.00    +0.000 A 
ATOM     16  C   UNL     1       1.029   9.940  18.675  0.00  0.00    +0.000 A 
ATOM     17  C   UNL     1       1.769   8.754  18.652  0.00  0.00    +0.000 A 
ATOM     18  C   UNL     1       1.762   7.860  19.726  0.00  0.00    +0.000 A 
ATOM     19  C   UNL     1       0.970   8.211  20.819  0.00  0.00    +0.000 A 
ATOM     20  C   UNL     1       0.202   9.377  20.831  0.00  0.00    +0.000 A 
BRANCH  18  21
ATOM     21  N   UNL     1       2.506   6.699  19.767  0.00  0.00    +0.000 N 
ATOM     22  C   UNL     1       3.348   6.275  18.644  0.00  0.00    +0.000 C 
ATOM     23  C   UNL     1       2.729   5.078  17.917  0.00  0.00    +0.000 C 
ATOM     24  O   UNL     1       2.436   4.001  18.825  0.00  0.00    +0.000 OA
ATOM     25  C   UNL     1       1.506   4.441  19.827  0.00  0.00    +0.000 C 
ATOM     26  C   UNL     1       2.067   5.608  20.655  0.00  0.00    +0.000 C 
ENDBRANCH  18  21
ENDBRANCH   4  15
BRANCH   3  27
ATOM     27  C   UNL     1      -2.240  11.334  17.756  0.00  0.00    +0.000 C 
ATOM     28  S   UNL     1      -2.083   9.869  16.936  0.00  0.00    +0.000 S 
BRANCH  27  29
ATOM     29  N   UNL     1      -3.417  12.067  17.839  0.00  0.00    +0.000 N 
ATOM     30  H   UNL     1      -3.415  12.878  17.230  0.00  0.00    +0.000 HD
BRANCH  29  31
ATOM     31  C   UNL     1      -4.583  11.797  18.585  0.00  0.00    +0.000 A 
ATOM     32  C   UNL     1      -4.726  12.409  19.833  0.00  0.00    +0.000 A 
ATOM     33  C   UNL     1      -5.877  12.197  20.601  0.00  0.00    +0.000 A 
ATOM     34  C   UNL     1      -6.919  11.417  20.102  0.00  0.00    +0.000 A 
ATOM     35  C   UNL     1      -6.805  10.840  18.839  0.00  0.00    +0.000 A 
ATOM     36  C   UNL     1      -5.637  11.021  18.091  0.00  0.00    +0.000 A 
ENDBRANCH  29  31
ENDBRANCH  27  29
ENDBRANCH   3  27
TORSDOF 7
ENDMDL
MODEL 3
REMARK VINA RESULT:      -7.9      4.528      8.516
REMARK  Name = 
REMARK  7 active torsions:
REMARK  status: ('A' for Active; 'I' for Inactive)
REMARK    1  A    between atoms: O_1  and  C_2
REMARK    2  A    between atoms: C_8  and  C_9
REMARK    3  A    between atoms: N_11  and  C_12
REMARK    4  A    between atoms: C_12  and  N_14
REMARK    5  A    between atoms: N_14  and  C_15
REMARK    6  A    between atoms: C_21  and  C_22
REMARK    7  A    between atoms: C_25  and  N_26
REMARK                            x       y       z     vdW  Elec       q    Type
REMARK                         _______ _______ _______ _____ _____    ______ ____
ROOT
ATOM      1  C   UNL     1       5.449   4.442  15.650  0.00  0.00    +0.000 C 
ATOM      2  N   UNL     1       6.190   4.391  16.716  0.00  0.00    +0.000 NA
ATOM      3  N   UNL     1       5.334   4.493  17.805  0.00  0.00    +0.000 N 
ATOM      4  C   UNL     1       3.912   4.665  17.412  0.00  0.00    +0.000 C 
ATOM      5  C   UNL     1       3.980   4.609  15.883  0.00  0.00    +0.000 C 
ENDROOT
BRANCH   1  12
ATOM      6  C   UNL     1       7.165   4.907  13.841  0.00  0.00    +0.000 A 
ATOM      7  C   UNL     1       7.628   4.721  12.534  0.00  0.00    +0.000 A 
ATOM      8  C   UNL     1       6.912   3.906  11.657  0.00  0.00    +0.000 A 
ATOM      9  C   UNL     1       5.729   3.295  12.085  0.00  0.00    +0.000 A 
ATOM     10 CL   UNL     1       4.846   2.303  10.990  0.00  0.00    +0.000 Cl
ATOM     11  C   UNL     1       5.268   3.476  13.385  0.00  0.00    +0.000 A 
ATOM     12  C   UNL     1       5.986   4.291  14.275  0.00  0.00    +0.000 A 
BRANCH   6  13
ATOM     13  O   UNL     1       7.900   5.697  14.679  0.00  0.00    +0.000 OA
ATOM     14  H   UNL     1       7.414   5.840  15.509  0.00  0.00    +0.000 HD
ENDBRANCH   6  13
ENDBRANCH   1  12
BRANCH   4  15
ATOM     15  C   UNL     1       3.259   5.967  17.900  0.00  0.00    +0.000 A 
ATOM     16  C   UNL     1       2.535   6.013  19.103  0.00  0.00    +0.000 A 
ATOM     17  C   UNL     1       1.928   7.191  19.549  0.00  0.00    +0.000 A 
ATOM     18  C   UNL     1       2.055   8.396  18.852  0.00  0.00    +0.000 A 
ATOM     19  C   UNL     1       2.814   8.357  17.682  0.00  0.00    +0.000 A 
ATOM     20  C   UNL     1       3.391   7.175  17.214  0.00  0.00    +0.000 A 
BRANCH  18  21
ATOM     21  N   UNL     1       1.512   9.591  19.274  0.00  0.00    +0.000 N 
ATOM     22  C   UNL     1       1.035   9.788  20.647  0.00  0.00    +0.000 C 
ATOM     23  C   UNL     1      -0.495   9.825  20.695  0.00  0.00    +0.000 C 
ATOM     24  O   UNL     1      -1.029  10.799  19.781  0.00  0.00    +0.000 OA
ATOM     25  C   UNL     1      -0.636  10.480  18.437  0.00  0.00    +0.000 C 
ATOM     26  C   UNL     1       0.892  10.479  18.273  0.00  0.00    +0.000 C 
ENDBRANCH  18  21
ENDBRANCH   4  15
BRANCH   3  27
ATOM     27  C   UNL     1       5.847   4.242  19.087  0.00  0.00    +0.000 C 
ATOM     28  S   UNL     1       7.001   5.206  19.848  0.00  0.00    +0.000 S 
BRANCH  27  29
ATOM     29  N   UNL     1       5.270   3.110  19.653  0.00  0.00    +0.000 N 
ATOM     30  H   UNL     1       5.960   2.423  19.938  0.00  0.00    +0.000 HD
BRANCH  29  31
ATOM     31  C   UNL     1       3.912   2.843  19.922  0.00  0.00    +0.000 A 
ATOM     32  C   UNL     1       3.359   3.354  21.099  0.00  0.00    +0.000 A 
ATOM     33  C   UNL     1       2.009   3.142  21.400  0.00  0.00    +0.000 A 
ATOM     34  C   UNL     1       1.188   2.467  20.499  0.00  0.00    +0.000 A 
ATOM     35  C   UNL     1       1.719   1.994  19.301  0.00  0.00    +0.000 A 
ATOM     36  C   UNL     1       3.078   2.172  19.022  0.00  0.00    +0.000 A 
ENDBRANCH  29  31
ENDBRANCH  27  29
ENDBRANCH   3  27
TORSDOF 7
ENDMDL
MODEL 4
REMARK VINA RESULT:      -7.9      2.746      7.740
REMARK  Name = 
REMARK  7 active torsions:
REMARK  status: ('A' for Active; 'I' for Inactive)
REMARK    1  A    between atoms: O_1  and  C_2
REMARK    2  A    between atoms: C_8  and  C_9
REMARK    3  A    between atoms: N_11  and  C_12
REMARK    4  A    between atoms: C_12  and  N_14
REMARK    5  A    between atoms: N_14  and  C_15
REMARK    6  A    between atoms: C_21  and  C_22
REMARK    7  A    between atoms: C_25  and  N_26
REMARK                            x       y       z     vdW  Elec       q    Type
REMARK                         _______ _______ _______ _____ _____    ______ ____
ROOT
ATOM      1  C   UNL     1       1.248  13.322  18.948  0.00  0.00    +0.000 C 
ATOM      2  N   UNL     1       0.178  12.999  18.284  0.00  0.00    +0.000 NA
ATOM      3  N   UNL     1      -0.375  11.899  18.927  0.00  0.00    +0.000 N 
ATOM      4  C   UNL     1       0.427  11.441  20.089  0.00  0.00    +0.000 C 
ATOM      5  C   UNL     1       1.571  12.459  20.126  0.00  0.00    +0.000 C 
ENDROOT
BRANCH   1  12
ATOM      6  C   UNL     1       1.587  15.807  18.568  0.00  0.00    +0.000 A 
ATOM      7  C   UNL     1       2.427  16.882  18.260  0.00  0.00    +0.000 A 
ATOM      8  C   UNL     1       3.780  16.651  18.010  0.00  0.00    +0.000 A 
ATOM      9  C   UNL     1       4.282  15.346  18.052  0.00  0.00    +0.000 A 
ATOM     10 CL   UNL     1       5.950  15.071  17.727  0.00  0.00    +0.000 Cl
ATOM     11  C   UNL     1       3.448  14.275  18.361  0.00  0.00    +0.000 A 
ATOM     12  C   UNL     1       2.087  14.502  18.619  0.00  0.00    +0.000 A 
BRANCH   6  13
ATOM     13  O   UNL     1       0.271  16.070  18.825  0.00  0.00    +0.000 OA
ATOM     14  H   UNL     1      -0.199  16.251  17.994  0.00  0.00    +0.000 HD
ENDBRANCH   6  13
ENDBRANCH   1  12
BRANCH   4  15
ATOM     15  C   UNL     1       0.955  10.002  19.984  0.00  0.00    +0.000 A 
ATOM     16  C   UNL     1       0.813   9.094  21.046  0.00  0.00    +0.000 A 
ATOM     17  C   UNL     1       1.300   7.786  20.962  0.00  0.00    +0.000 A 
ATOM     18  C   UNL     1       1.904   7.297  19.801  0.00  0.00    +0.000 A 
ATOM     19  C   UNL     1       2.002   8.188  18.732  0.00  0.00    +0.000 A 
ATOM     20  C   UNL     1       1.550   9.505  18.823  0.00  0.00    +0.000 A 
BRANCH  18  21
ATOM     21  N   UNL     1       2.361   6.003  19.656  0.00  0.00    +0.000 N 
ATOM     22  C   UNL     1       2.680   5.433  18.343  0.00  0.00    +0.000 C 
ATOM     23  C   UNL     1       1.621   4.413  17.918  0.00  0.00    +0.000 C 
ATOM     24  O   UNL     1       1.424   3.404  18.924  0.00  0.00    +0.000 OA
ATOM     25  C   UNL     1       0.987   4.011  20.151  0.00  0.00    +0.000 C 
ATOM     26  C   UNL     1       2.019   5.012  20.693  0.00  0.00    +0.000 C 
ENDBRANCH  18  21
ENDBRANCH   4  15
BRANCH   3  27
ATOM     27  C   UNL     1      -1.661  11.480  18.551  0.00  0.00    +0.000 C 
ATOM     28  S   UNL     1      -1.998   9.987  17.843  0.00  0.00    +0.000 S 
BRANCH  27  29
ATOM     29  N   UNL     1      -2.618  12.442  18.852  0.00  0.00    +0.000 N 
ATOM     30  H   UNL     1      -2.795  13.071  18.076  0.00  0.00    +0.000 HD
BRANCH  29  31
ATOM     31  C   UNL     1      -3.381  12.602  20.027  0.00  0.00    +0.000 A 
ATOM     32  C   UNL     1      -4.773  12.555  19.923  0.00  0.00    +0.000 A 
ATOM     33  C   UNL     1      -5.576  12.680  21.063  0.00  0.00    +0.000 A 
ATOM     34  C   UNL     1      -4.991  12.794  22.323  0.00  0.00    +0.000 A 
ATOM     35  C   UNL     1      -3.603  12.795  22.442  0.00  0.00    +0.000 A 
ATOM     36  C   UNL     1      -2.804  12.711  21.297  0.00  0.00    +0.000 A 
ENDBRANCH  29  31
ENDBRANCH  27  29
ENDBRANCH   3  27
TORSDOF 7
ENDMDL
MODEL 5
REMARK VINA RESULT:      -7.8      3.699      8.142
REMARK  Name = 
REMARK  7 active torsions:
REMARK  status: ('A' for Active; 'I' for Inactive)
REMARK    1  A    between atoms: O_1  and  C_2
REMARK    2  A    between atoms: C_8  and  C_9
REMARK    3  A    between atoms: N_11  and  C_12
REMARK    4  A    between atoms: C_12  and  N_14
REMARK    5  A    between atoms: N_14  and  C_15
REMARK    6  A    between atoms: C_21  and  C_22
REMARK    7  A    between atoms: C_25  and  N_26
REMARK                            x       y       z     vdW  Elec       q    Type
REMARK                         _______ _______ _______ _____ _____    ______ ____
ROOT
ATOM      1  C   UNL     1       0.885  13.446  18.857  0.00  0.00    +0.000 C 
ATOM      2  N   UNL     1      -0.148  13.052  18.176  0.00  0.00    +0.000 NA
ATOM      3  N   UNL     1      -0.651  11.931  18.823  0.00  0.00    +0.000 N 
ATOM      4  C   UNL     1       0.149  11.538  20.010  0.00  0.00    +0.000 C 
ATOM      5  C   UNL     1       1.232  12.620  20.056  0.00  0.00    +0.000 C 
ENDROOT
BRANCH   1  12
ATOM      6  C   UNL     1       2.957  14.632  18.000  0.00  0.00    +0.000 A 
ATOM      7  C   UNL     1       3.639  15.817  17.702  0.00  0.00    +0.000 A 
ATOM      8  C   UNL     1       3.016  17.046  17.923  0.00  0.00    +0.000 A 
ATOM      9  C   UNL     1       1.725  17.085  18.458  0.00  0.00    +0.000 A 
ATOM     10 CL   UNL     1       0.973  18.607  18.742  0.00  0.00    +0.000 Cl
ATOM     11  C   UNL     1       1.044  15.908  18.754  0.00  0.00    +0.000 A 
ATOM     12  C   UNL     1       1.662  14.668  18.528  0.00  0.00    +0.000 A 
BRANCH   6  13
ATOM     13  O   UNL     1       3.588  13.446  17.754  0.00  0.00    +0.000 OA
ATOM     14  H   UNL     1       4.290  13.575  17.095  0.00  0.00    +0.000 HD
ENDBRANCH   6  13
ENDBRANCH   1  12
BRANCH   4  15
ATOM     15  C   UNL     1       0.761  10.130  19.939  0.00  0.00    +0.000 A 
ATOM     16  C   UNL     1       0.677   9.242  21.024  0.00  0.00    +0.000 A 
ATOM     17  C   UNL     1       1.240   7.964  20.971  0.00  0.00    +0.000 A 
ATOM     18  C   UNL     1       1.869   7.482  19.820  0.00  0.00    +0.000 A 
ATOM     19  C   UNL     1       1.911   8.350  18.728  0.00  0.00    +0.000 A 
ATOM     20  C   UNL     1       1.381   9.639  18.789  0.00  0.00    +0.000 A 
BRANCH  18  21
ATOM     21  N   UNL     1       2.402   6.215  19.706  0.00  0.00    +0.000 N 
ATOM     22  C   UNL     1       2.817   5.659  18.414  0.00  0.00    +0.000 C 
ATOM     23  C   UNL     1       1.837   4.581  17.941  0.00  0.00    +0.000 C 
ATOM     24  O   UNL     1       1.645   3.566  18.942  0.00  0.00    +0.000 OA
ATOM     25  C   UNL     1       1.114   4.152  20.142  0.00  0.00    +0.000 C 
ATOM     26  C   UNL     1       2.062   5.210  20.729  0.00  0.00    +0.000 C 
ENDBRANCH  18  21
ENDBRANCH   4  15
BRANCH   3  27
ATOM     27  C   UNL     1      -1.902  11.433  18.427  0.00  0.00    +0.000 C 
ATOM     28  S   UNL     1      -2.122   9.970  17.617  0.00  0.00    +0.000 S 
BRANCH  27  29
ATOM     29  N   UNL     1      -2.933  12.288  18.801  0.00  0.00    +0.000 N 
ATOM     30  H   UNL     1      -2.618  13.243  18.930  0.00  0.00    +0.000 HD
BRANCH  29  31
ATOM     31  C   UNL     1      -4.307  12.012  18.953  0.00  0.00    +0.000 A 
ATOM     32  C   UNL     1      -4.901  12.277  20.189  0.00  0.00    +0.000 A 
ATOM     33  C   UNL     1      -6.268  12.049  20.384  0.00  0.00    +0.000 A 
ATOM     34  C   UNL     1      -7.063  11.607  19.328  0.00  0.00    +0.000 A 
ATOM     35  C   UNL     1      -6.489  11.384  18.078  0.00  0.00    +0.000 A 
ATOM     36  C   UNL     1      -5.114  11.575  17.898  0.00  0.00    +0.000 A 
ENDBRANCH  29  31
ENDBRANCH  27  29
ENDBRANCH   3  27
TORSDOF 7
ENDMDL
MODEL 6
REMARK VINA RESULT:      -7.8      0.752      1.485
REMARK  Name = 
REMARK  7 active torsions:
REMARK  status: ('A' for Active; 'I' for Inactive)
REMARK    1  A    between atoms: O_1  and  C_2
REMARK    2  A    between atoms: C_8  and  C_9
REMARK    3  A    between atoms: N_11  and  C_12
REMARK    4  A    between atoms: C_12  and  N_14
REMARK    5  A    between atoms: N_14  and  C_15
REMARK    6  A    between atoms: C_21  and  C_22
REMARK    7  A    between atoms: C_25  and  N_26
REMARK                            x       y       z     vdW  Elec       q    Type
REMARK                         _______ _______ _______ _____ _____    ______ ____
ROOT
ATOM      1  C   UNL     1       1.659   8.606  19.302  0.00  0.00    +0.000 C 
ATOM      2  N   UNL     1       1.317   8.854  20.530  0.00  0.00    +0.000 NA
ATOM      3  N   UNL     1       0.464   9.950  20.495  0.00  0.00    +0.000 N 
ATOM      4  C   UNL     1       0.265  10.487  19.125  0.00  0.00    +0.000 C 
ATOM      5  C   UNL     1       1.092   9.527  18.267  0.00  0.00    +0.000 C 
ENDROOT
BRANCH   1  12
ATOM      6  C   UNL     1       2.591   6.274  19.651  0.00  0.00    +0.000 A 
ATOM      7  C   UNL     1       3.406   5.218  19.227  0.00  0.00    +0.000 A 
ATOM      8  C   UNL     1       4.138   5.343  18.047  0.00  0.00    +0.000 A 
ATOM      9  C   UNL     1       4.067   6.527  17.306  0.00  0.00    +0.000 A 
ATOM     10 CL   UNL     1       4.988   6.676  15.860  0.00  0.00    +0.000 Cl
ATOM     11  C   UNL     1       3.256   7.577  17.724  0.00  0.00    +0.000 A 
ATOM     12  C   UNL     1       2.511   7.456  18.909  0.00  0.00    +0.000 A 
BRANCH   6  13
ATOM     13  O   UNL     1       1.872   6.111  20.802  0.00  0.00    +0.000 OA
ATOM     14  H   UNL     1       1.607   5.181  20.898  0.00  0.00    +0.000 HD
ENDBRANCH   6  13
ENDBRANCH   1  12
BRANCH   4  15
ATOM     15  C   UNL     1       0.711  11.945  18.931  0.00  0.00    +0.000 A 
ATOM     16  C   UNL     1      -0.224  12.990  18.857  0.00  0.00    +0.000 A 
ATOM     17  C   UNL     1       0.173  14.318  18.670  0.00  0.00    +0.000 A 
ATOM     18  C   UNL     1       1.520  14.682  18.600  0.00  0.00    +0.000 A 
ATOM     19  C   UNL     1       2.448  13.646  18.721  0.00  0.00    +0.000 A 
ATOM     20  C   UNL     1       2.055  12.316  18.872  0.00  0.00    +0.000 A 
BRANCH  18  21
ATOM     21  N   UNL     1       1.961  15.981  18.459  0.00  0.00    +0.000 N 
ATOM     22  C   UNL     1       3.372  16.346  18.623  0.00  0.00    +0.000 C 
ATOM     23  C   UNL     1       3.592  17.105  19.935  0.00  0.00    +0.000 C 
ATOM     24  O   UNL     1       2.712  18.238  20.043  0.00  0.00    +0.000 OA
ATOM     25  C   UNL     1       1.343  17.805  20.006  0.00  0.00    +0.000 C 
ATOM     26  C   UNL     1       1.008  17.081  18.693  0.00  0.00    +0.000 C 
ENDBRANCH  18  21
ENDBRANCH   4  15
BRANCH   3  27
ATOM     27  C   UNL     1      -0.233  10.295  21.664  0.00  0.00    +0.000 C 
ATOM     28  S   UNL     1      -0.052   9.501  23.140  0.00  0.00    +0.000 S 
BRANCH  27  29
ATOM     29  N   UNL     1      -1.076  11.380  21.452  0.00  0.00    +0.000 N 
ATOM     30  H   UNL     1      -1.397  11.442  20.492  0.00  0.00    +0.000 HD
BRANCH  29  31
ATOM     31  C   UNL     1      -1.565  12.322  22.380  0.00  0.00    +0.000 A 
ATOM     32  C   UNL     1      -0.792  13.456  22.641  0.00  0.00    +0.000 A 
ATOM     33  C   UNL     1      -1.245  14.435  23.532  0.00  0.00    +0.000 A 
ATOM     34  C   UNL     1      -2.500  14.316  24.127  0.00  0.00    +0.000 A 
ATOM     35  C   UNL     1      -3.298  13.212  23.837  0.00  0.00    +0.000 A 
ATOM     36  C   UNL     1      -2.825  12.214  22.978  0.00  0.00    +0.000 A 
ENDBRANCH  29  31
ENDBRANCH  27  29
ENDBRANCH   3  27
TORSDOF 7
ENDMDL
MODEL 7
REMARK VINA RESULT:      -7.7      3.267      8.136
REMARK  Name = 
REMARK  7 active torsions:
REMARK  status: ('A' for Active; 'I' for Inactive)
REMARK    1  A    between atoms: O_1  and  C_2
REMARK    2  A    between atoms: C_8  and  C_9
REMARK    3  A    between atoms: N_11  and  C_12
REMARK    4  A    between atoms: C_12  and  N_14
REMARK    5  A    between atoms: N_14  and  C_15
REMARK    6  A    between atoms: C_21  and  C_22
REMARK    7  A    between atoms: C_25  and  N_26
REMARK                            x       y       z     vdW  Elec       q    Type
REMARK                         _______ _______ _______ _____ _____    ______ ____
ROOT
ATOM      1  C   UNL     1      -1.062  10.354  18.383  0.00  0.00    +0.000 C 
ATOM      2  N   UNL     1      -1.055  10.527  19.671  0.00  0.00    +0.000 NA
ATOM      3  N   UNL     1       0.229  10.229  20.108  0.00  0.00    +0.000 N 
ATOM      4  C   UNL     1       1.128   9.787  19.013  0.00  0.00    +0.000 C 
ATOM      5  C   UNL     1       0.227   9.892  17.779  0.00  0.00    +0.000 C 
ENDROOT
BRANCH   1  12
ATOM      6  C   UNL     1      -3.350  11.368  17.973  0.00  0.00    +0.000 A 
ATOM      7  C   UNL     1      -4.430  11.617  17.118  0.00  0.00    +0.000 A 
ATOM      8  C   UNL     1      -4.393  11.146  15.805  0.00  0.00    +0.000 A 
ATOM      9  C   UNL     1      -3.288  10.415  15.359  0.00  0.00    +0.000 A 
ATOM     10 CL   UNL     1      -3.260   9.827  13.741  0.00  0.00    +0.000 Cl
ATOM     11  C   UNL     1      -2.212  10.168  16.206  0.00  0.00    +0.000 A 
ATOM     12  C   UNL     1      -2.240  10.644  17.527  0.00  0.00    +0.000 A 
BRANCH   6  13
ATOM     13  O   UNL     1      -3.410  11.858  19.246  0.00  0.00    +0.000 OA
ATOM     14  H   UNL     1      -2.527  12.148  19.531  0.00  0.00    +0.000 HD
ENDBRANCH   6  13
ENDBRANCH   1  12
BRANCH   4  15
ATOM     15  C   UNL     1       1.697   8.369  19.177  0.00  0.00    +0.000 A 
ATOM     16  C   UNL     1       1.501   7.636  20.359  0.00  0.00    +0.000 A 
ATOM     17  C   UNL     1       2.025   6.350  20.520  0.00  0.00    +0.000 A 
ATOM     18  C   UNL     1       2.724   5.705  19.496  0.00  0.00    +0.000 A 
ATOM     19  C   UNL     1       2.878   6.418  18.307  0.00  0.00    +0.000 A 
ATOM     20  C   UNL     1       2.387   7.715  18.154  0.00  0.00    +0.000 A 
BRANCH  18  21
ATOM     21  N   UNL     1       3.222   4.422  19.593  0.00  0.00    +0.000 N 
ATOM     22  C   UNL     1       4.329   3.952  18.753  0.00  0.00    +0.000 C 
ATOM     23  C   UNL     1       3.828   2.977  17.683  0.00  0.00    +0.000 C 
ATOM     24  O   UNL     1       3.078   1.896  18.263  0.00  0.00    +0.000 OA
ATOM     25  C   UNL     1       1.934   2.410  18.964  0.00  0.00    +0.000 C 
ATOM     26  C   UNL     1       2.341   3.357  20.104  0.00  0.00    +0.000 C 
ENDBRANCH  18  21
ENDBRANCH   4  15
BRANCH   3  27
ATOM     27  C   UNL     1       0.578  10.547  21.431  0.00  0.00    +0.000 C 
ATOM     28  S   UNL     1       0.080   9.662  22.777  0.00  0.00    +0.000 S 
BRANCH  27  29
ATOM     29  N   UNL     1       1.395  11.670  21.486  0.00  0.00    +0.000 N 
ATOM     30  H   UNL     1       2.212  11.529  22.070  0.00  0.00    +0.000 HD
BRANCH  29  31
ATOM     31  C   UNL     1       1.265  12.900  20.809  0.00  0.00    +0.000 A 
ATOM     32  C   UNL     1       2.231  13.237  19.857  0.00  0.00    +0.000 A 
ATOM     33  C   UNL     1       2.132  14.433  19.137  0.00  0.00    +0.000 A 
ATOM     34  C   UNL     1       1.037  15.274  19.322  0.00  0.00    +0.000 A 
ATOM     35  C   UNL     1       0.044  14.925  20.235  0.00  0.00    +0.000 A 
ATOM     36  C   UNL     1       0.166  13.748  20.983  0.00  0.00    +0.000 A 
ENDBRANCH  29  31
ENDBRANCH  27  29
ENDBRANCH   3  27
TORSDOF 7
ENDMDL
MODEL 8
REMARK VINA RESULT:      -7.7      3.206      7.814
REMARK  Name = 
REMARK  7 active torsions:
REMARK  status: ('A' for Active; 'I' for Inactive)
REMARK    1  A    between atoms: O_1  and  C_2
REMARK    2  A    between atoms: C_8  and  C_9
REMARK    3  A    between atoms: N_11  and  C_12
REMARK    4  A    between atoms: C_12  and  N_14
REMARK    5  A    between atoms: N_14  and  C_15
REMARK    6  A    between atoms: C_21  and  C_22
REMARK    7  A    between atoms: C_25  and  N_26
REMARK                            x       y       z     vdW  Elec       q    Type
REMARK                         _______ _______ _______ _____ _____    ______ ____
ROOT
ATOM      1  C   UNL     1       0.983  13.473  18.902  0.00  0.00    +0.000 C 
ATOM      2  N   UNL     1      -0.099  13.098  18.288  0.00  0.00    +0.000 NA
ATOM      3  N   UNL     1      -0.579  11.985  18.967  0.00  0.00    +0.000 N 
ATOM      4  C   UNL     1       0.289  11.576  20.100  0.00  0.00    +0.000 C 
ATOM      5  C   UNL     1       1.391  12.640  20.076  0.00  0.00    +0.000 C 
ENDROOT
BRANCH   1  12
ATOM      6  C   UNL     1       3.039  14.625  17.967  0.00  0.00    +0.000 A 
ATOM      7  C   UNL     1       3.720  15.798  17.622  0.00  0.00    +0.000 A 
ATOM      8  C   UNL     1       3.110  17.036  17.827  0.00  0.00    +0.000 A 
ATOM      9  C   UNL     1       1.832  17.096  18.391  0.00  0.00    +0.000 A 
ATOM     10 CL   UNL     1       1.095  18.629  18.653  0.00  0.00    +0.000 Cl
ATOM     11  C   UNL     1       1.152  15.931  18.732  0.00  0.00    +0.000 A 
ATOM     12  C   UNL     1       1.758  14.681  18.524  0.00  0.00    +0.000 A 
BRANCH   6  13
ATOM     13  O   UNL     1       3.658  13.429  17.736  0.00  0.00    +0.000 OA
ATOM     14  H   UNL     1       3.220  12.966  17.003  0.00  0.00    +0.000 HD
ENDBRANCH   6  13
ENDBRANCH   1  12
BRANCH   4  15
ATOM     15  C   UNL     1       0.870  10.159  19.990  0.00  0.00    +0.000 A 
ATOM     16  C   UNL     1       0.758   9.240  21.046  0.00  0.00    +0.000 A 
ATOM     17  C   UNL     1       1.294   7.951  20.958  0.00  0.00    +0.000 A 
ATOM     18  C   UNL     1       1.921   7.492  19.796  0.00  0.00    +0.000 A 
ATOM     19  C   UNL     1       1.991   8.391  18.732  0.00  0.00    +0.000 A 
ATOM     20  C   UNL     1       1.489   9.690  18.829  0.00  0.00    +0.000 A 
BRANCH  18  21
ATOM     21  N   UNL     1       2.427   6.217  19.647  0.00  0.00    +0.000 N 
ATOM     22  C   UNL     1       2.823   5.685  18.339  0.00  0.00    +0.000 C 
ATOM     23  C   UNL     1       1.818   4.640  17.846  0.00  0.00    +0.000 C 
ATOM     24  O   UNL     1       1.611   3.605  18.822  0.00  0.00    +0.000 OA
ATOM     25  C   UNL     1       1.100   4.171  20.040  0.00  0.00    +0.000 C 
ATOM     26  C   UNL     1       2.073   5.194  20.647  0.00  0.00    +0.000 C 
ENDBRANCH  18  21
ENDBRANCH   4  15
BRANCH   3  27
ATOM     27  C   UNL     1      -1.862  11.509  18.651  0.00  0.00    +0.000 C 
ATOM     28  S   UNL     1      -2.164  10.003  17.956  0.00  0.00    +0.000 S 
BRANCH  27  29
ATOM     29  N   UNL     1      -2.845  12.427  19.000  0.00  0.00    +0.000 N 
ATOM     30  H   UNL     1      -3.181  12.959  18.204  0.00  0.00    +0.000 HD
BRANCH  29  31
ATOM     31  C   UNL     1      -3.448  12.653  20.254  0.00  0.00    +0.000 A 
ATOM     32  C   UNL     1      -4.818  12.923  20.291  0.00  0.00    +0.000 A 
ATOM     33  C   UNL     1      -5.470  13.126  21.512  0.00  0.00    +0.000 A 
ATOM     34  C   UNL     1      -4.769  13.005  22.710  0.00  0.00    +0.000 A 
ATOM     35  C   UNL     1      -3.412  12.690  22.687  0.00  0.00    +0.000 A 
ATOM     36  C   UNL     1      -2.754  12.527  21.463  0.00  0.00    +0.000 A 
ENDBRANCH  29  31
ENDBRANCH  27  29
ENDBRANCH   3  27
TORSDOF 7
ENDMDL
MODEL 9
REMARK VINA RESULT:      -7.7      3.765      7.863
REMARK  Name = 
REMARK  7 active torsions:
REMARK  status: ('A' for Active; 'I' for Inactive)
REMARK    1  A    between atoms: O_1  and  C_2
REMARK    2  A    between atoms: C_8  and  C_9
REMARK    3  A    between atoms: N_11  and  C_12
REMARK    4  A    between atoms: C_12  and  N_14
REMARK    5  A    between atoms: N_14  and  C_15
REMARK    6  A    between atoms: C_21  and  C_22
REMARK    7  A    between atoms: C_25  and  N_26
REMARK                            x       y       z     vdW  Elec       q    Type
REMARK                         _______ _______ _______ _____ _____    ______ ____
ROOT
ATOM      1  C   UNL     1      -1.109  10.375  18.449  0.00  0.00    +0.000 C 
ATOM      2  N   UNL     1      -1.166  10.455  19.744  0.00  0.00    +0.000 NA
ATOM      3  N   UNL     1       0.111  10.187  20.219  0.00  0.00    +0.000 N 
ATOM      4  C   UNL     1       1.077   9.867  19.138  0.00  0.00    +0.000 C 
ATOM      5  C   UNL     1       0.226  10.018  17.875  0.00  0.00    +0.000 C 
ENDROOT
BRANCH   1  12
ATOM      6  C   UNL     1      -3.369  11.419  17.968  0.00  0.00    +0.000 A 
ATOM      7  C   UNL     1      -4.425  11.671  17.085  0.00  0.00    +0.000 A 
ATOM      8  C   UNL     1      -4.366  11.177  15.781  0.00  0.00    +0.000 A 
ATOM      9  C   UNL     1      -3.264  10.420  15.373  0.00  0.00    +0.000 A 
ATOM     10 CL   UNL     1      -3.211   9.802  13.767  0.00  0.00    +0.000 Cl
ATOM     11  C   UNL     1      -2.212  10.170  16.249  0.00  0.00    +0.000 A 
ATOM     12  C   UNL     1      -2.262  10.669  17.561  0.00  0.00    +0.000 A 
BRANCH   6  13
ATOM     13  O   UNL     1      -3.450  11.933  19.232  0.00  0.00    +0.000 OA
ATOM     14  H   UNL     1      -2.684  11.644  19.756  0.00  0.00    +0.000 HD
ENDBRANCH   6  13
ENDBRANCH   1  12
BRANCH   4  15
ATOM     15  C   UNL     1       1.709   8.469  19.230  0.00  0.00    +0.000 A 
ATOM     16  C   UNL     1       2.552   7.981  18.218  0.00  0.00    +0.000 A 
ATOM     17  C   UNL     1       3.122   6.707  18.288  0.00  0.00    +0.000 A 
ATOM     18  C   UNL     1       2.928   5.873  19.393  0.00  0.00    +0.000 A 
ATOM     19  C   UNL     1       2.128   6.378  20.418  0.00  0.00    +0.000 A 
ATOM     20  C   UNL     1       1.528   7.636  20.335  0.00  0.00    +0.000 A 
BRANCH  18  21
ATOM     21  N   UNL     1       3.503   4.626  19.527  0.00  0.00    +0.000 N 
ATOM     22  C   UNL     1       4.550   4.150  18.618  0.00  0.00    +0.000 C 
ATOM     23  C   UNL     1       4.007   3.078  17.670  0.00  0.00    +0.000 C 
ATOM     24  O   UNL     1       3.374   2.006  18.391  0.00  0.00    +0.000 OA
ATOM     25  C   UNL     1       2.274   2.514  19.163  0.00  0.00    +0.000 C 
ATOM     26  C   UNL     1       2.732   3.560  20.192  0.00  0.00    +0.000 C 
ENDBRANCH  18  21
ENDBRANCH   4  15
BRANCH   3  27
ATOM     27  C   UNL     1       0.386  10.426  21.575  0.00  0.00    +0.000 C 
ATOM     28  S   UNL     1       0.901   9.239  22.657  0.00  0.00    +0.000 S 
BRANCH  27  29
ATOM     29  N   UNL     1       0.196  11.763  21.905  0.00  0.00    +0.000 N 
ATOM     30  H   UNL     1       0.925  12.363  21.534  0.00  0.00    +0.000 HD
BRANCH  29  31
ATOM     31  C   UNL     1      -0.869  12.364  22.607  0.00  0.00    +0.000 A 
ATOM     32  C   UNL     1      -0.805  13.737  22.856  0.00  0.00    +0.000 A 
ATOM     33  C   UNL     1      -1.849  14.387  23.523  0.00  0.00    +0.000 A 
ATOM     34  C   UNL     1      -2.991  13.681  23.896  0.00  0.00    +0.000 A 
ATOM     35  C   UNL     1      -3.085  12.320  23.610  0.00  0.00    +0.000 A 
ATOM     36  C   UNL     1      -2.022  11.664  22.980  0.00  0.00    +0.000 A 
ENDBRANCH  29  31
ENDBRANCH  27  29
ENDBRANCH   3  27
TORSDOF 7
ENDMDL
