MODEL 1
REMARK VINA RESULT:      -7.8      0.000      0.000
REMARK  Name = 
REMARK  8 active torsions:
REMARK  status: ('A' for Active; 'I' for Inactive)
REMARK    1  A    between atoms: C_1  and  C_2
REMARK    2  A    between atoms: C_5  and  N_6
REMARK    3  A    between atoms: N_6  and  C_7
REMARK    4  A    between atoms: C_7  and  C_8
REMARK    5  A    between atoms: C_8  and  C_9
REMARK    6  A    between atoms: C_8  and  N_14
REMARK    7  A    between atoms: C_19  and  C_20
REMARK    8  A    between atoms: C_22  and  C_23
REMARK                            x       y       z     vdW  Elec       q    Type
REMARK                         _______ _______ _______ _____ _____    ______ ____
ROOT
ATOM      1  N   UNL     1       4.145   4.594  16.761  0.00  0.00    +0.000 N 
ATOM      2  H   UNL     1       3.488   4.055  16.205  0.00  0.00    +0.000 HD
ENDROOT
BRANCH   1   7
ATOM      3  C   UNL     1       1.496   7.338  20.937  0.00  0.00    +0.000 C 
ATOM      4  C   UNL     1       2.203   6.533  19.888  0.00  0.00    +0.000 A 
ATOM      5  N   UNL     1       2.681   7.219  18.831  0.00  0.00    +0.000 NA
ATOM      6  N   UNL     1       3.342   6.571  17.814  0.00  0.00    +0.000 NA
ATOM      7  C   UNL     1       3.500   5.235  17.826  0.00  0.00    +0.000 A 
ATOM      8  C   UNL     1       3.017   4.499  18.917  0.00  0.00    +0.000 A 
ATOM      9  C   UNL     1       2.371   5.153  19.988  0.00  0.00    +0.000 A 
ATOM     10  C   UNL     1       1.876   4.424  21.210  0.00  0.00    +0.000 C 
BRANCH   8  11
ATOM     11  C   UNL     1       3.226   3.081  18.953  0.00  0.00    +0.000 C 
ATOM     12  N   UNL     1       3.341   1.924  18.992  0.00  0.00    +0.000 NA
ENDBRANCH   8  11
ENDBRANCH   1   7
BRANCH   1  13
ATOM     13  C   UNL     1       5.081   5.380  15.930  0.00  0.00    +0.000 C 
BRANCH  13  14
ATOM     14  C   UNL     1       6.485   4.695  15.785  0.00  0.00    +0.000 C 
BRANCH  14  15
ATOM     15  C   UNL     1       6.864   4.602  14.326  0.00  0.00    +0.000 A 
ATOM     16  C   UNL     1       6.378   3.832  13.286  0.00  0.00    +0.000 A 
ATOM     17  C   UNL     1       7.054   4.260  12.120  0.00  0.00    +0.000 A 
ATOM     18  C   UNL     1       7.914   5.254  12.518  0.00  0.00    +0.000 A 
ATOM     19  O   UNL     1       7.814   5.464  13.855  0.00  0.00    +0.000 OA
ENDBRANCH  14  15
BRANCH  14  20
ATOM     20  N   UNL     1       7.536   5.284  16.653  0.00  0.00    +0.000 NA
ATOM     21  C   UNL     1       7.812   4.598  17.917  0.00  0.00    +0.000 C 
ATOM     22  C   UNL     1       7.472   5.586  19.019  0.00  0.00    +0.000 C 
ATOM     23  C   UNL     1       7.751   6.927  18.377  0.00  0.00    +0.000 C 
ATOM     24  C   UNL     1       7.340   6.716  16.929  0.00  0.00    +0.000 C 
ENDBRANCH  14  20
ENDBRANCH  13  14
ENDBRANCH   1  13
TORSDOF 6
ENDMDL
MODEL 2
REMARK VINA RESULT:      -7.5      0.858      2.314
REMARK  Name = 
REMARK  8 active torsions:
REMARK  status: ('A' for Active; 'I' for Inactive)
REMARK    1  A    between atoms: C_1  and  C_2
REMARK    2  A    between atoms: C_5  and  N_6
REMARK    3  A    between atoms: N_6  and  C_7
REMARK    4  A    between atoms: C_7  and  C_8
REMARK    5  A    between atoms: C_8  and  C_9
REMARK    6  A    between atoms: C_8  and  N_14
REMARK    7  A    between atoms: C_19  and  C_20
REMARK    8  A    between atoms: C_22  and  C_23
REMARK                            x       y       z     vdW  Elec       q    Type
REMARK                         _______ _______ _______ _____ _____    ______ ____
ROOT
ATOM      1  N   UNL     1       3.987   4.336  16.517  0.00  0.00    +0.000 N 
ATOM      2  H   UNL     1       3.196   4.575  15.926  0.00  0.00    +0.000 HD
ENDROOT
BRANCH   1   7
ATOM      3  C   UNL     1       2.425   2.588  21.664  0.00  0.00    +0.000 C 
ATOM      4  C   UNL     1       2.781   3.128  20.311  0.00  0.00    +0.000 A 
ATOM      5  N   UNL     1       3.437   2.288  19.487  0.00  0.00    +0.000 NA
ATOM      6  N   UNL     1       3.810   2.690  18.226  0.00  0.00    +0.000 NA
ATOM      7  C   UNL     1       3.565   3.939  17.792  0.00  0.00    +0.000 A 
ATOM      8  C   UNL     1       2.879   4.831  18.627  0.00  0.00    +0.000 A 
ATOM      9  C   UNL     1       2.453   4.422  19.910  0.00  0.00    +0.000 A 
ATOM     10  C   UNL     1       1.668   5.317  20.833  0.00  0.00    +0.000 C 
BRANCH   8  11
ATOM     11  C   UNL     1       2.575   6.147  18.148  0.00  0.00    +0.000 C 
ATOM     12  N   UNL     1       2.284   7.195  17.735  0.00  0.00    +0.000 NA
ENDBRANCH   8  11
ENDBRANCH   1   7
BRANCH   1  13
ATOM     13  C   UNL     1       5.088   5.316  16.414  0.00  0.00    +0.000 C 
BRANCH  13  14
ATOM     14  C   UNL     1       6.482   4.640  16.170  0.00  0.00    +0.000 C 
BRANCH  14  15
ATOM     15  C   UNL     1       6.735   4.502  14.687  0.00  0.00    +0.000 A 
ATOM     16  C   UNL     1       6.121   3.746  13.706  0.00  0.00    +0.000 A 
ATOM     17  C   UNL     1       6.723   4.115  12.480  0.00  0.00    +0.000 A 
ATOM     18  C   UNL     1       7.671   5.061  12.788  0.00  0.00    +0.000 A 
ATOM     19  O   UNL     1       7.692   5.298  14.124  0.00  0.00    +0.000 OA
ENDBRANCH  14  15
BRANCH  14  20
ATOM     20  N   UNL     1       7.597   5.267  16.924  0.00  0.00    +0.000 NA
ATOM     21  C   UNL     1       7.961   4.651  18.202  0.00  0.00    +0.000 C 
ATOM     22  C   UNL     1       7.708   5.704  19.267  0.00  0.00    +0.000 C 
ATOM     23  C   UNL     1       7.947   7.003  18.530  0.00  0.00    +0.000 C 
ATOM     24  C   UNL     1       7.430   6.714  17.131  0.00  0.00    +0.000 C 
ENDBRANCH  14  20
ENDBRANCH  13  14
ENDBRANCH   1  13
TORSDOF 6
ENDMDL
MODEL 3
REMARK VINA RESULT:      -7.3      1.203      1.528
REMARK  Name = 
REMARK  8 active torsions:
REMARK  status: ('A' for Active; 'I' for Inactive)
REMARK    1  A    between atoms: C_1  and  C_2
REMARK    2  A    between atoms: C_5  and  N_6
REMARK    3  A    between atoms: N_6  and  C_7
REMARK    4  A    between atoms: C_7  and  C_8
REMARK    5  A    between atoms: C_8  and  C_9
REMARK    6  A    between atoms: C_8  and  N_14
REMARK    7  A    between atoms: C_19  and  C_20
REMARK    8  A    between atoms: C_22  and  C_23
REMARK                            x       y       z     vdW  Elec       q    Type
REMARK                         _______ _______ _______ _____ _____    ______ ____
ROOT
ATOM      1  N   UNL     1       4.357   5.472  17.343  0.00  0.00    +0.000 N 
ATOM      2  H   UNL     1       3.873   4.580  17.399  0.00  0.00    +0.000 HD
ENDROOT
BRANCH   1   7
ATOM      3  C   UNL     1       1.120   9.745  19.147  0.00  0.00    +0.000 C 
ATOM      4  C   UNL     1       1.969   8.573  18.757  0.00  0.00    +0.000 A 
ATOM      5  N   UNL     1       2.648   8.687  17.599  0.00  0.00    +0.000 NA
ATOM      6  N   UNL     1       3.453   7.665  17.152  0.00  0.00    +0.000 NA
ATOM      7  C   UNL     1       3.559   6.512  17.837  0.00  0.00    +0.000 A 
ATOM      8  C   UNL     1       2.868   6.369  19.048  0.00  0.00    +0.000 A 
ATOM      9  C   UNL     1       2.069   7.424  19.540  0.00  0.00    +0.000 A 
ATOM     10  C   UNL     1       1.343   7.351  20.858  0.00  0.00    +0.000 C 
BRANCH   8  11
ATOM     11  C   UNL     1       3.017   5.159  19.801  0.00  0.00    +0.000 C 
ATOM     12  N   UNL     1       3.097   4.195  20.447  0.00  0.00    +0.000 NA
ENDBRANCH   8  11
ENDBRANCH   1   7
BRANCH   1  13
ATOM     13  C   UNL     1       5.042   5.665  16.048  0.00  0.00    +0.000 C 
BRANCH  13  14
ATOM     14  C   UNL     1       6.364   4.830  15.931  0.00  0.00    +0.000 C 
BRANCH  14  15
ATOM     15  C   UNL     1       6.705   4.606  14.476  0.00  0.00    +0.000 A 
ATOM     16  C   UNL     1       6.157   3.783  13.510  0.00  0.00    +0.000 A 
ATOM     17  C   UNL     1       6.826   4.086  12.301  0.00  0.00    +0.000 A 
ATOM     18  C   UNL     1       7.744   5.063  12.604  0.00  0.00    +0.000 A 
ATOM     19  O   UNL     1       7.684   5.380  13.922  0.00  0.00    +0.000 OA
ENDBRANCH  14  15
BRANCH  14  20
ATOM     20  N   UNL     1       7.486   5.359  16.746  0.00  0.00    +0.000 NA
ATOM     21  C   UNL     1       7.770   4.672  18.008  0.00  0.00    +0.000 C 
ATOM     22  C   UNL     1       7.542   5.693  19.108  0.00  0.00    +0.000 C 
ATOM     23  C   UNL     1       7.880   7.005  18.436  0.00  0.00    +0.000 C 
ATOM     24  C   UNL     1       7.396   6.804  17.009  0.00  0.00    +0.000 C 
ENDBRANCH  14  20
ENDBRANCH  13  14
ENDBRANCH   1  13
TORSDOF 6
ENDMDL
MODEL 4
REMARK VINA RESULT:      -7.3      0.900      2.433
REMARK  Name = 
REMARK  8 active torsions:
REMARK  status: ('A' for Active; 'I' for Inactive)
REMARK    1  A    between atoms: C_1  and  C_2
REMARK    2  A    between atoms: C_5  and  N_6
REMARK    3  A    between atoms: N_6  and  C_7
REMARK    4  A    between atoms: C_7  and  C_8
REMARK    5  A    between atoms: C_8  and  C_9
REMARK    6  A    between atoms: C_8  and  N_14
REMARK    7  A    between atoms: C_19  and  C_20
REMARK    8  A    between atoms: C_22  and  C_23
REMARK                            x       y       z     vdW  Elec       q    Type
REMARK                         _______ _______ _______ _____ _____    ______ ____
ROOT
ATOM      1  N   UNL     1       4.607   6.138  17.624  0.00  0.00    +0.000 N 
ATOM      2  H   UNL     1       5.312   6.427  18.295  0.00  0.00    +0.000 HD
ENDROOT
BRANCH   1   7
ATOM      3  C   UNL     1       1.706   1.693  19.577  0.00  0.00    +0.000 C 
ATOM      4  C   UNL     1       2.403   2.928  19.091  0.00  0.00    +0.000 A 
ATOM      5  N   UNL     1       3.449   2.736  18.263  0.00  0.00    +0.000 NA
ATOM      6  N   UNL     1       4.156   3.805  17.766  0.00  0.00    +0.000 NA
ATOM      7  C   UNL     1       3.849   5.067  18.116  0.00  0.00    +0.000 A 
ATOM      8  C   UNL     1       2.762   5.295  18.971  0.00  0.00    +0.000 A 
ATOM      9  C   UNL     1       2.001   4.210  19.459  0.00  0.00    +0.000 A 
ATOM     10  C   UNL     1       0.792   4.393  20.339  0.00  0.00    +0.000 C 
BRANCH   8  11
ATOM     11  C   UNL     1       2.405   6.641  19.307  0.00  0.00    +0.000 C 
ATOM     12  N   UNL     1       2.122   7.722  19.633  0.00  0.00    +0.000 NA
ENDBRANCH   8  11
ENDBRANCH   1   7
BRANCH   1  13
ATOM     13  C   UNL     1       5.137   6.049  16.247  0.00  0.00    +0.000 C 
BRANCH  13  14
ATOM     14  C   UNL     1       6.377   5.096  16.134  0.00  0.00    +0.000 C 
BRANCH  14  15
ATOM     15  C   UNL     1       6.654   4.780  14.683  0.00  0.00    +0.000 A 
ATOM     16  C   UNL     1       6.011   3.965  13.771  0.00  0.00    +0.000 A 
ATOM     17  C   UNL     1       6.666   4.156  12.531  0.00  0.00    +0.000 A 
ATOM     18  C   UNL     1       7.669   5.065  12.764  0.00  0.00    +0.000 A 
ATOM     19  O   UNL     1       7.676   5.444  14.067  0.00  0.00    +0.000 OA
ENDBRANCH  14  15
BRANCH  14  20
ATOM     20  N   UNL     1       7.565   5.559  16.895  0.00  0.00    +0.000 NA
ATOM     21  C   UNL     1       7.886   4.835  18.127  0.00  0.00    +0.000 C 
ATOM     22  C   UNL     1       7.764   5.843  19.256  0.00  0.00    +0.000 C 
ATOM     23  C   UNL     1       8.123   7.152  18.590  0.00  0.00    +0.000 C 
ATOM     24  C   UNL     1       7.553   7.001  17.189  0.00  0.00    +0.000 C 
ENDBRANCH  14  20
ENDBRANCH  13  14
ENDBRANCH   1  13
TORSDOF 6
ENDMDL
MODEL 5
REMARK VINA RESULT:      -7.3      1.320      4.022
REMARK  Name = 
REMARK  8 active torsions:
REMARK  status: ('A' for Active; 'I' for Inactive)
REMARK    1  A    between atoms: C_1  and  C_2
REMARK    2  A    between atoms: C_5  and  N_6
REMARK    3  A    between atoms: N_6  and  C_7
REMARK    4  A    between atoms: C_7  and  C_8
REMARK    5  A    between atoms: C_8  and  C_9
REMARK    6  A    between atoms: C_8  and  N_14
REMARK    7  A    between atoms: C_19  and  C_20
REMARK    8  A    between atoms: C_22  and  C_23
REMARK                            x       y       z     vdW  Elec       q    Type
REMARK                         _______ _______ _______ _____ _____    ______ ____
ROOT
ATOM      1  N   UNL     1       3.751   3.937  16.478  0.00  0.00    +0.000 N 
ATOM      2  H   UNL     1       3.505   4.858  16.126  0.00  0.00    +0.000 HD
ENDROOT
BRANCH   1   7
ATOM      3  C   UNL     1       1.341   2.737  21.452  0.00  0.00    +0.000 C 
ATOM      4  C   UNL     1       1.956   3.148  20.148  0.00  0.00    +0.000 A 
ATOM      5  N   UNL     1       2.270   2.152  19.297  0.00  0.00    +0.000 NA
ATOM      6  N   UNL     1       2.841   2.426  18.076  0.00  0.00    +0.000 NA
ATOM      7  C   UNL     1       3.136   3.687  17.711  0.00  0.00    +0.000 A 
ATOM      8  C   UNL     1       2.814   4.742  18.577  0.00  0.00    +0.000 A 
ATOM      9  C   UNL     1       2.191   4.481  19.817  0.00  0.00    +0.000 A 
ATOM     10  C   UNL     1       1.775   5.574  20.766  0.00  0.00    +0.000 C 
BRANCH   8  11
ATOM     11  C   UNL     1       3.084   6.089  18.170  0.00  0.00    +0.000 C 
ATOM     12  N   UNL     1       3.348   7.164  17.811  0.00  0.00    +0.000 NA
ENDBRANCH   8  11
ENDBRANCH   1   7
BRANCH   1  13
ATOM     13  C   UNL     1       5.192   3.642  16.338  0.00  0.00    +0.000 C 
BRANCH  13  14
ATOM     14  C   UNL     1       5.973   4.775  15.587  0.00  0.00    +0.000 C 
BRANCH  14  15
ATOM     15  C   UNL     1       6.615   5.708  16.587  0.00  0.00    +0.000 A 
ATOM     16  C   UNL     1       7.424   5.480  17.684  0.00  0.00    +0.000 A 
ATOM     17  C   UNL     1       7.807   6.751  18.172  0.00  0.00    +0.000 A 
ATOM     18  C   UNL     1       7.203   7.674  17.352  0.00  0.00    +0.000 A 
ATOM     19  O   UNL     1       6.471   7.052  16.392  0.00  0.00    +0.000 OA
ENDBRANCH  14  15
BRANCH  14  20
ATOM     20  N   UNL     1       6.896   4.277  14.536  0.00  0.00    +0.000 NA
ATOM     21  C   UNL     1       7.873   5.231  14.006  0.00  0.00    +0.000 C 
ATOM     22  C   UNL     1       7.555   5.387  12.529  0.00  0.00    +0.000 C 
ATOM     23  C   UNL     1       6.976   4.040  12.158  0.00  0.00    +0.000 C 
ATOM     24  C   UNL     1       6.211   3.630  13.406  0.00  0.00    +0.000 C 
ENDBRANCH  14  20
ENDBRANCH  13  14
ENDBRANCH   1  13
TORSDOF 6
ENDMDL
MODEL 6
REMARK VINA RESULT:      -7.2      1.105      1.242
REMARK  Name = 
REMARK  8 active torsions:
REMARK  status: ('A' for Active; 'I' for Inactive)
REMARK    1  A    between atoms: C_1  and  C_2
REMARK    2  A    between atoms: C_5  and  N_6
REMARK    3  A    between atoms: N_6  and  C_7
REMARK    4  A    between atoms: C_7  and  C_8
REMARK    5  A    between atoms: C_8  and  C_9
REMARK    6  A    between atoms: C_8  and  N_14
REMARK    7  A    between atoms: C_19  and  C_20
REMARK    8  A    between atoms: C_22  and  C_23
REMARK                            x       y       z     vdW  Elec       q    Type
REMARK                         _______ _______ _______ _____ _____    ______ ____
ROOT
ATOM      1  N   UNL     1       4.754   3.598  17.308  0.00  0.00    +0.000 N 
ATOM      2  H   UNL     1       4.479   2.626  17.193  0.00  0.00    +0.000 HD
ENDROOT
BRANCH   1   7
ATOM      3  C   UNL     1       1.229   6.375  20.750  0.00  0.00    +0.000 C 
ATOM      4  C   UNL     1       2.191   5.585  19.914  0.00  0.00    +0.000 A 
ATOM      5  N   UNL     1       2.461   6.078  18.689  0.00  0.00    +0.000 NA
ATOM      6  N   UNL     1       3.328   5.425  17.844  0.00  0.00    +0.000 NA
ATOM      7  C   UNL     1       3.902   4.262  18.199  0.00  0.00    +0.000 A 
ATOM      8  C   UNL     1       3.643   3.731  19.470  0.00  0.00    +0.000 A 
ATOM      9  C   UNL     1       2.786   4.409  20.364  0.00  0.00    +0.000 A 
ATOM     10  C   UNL     1       2.509   3.916  21.761  0.00  0.00    +0.000 C 
BRANCH   8  11
ATOM     11  C   UNL     1       4.291   2.516  19.867  0.00  0.00    +0.000 C 
ATOM     12  N   UNL     1       4.789   1.531  20.237  0.00  0.00    +0.000 NA
ENDBRANCH   8  11
ENDBRANCH   1   7
BRANCH   1  13
ATOM     13  C   UNL     1       5.076   4.252  16.022  0.00  0.00    +0.000 C 
BRANCH  13  14
ATOM     14  C   UNL     1       6.593   4.132  15.643  0.00  0.00    +0.000 C 
BRANCH  14  15
ATOM     15  C   UNL     1       6.759   4.238  14.146  0.00  0.00    +0.000 A 
ATOM     16  C   UNL     1       7.588   5.012  13.355  0.00  0.00    +0.000 A 
ATOM     17  C   UNL     1       7.371   4.597  12.020  0.00  0.00    +0.000 A 
ATOM     18  C   UNL     1       6.420   3.607  12.077  0.00  0.00    +0.000 A 
ATOM     19  O   UNL     1       6.036   3.387  13.359  0.00  0.00    +0.000 OA
ENDBRANCH  14  15
BRANCH  14  20
ATOM     20  N   UNL     1       7.482   5.030  16.422  0.00  0.00    +0.000 NA
ATOM     21  C   UNL     1       7.935   4.546  17.728  0.00  0.00    +0.000 C 
ATOM     22  C   UNL     1       7.381   5.516  18.756  0.00  0.00    +0.000 C 
ATOM     23  C   UNL     1       7.317   6.823  17.997  0.00  0.00    +0.000 C 
ATOM     24  C   UNL     1       6.949   6.392  16.586  0.00  0.00    +0.000 C 
ENDBRANCH  14  20
ENDBRANCH  13  14
ENDBRANCH   1  13
TORSDOF 6
ENDMDL
MODEL 7
REMARK VINA RESULT:      -7.2      1.123      3.493
REMARK  Name = 
REMARK  8 active torsions:
REMARK  status: ('A' for Active; 'I' for Inactive)
REMARK    1  A    between atoms: C_1  and  C_2
REMARK    2  A    between atoms: C_5  and  N_6
REMARK    3  A    between atoms: N_6  and  C_7
REMARK    4  A    between atoms: C_7  and  C_8
REMARK    5  A    between atoms: C_8  and  C_9
REMARK    6  A    between atoms: C_8  and  N_14
REMARK    7  A    between atoms: C_19  and  C_20
REMARK    8  A    between atoms: C_22  and  C_23
REMARK                            x       y       z     vdW  Elec       q    Type
REMARK                         _______ _______ _______ _____ _____    ______ ____
ROOT
ATOM      1  N   UNL     1       4.608   4.264  16.886  0.00  0.00    +0.000 N 
ATOM      2  H   UNL     1       4.378   3.282  16.761  0.00  0.00    +0.000 HD
ENDROOT
BRANCH   1   7
ATOM      3  C   UNL     1       1.398   6.777  20.806  0.00  0.00    +0.000 C 
ATOM      4  C   UNL     1       2.241   6.029  19.818  0.00  0.00    +0.000 A 
ATOM      5  N   UNL     1       2.911   6.776  18.918  0.00  0.00    +0.000 NA
ATOM      6  N   UNL     1       3.709   6.183  17.968  0.00  0.00    +0.000 NA
ATOM      7  C   UNL     1       3.817   4.845  17.885  0.00  0.00    +0.000 A 
ATOM      8  C   UNL     1       3.135   4.045  18.812  0.00  0.00    +0.000 A 
ATOM      9  C   UNL     1       2.343   4.639  19.819  0.00  0.00    +0.000 A 
ATOM     10  C   UNL     1       1.627   3.836  20.874  0.00  0.00    +0.000 C 
BRANCH   8  11
ATOM     11  C   UNL     1       3.286   2.621  18.754  0.00  0.00    +0.000 C 
ATOM     12  N   UNL     1       3.385   1.466  18.657  0.00  0.00    +0.000 NA
ENDBRANCH   8  11
ENDBRANCH   1   7
BRANCH   1  13
ATOM     13  C   UNL     1       4.756   4.980  15.601  0.00  0.00    +0.000 C 
BRANCH  13  14
ATOM     14  C   UNL     1       6.234   5.426  15.323  0.00  0.00    +0.000 C 
BRANCH  14  15
ATOM     15  C   UNL     1       6.955   5.662  16.629  0.00  0.00    +0.000 A 
ATOM     16  C   UNL     1       7.244   6.814  17.336  0.00  0.00    +0.000 A 
ATOM     17  C   UNL     1       7.846   6.400  18.547  0.00  0.00    +0.000 A 
ATOM     18  C   UNL     1       7.897   5.028  18.502  0.00  0.00    +0.000 A 
ATOM     19  O   UNL     1       7.367   4.570  17.339  0.00  0.00    +0.000 OA
ENDBRANCH  14  15
BRANCH  14  20
ATOM     20  N   UNL     1       6.961   4.545  14.375  0.00  0.00    +0.000 NA
ATOM     21  C   UNL     1       7.879   5.195  13.436  0.00  0.00    +0.000 C 
ATOM     22  C   UNL     1       7.340   4.905  12.047  0.00  0.00    +0.000 C 
ATOM     23  C   UNL     1       6.658   3.566  12.214  0.00  0.00    +0.000 C 
ATOM     24  C   UNL     1       6.084   3.636  13.620  0.00  0.00    +0.000 C 
ENDBRANCH  14  20
ENDBRANCH  13  14
ENDBRANCH   1  13
TORSDOF 6
ENDMDL
MODEL 8
REMARK VINA RESULT:      -7.1      1.388      4.240
REMARK  Name = 
REMARK  8 active torsions:
REMARK  status: ('A' for Active; 'I' for Inactive)
REMARK    1  A    between atoms: C_1  and  C_2
REMARK    2  A    between atoms: C_5  and  N_6
REMARK    3  A    between atoms: N_6  and  C_7
REMARK    4  A    between atoms: C_7  and  C_8
REMARK    5  A    between atoms: C_8  and  C_9
REMARK    6  A    between atoms: C_8  and  N_14
REMARK    7  A    between atoms: C_19  and  C_20
REMARK    8  A    between atoms: C_22  and  C_23
REMARK                            x       y       z     vdW  Elec       q    Type
REMARK                         _______ _______ _______ _____ _____    ______ ____
ROOT
ATOM      1  N   UNL     1       4.486   6.132  16.952  0.00  0.00    +0.000 N 
ATOM      2  H   UNL     1       5.232   6.446  17.565  0.00  0.00    +0.000 HD
ENDROOT
BRANCH   1   7
ATOM      3  C   UNL     1       1.742   1.735  19.217  0.00  0.00    +0.000 C 
ATOM      4  C   UNL     1       2.404   2.959  18.659  0.00  0.00    +0.000 A 
ATOM      5  N   UNL     1       3.318   2.754  17.690  0.00  0.00    +0.000 NA
ATOM      6  N   UNL     1       3.983   3.812  17.116  0.00  0.00    +0.000 NA
ATOM      7  C   UNL     1       3.770   5.075  17.527  0.00  0.00    +0.000 A 
ATOM      8  C   UNL     1       2.820   5.316  18.530  0.00  0.00    +0.000 A 
ATOM      9  C   UNL     1       2.100   4.245  19.101  0.00  0.00    +0.000 A 
ATOM     10  C   UNL     1       1.032   4.445  20.145  0.00  0.00    +0.000 C 
BRANCH   8  11
ATOM     11  C   UNL     1       2.558   6.665  18.936  0.00  0.00    +0.000 C 
ATOM     12  N   UNL     1       2.293   7.755  19.245  0.00  0.00    +0.000 NA
ENDBRANCH   8  11
ENDBRANCH   1   7
BRANCH   1  13
ATOM     13  C   UNL     1       4.923   6.002  15.546  0.00  0.00    +0.000 C 
BRANCH  13  14
ATOM     14  C   UNL     1       6.483   5.922  15.402  0.00  0.00    +0.000 C 
BRANCH  14  15
ATOM     15  C   UNL     1       7.132   6.025  16.763  0.00  0.00    +0.000 A 
ATOM     16  C   UNL     1       7.583   7.105  17.497  0.00  0.00    +0.000 A 
ATOM     17  C   UNL     1       7.997   6.593  18.750  0.00  0.00    +0.000 A 
ATOM     18  C   UNL     1       7.783   5.237  18.699  0.00  0.00    +0.000 A 
ATOM     19  O   UNL     1       7.266   4.880  17.496  0.00  0.00    +0.000 OA
ENDBRANCH  14  15
BRANCH  14  20
ATOM     20  N   UNL     1       6.955   4.775  14.586  0.00  0.00    +0.000 NA
ATOM     21  C   UNL     1       7.872   5.078  13.485  0.00  0.00    +0.000 C 
ATOM     22  C   UNL     1       7.157   4.661  12.211  0.00  0.00    +0.000 C 
ATOM     23  C   UNL     1       6.280   3.517  12.667  0.00  0.00    +0.000 C 
ATOM     24  C   UNL     1       5.867   3.928  14.071  0.00  0.00    +0.000 C 
ENDBRANCH  14  20
ENDBRANCH  13  14
ENDBRANCH   1  13
TORSDOF 6
ENDMDL
MODEL 9
REMARK VINA RESULT:      -7.0      3.256      6.263
REMARK  Name = 
REMARK  8 active torsions:
REMARK  status: ('A' for Active; 'I' for Inactive)
REMARK    1  A    between atoms: C_1  and  C_2
REMARK    2  A    between atoms: C_5  and  N_6
REMARK    3  A    between atoms: N_6  and  C_7
REMARK    4  A    between atoms: C_7  and  C_8
REMARK    5  A    between atoms: C_8  and  C_9
REMARK    6  A    between atoms: C_8  and  N_14
REMARK    7  A    between atoms: C_19  and  C_20
REMARK    8  A    between atoms: C_22  and  C_23
REMARK                            x       y       z     vdW  Elec       q    Type
REMARK                         _______ _______ _______ _____ _____    ______ ____
ROOT
ATOM      1  N   UNL     1       3.406   4.659  17.240  0.00  0.00    +0.000 N 
ATOM      2  H   UNL     1       3.581   3.698  17.522  0.00  0.00    +0.000 HD
ENDROOT
BRANCH   1   7
ATOM      3  C   UNL     1       7.995   7.948  17.567  0.00  0.00    +0.000 C 
ATOM      4  C   UNL     1       6.825   7.011  17.536  0.00  0.00    +0.000 A 
ATOM      5  N   UNL     1       5.865   7.286  16.630  0.00  0.00    +0.000 NA
ATOM      6  N   UNL     1       4.750   6.488  16.525  0.00  0.00    +0.000 NA
ATOM      7  C   UNL     1       4.567   5.435  17.343  0.00  0.00    +0.000 A 
ATOM      8  C   UNL     1       5.553   5.125  18.289  0.00  0.00    +0.000 A 
ATOM      9  C   UNL     1       6.722   5.910  18.383  0.00  0.00    +0.000 A 
ATOM     10  C   UNL     1       7.840   5.598  19.344  0.00  0.00    +0.000 C 
BRANCH   8  11
ATOM     11  C   UNL     1       5.381   3.976  19.129  0.00  0.00    +0.000 C 
ATOM     12  N   UNL     1       5.297   3.042  19.817  0.00  0.00    +0.000 NA
ENDBRANCH   8  11
ENDBRANCH   1   7
BRANCH   1  13
ATOM     13  C   UNL     1       2.149   5.195  17.804  0.00  0.00    +0.000 C 
BRANCH  13  14
ATOM     14  C   UNL     1       2.335   5.791  19.242  0.00  0.00    +0.000 C 
BRANCH  14  15
ATOM     15  C   UNL     1       2.022   7.269  19.231  0.00  0.00    +0.000 A 
ATOM     16  C   UNL     1       2.116   8.232  18.245  0.00  0.00    +0.000 A 
ATOM     17  C   UNL     1       1.577   9.420  18.791  0.00  0.00    +0.000 A 
ATOM     18  C   UNL     1       1.198   9.114  20.075  0.00  0.00    +0.000 A 
ATOM     19  O   UNL     1       1.471   7.814  20.356  0.00  0.00    +0.000 OA
ENDBRANCH  14  15
BRANCH  14  20
ATOM     20  N   UNL     1       1.638   5.027  20.307  0.00  0.00    +0.000 NA
ATOM     21  C   UNL     1       2.451   4.572  21.437  0.00  0.00    +0.000 C 
ATOM     22  C   UNL     1       2.392   3.054  21.418  0.00  0.00    +0.000 C 
ATOM     23  C   UNL     1       1.033   2.770  20.818  0.00  0.00    +0.000 C 
ATOM     24  C   UNL     1       0.857   3.886  19.801  0.00  0.00    +0.000 C 
ENDBRANCH  14  20
ENDBRANCH  13  14
ENDBRANCH   1  13
TORSDOF 6
ENDMDL
