MODEL 1
REMARK VINA RESULT:      -5.5      0.000      0.000
REMARK  Name = 
REMARK  3 active torsions:
REMARK  status: ('A' for Active; 'I' for Inactive)
REMARK    1  A    between atoms: C_1  and  C_2
REMARK    2  A    between atoms: C_5  and  C_6
REMARK    3  A    between atoms: C_6  and  C_7
REMARK                            x       y       z     vdW  Elec       q    Type
REMARK                         _______ _______ _______ _____ _____    ______ ____
ROOT
ATOM      1  C   UNL     1       5.700   4.582  18.397  0.00  0.00    +0.000 C 
ENDROOT
BRANCH   1   6
ATOM      2  C   UNL     1       0.767   2.388  18.741  0.00  0.00    +0.000 C 
ATOM      3  C   UNL     1       1.968   3.240  18.499  0.00  0.00    +0.000 A 
ATOM      4  C   UNL     1       1.971   4.486  17.884  0.00  0.00    +0.000 A 
ATOM      5  C   UNL     1       3.246   5.052  17.798  0.00  0.00    +0.000 A 
ATOM      6  C   UNL     1       4.241   4.247  18.344  0.00  0.00    +0.000 A 
ATOM      7  S   UNL     1       3.544   2.835  18.934  0.00  0.00    +0.000 S 
ENDBRANCH   1   6
BRANCH   1   8
ATOM      8  C   UNL     1       6.248   4.732  17.013  0.00  0.00    +0.000 A 
ATOM      9  C   UNL     1       7.044   5.762  16.558  0.00  0.00    +0.000 A 
ATOM     10  N   UNL     1       7.330   5.520  15.270  0.00  0.00    +0.000 N 
ATOM     11  C   UNL     1       6.710   4.363  14.966  0.00  0.00    +0.000 A 
ATOM     12  N   UNL     1       6.034   3.853  16.015  0.00  0.00    +0.000 NA
ATOM     13  H   UNL     1       7.914   6.106  14.634  0.00  0.00    +0.000 HD
ENDBRANCH   1   8
TORSDOF 2
ENDMDL
MODEL 2
REMARK VINA RESULT:      -5.5      1.697      2.142
REMARK  Name = 
REMARK  3 active torsions:
REMARK  status: ('A' for Active; 'I' for Inactive)
REMARK    1  A    between atoms: C_1  and  C_2
REMARK    2  A    between atoms: C_5  and  C_6
REMARK    3  A    between atoms: C_6  and  C_7
REMARK                            x       y       z     vdW  Elec       q    Type
REMARK                         _______ _______ _______ _____ _____    ______ ____
ROOT
ATOM      1  C   UNL     1       4.163   4.717  16.964  0.00  0.00    +0.000 C 
ENDROOT
BRANCH   1   6
ATOM      2  C   UNL     1       1.741   2.717  21.368  0.00  0.00    +0.000 C 
ATOM      3  C   UNL     1       2.402   2.957  20.052  0.00  0.00    +0.000 A 
ATOM      4  C   UNL     1       2.679   1.989  19.094  0.00  0.00    +0.000 A 
ATOM      5  C   UNL     1       3.303   2.508  17.956  0.00  0.00    +0.000 A 
ATOM      6  C   UNL     1       3.517   3.881  18.025  0.00  0.00    +0.000 A 
ATOM      7  S   UNL     1       2.932   4.454  19.494  0.00  0.00    +0.000 S 
ENDBRANCH   1   6
BRANCH   1   8
ATOM      8  C   UNL     1       5.653   4.641  17.082  0.00  0.00    +0.000 A 
ATOM      9  C   UNL     1       6.542   4.400  16.056  0.00  0.00    +0.000 A 
ATOM     10  N   UNL     1       7.781   4.427  16.572  0.00  0.00    +0.000 N 
ATOM     11  C   UNL     1       7.626   4.678  17.887  0.00  0.00    +0.000 A 
ATOM     12  N   UNL     1       6.331   4.813  18.234  0.00  0.00    +0.000 NA
ATOM     13  H   UNL     1       8.679   4.283  16.061  0.00  0.00    +0.000 HD
ENDBRANCH   1   8
TORSDOF 2
ENDMDL
MODEL 3
REMARK VINA RESULT:      -5.4      1.491      1.884
REMARK  Name = 
REMARK  3 active torsions:
REMARK  status: ('A' for Active; 'I' for Inactive)
REMARK    1  A    between atoms: C_1  and  C_2
REMARK    2  A    between atoms: C_5  and  C_6
REMARK    3  A    between atoms: C_6  and  C_7
REMARK                            x       y       z     vdW  Elec       q    Type
REMARK                         _______ _______ _______ _____ _____    ______ ____
ROOT
ATOM      1  C   UNL     1       5.396   4.067  16.584  0.00  0.00    +0.000 C 
ENDROOT
BRANCH   1   6
ATOM      2  C   UNL     1       0.789   2.564  18.987  0.00  0.00    +0.000 C 
ATOM      3  C   UNL     1       1.937   3.281  18.360  0.00  0.00    +0.000 A 
ATOM      4  C   UNL     1       2.045   4.656  18.196  0.00  0.00    +0.000 A 
ATOM      5  C   UNL     1       3.237   5.043  17.577  0.00  0.00    +0.000 A 
ATOM      6  C   UNL     1       4.061   3.969  17.254  0.00  0.00    +0.000 A 
ATOM      7  S   UNL     1       3.315   2.541  17.736  0.00  0.00    +0.000 S 
ENDBRANCH   1   6
BRANCH   1   8
ATOM      8  C   UNL     1       6.321   4.920  17.394  0.00  0.00    +0.000 A 
ATOM      9  C   UNL     1       6.844   6.140  17.019  0.00  0.00    +0.000 A 
ATOM     10  N   UNL     1       7.612   6.583  18.027  0.00  0.00    +0.000 N 
ATOM     11  C   UNL     1       7.546   5.637  18.984  0.00  0.00    +0.000 A 
ATOM     12  N   UNL     1       6.761   4.600  18.627  0.00  0.00    +0.000 NA
ATOM     13  H   UNL     1       8.149   7.477  18.062  0.00  0.00    +0.000 HD
ENDBRANCH   1   8
TORSDOF 2
ENDMDL
MODEL 4
REMARK VINA RESULT:      -5.4      1.697      2.105
REMARK  Name = 
REMARK  3 active torsions:
REMARK  status: ('A' for Active; 'I' for Inactive)
REMARK    1  A    between atoms: C_1  and  C_2
REMARK    2  A    between atoms: C_5  and  C_6
REMARK    3  A    between atoms: C_6  and  C_7
REMARK                            x       y       z     vdW  Elec       q    Type
REMARK                         _______ _______ _______ _____ _____    ______ ____
ROOT
ATOM      1  C   UNL     1       4.272   5.899  17.297  0.00  0.00    +0.000 C 
ENDROOT
BRANCH   1   6
ATOM      2  C   UNL     1       1.256   3.237  20.915  0.00  0.00    +0.000 C 
ATOM      3  C   UNL     1       1.929   3.783  19.700  0.00  0.00    +0.000 A 
ATOM      4  C   UNL     1       1.688   3.388  18.390  0.00  0.00    +0.000 A 
ATOM      5  C   UNL     1       2.466   4.078  17.457  0.00  0.00    +0.000 A 
ATOM      6  C   UNL     1       3.319   5.012  18.037  0.00  0.00    +0.000 A 
ATOM      7  S   UNL     1       3.109   4.985  19.705  0.00  0.00    +0.000 S 
ENDBRANCH   1   6
BRANCH   1   8
ATOM      8  C   UNL     1       5.676   5.417  17.482  0.00  0.00    +0.000 A 
ATOM      9  C   UNL     1       6.342   4.515  16.679  0.00  0.00    +0.000 A 
ATOM     10  N   UNL     1       7.580   4.361  17.174  0.00  0.00    +0.000 N 
ATOM     11  C   UNL     1       7.645   5.160  18.257  0.00  0.00    +0.000 A 
ATOM     12  N   UNL     1       6.491   5.823  18.475  0.00  0.00    +0.000 NA
ATOM     13  H   UNL     1       8.337   3.749  16.798  0.00  0.00    +0.000 HD
ENDBRANCH   1   8
TORSDOF 2
ENDMDL
MODEL 5
REMARK VINA RESULT:      -5.4      1.850      2.112
REMARK  Name = 
REMARK  3 active torsions:
REMARK  status: ('A' for Active; 'I' for Inactive)
REMARK    1  A    between atoms: C_1  and  C_2
REMARK    2  A    between atoms: C_5  and  C_6
REMARK    3  A    between atoms: C_6  and  C_7
REMARK                            x       y       z     vdW  Elec       q    Type
REMARK                         _______ _______ _______ _____ _____    ______ ____
ROOT
ATOM      1  C   UNL     1       4.180   4.847  17.099  0.00  0.00    +0.000 C 
ENDROOT
BRANCH   1   6
ATOM      2  C   UNL     1       2.013   2.855  21.637  0.00  0.00    +0.000 C 
ATOM      3  C   UNL     1       2.489   3.689  20.495  0.00  0.00    +0.000 A 
ATOM      4  C   UNL     1       2.291   5.056  20.349  0.00  0.00    +0.000 A 
ATOM      5  C   UNL     1       2.854   5.570  19.177  0.00  0.00    +0.000 A 
ATOM      6  C   UNL     1       3.489   4.603  18.405  0.00  0.00    +0.000 A 
ATOM      7  S   UNL     1       3.357   3.113  19.173  0.00  0.00    +0.000 S 
ENDBRANCH   1   6
BRANCH   1   8
ATOM      8  C   UNL     1       5.663   4.739  17.270  0.00  0.00    +0.000 A 
ATOM      9  C   UNL     1       6.562   4.288  16.327  0.00  0.00    +0.000 A 
ATOM     10  N   UNL     1       7.790   4.360  16.864  0.00  0.00    +0.000 N 
ATOM     11  C   UNL     1       7.619   4.844  18.110  0.00  0.00    +0.000 A 
ATOM     12  N   UNL     1       6.323   5.086  18.392  0.00  0.00    +0.000 NA
ATOM     13  H   UNL     1       8.692   4.095  16.411  0.00  0.00    +0.000 HD
ENDBRANCH   1   8
TORSDOF 2
ENDMDL
MODEL 6
REMARK VINA RESULT:      -5.4      1.458      1.666
REMARK  Name = 
REMARK  3 active torsions:
REMARK  status: ('A' for Active; 'I' for Inactive)
REMARK    1  A    between atoms: C_1  and  C_2
REMARK    2  A    between atoms: C_5  and  C_6
REMARK    3  A    between atoms: C_6  and  C_7
REMARK                            x       y       z     vdW  Elec       q    Type
REMARK                         _______ _______ _______ _____ _____    ______ ____
ROOT
ATOM      1  C   UNL     1       4.379   6.265  17.468  0.00  0.00    +0.000 C 
ENDROOT
BRANCH   1   6
ATOM      2  C   UNL     1       1.112   3.427  20.713  0.00  0.00    +0.000 C 
ATOM      3  C   UNL     1       1.900   4.007  19.587  0.00  0.00    +0.000 A 
ATOM      4  C   UNL     1       1.871   3.573  18.267  0.00  0.00    +0.000 A 
ATOM      5  C   UNL     1       2.714   4.309  17.429  0.00  0.00    +0.000 A 
ATOM      6  C   UNL     1       3.405   5.316  18.095  0.00  0.00    +0.000 A 
ATOM      7  S   UNL     1       2.972   5.299  19.720  0.00  0.00    +0.000 S 
ENDBRANCH   1   6
BRANCH   1   8
ATOM      8  C   UNL     1       5.572   5.521  16.958  0.00  0.00    +0.000 A 
ATOM      9  C   UNL     1       6.569   4.953  17.723  0.00  0.00    +0.000 A 
ATOM     10  N   UNL     1       7.444   4.370  16.889  0.00  0.00    +0.000 N 
ATOM     11  C   UNL     1       6.972   4.591  15.647  0.00  0.00    +0.000 A 
ATOM     12  N   UNL     1       5.824   5.297  15.653  0.00  0.00    +0.000 NA
ATOM     13  H   UNL     1       8.311   3.851  17.149  0.00  0.00    +0.000 HD
ENDBRANCH   1   8
TORSDOF 2
ENDMDL
MODEL 7
REMARK VINA RESULT:      -5.4      2.976      5.510
REMARK  Name = 
REMARK  3 active torsions:
REMARK  status: ('A' for Active; 'I' for Inactive)
REMARK    1  A    between atoms: C_1  and  C_2
REMARK    2  A    between atoms: C_5  and  C_6
REMARK    3  A    between atoms: C_6  and  C_7
REMARK                            x       y       z     vdW  Elec       q    Type
REMARK                         _______ _______ _______ _____ _____    ______ ____
ROOT
ATOM      1  C   UNL     1       1.861   4.534  17.934  0.00  0.00    +0.000 C 
ENDROOT
BRANCH   1   6
ATOM      2  C   UNL     1       7.152   4.628  16.811  0.00  0.00    +0.000 C 
ATOM      3  C   UNL     1       5.728   4.927  17.141  0.00  0.00    +0.000 A 
ATOM      4  C   UNL     1       5.194   6.191  17.361  0.00  0.00    +0.000 A 
ATOM      5  C   UNL     1       3.826   6.165  17.649  0.00  0.00    +0.000 A 
ATOM      6  C   UNL     1       3.291   4.881  17.657  0.00  0.00    +0.000 A 
ATOM      7  S   UNL     1       4.511   3.776  17.307  0.00  0.00    +0.000 S 
ENDBRANCH   1   6
BRANCH   1   8
ATOM      8  C   UNL     1       1.713   4.025  19.333  0.00  0.00    +0.000 A 
ATOM      9  C   UNL     1       0.824   3.063  19.762  0.00  0.00    +0.000 A 
ATOM     10  N   UNL     1       1.018   2.883  21.077  0.00  0.00    +0.000 N 
ATOM     11  C   UNL     1       2.007   3.729  21.423  0.00  0.00    +0.000 A 
ATOM     12  N   UNL     1       2.457   4.448  20.375  0.00  0.00    +0.000 NA
ATOM     13  H   UNL     1       0.507   2.222  21.704  0.00  0.00    +0.000 HD
ENDBRANCH   1   8
TORSDOF 2
ENDMDL
MODEL 8
REMARK VINA RESULT:      -5.3      1.202      1.600
REMARK  Name = 
REMARK  3 active torsions:
REMARK  status: ('A' for Active; 'I' for Inactive)
REMARK    1  A    between atoms: C_1  and  C_2
REMARK    2  A    between atoms: C_5  and  C_6
REMARK    3  A    between atoms: C_6  and  C_7
REMARK                            x       y       z     vdW  Elec       q    Type
REMARK                         _______ _______ _______ _____ _____    ______ ____
ROOT
ATOM      1  C   UNL     1       6.361   4.846  17.642  0.00  0.00    +0.000 C 
ENDROOT
BRANCH   1   6
ATOM      2  C   UNL     1       1.367   3.975  19.529  0.00  0.00    +0.000 C 
ATOM      3  C   UNL     1       2.609   4.482  18.875  0.00  0.00    +0.000 A 
ATOM      4  C   UNL     1       2.712   5.642  18.117  0.00  0.00    +0.000 A 
ATOM      5  C   UNL     1       4.004   5.867  17.632  0.00  0.00    +0.000 A 
ATOM      6  C   UNL     1       4.910   4.881  18.009  0.00  0.00    +0.000 A 
ATOM      7  S   UNL     1       4.114   3.731  18.944  0.00  0.00    +0.000 S 
ENDBRANCH   1   6
BRANCH   1   8
ATOM      8  C   UNL     1       6.518   4.608  16.173  0.00  0.00    +0.000 A 
ATOM      9  C   UNL     1       5.959   3.576  15.448  0.00  0.00    +0.000 A 
ATOM     10  N   UNL     1       6.329   3.728  14.167  0.00  0.00    +0.000 N 
ATOM     11  C   UNL     1       7.098   4.834  14.134  0.00  0.00    +0.000 A 
ATOM     12  N   UNL     1       7.236   5.399  15.351  0.00  0.00    +0.000 NA
ATOM     13  H   UNL     1       6.073   3.116  13.362  0.00  0.00    +0.000 HD
ENDBRANCH   1   8
TORSDOF 2
ENDMDL
MODEL 9
REMARK VINA RESULT:      -5.3      1.574      2.117
REMARK  Name = 
REMARK  3 active torsions:
REMARK  status: ('A' for Active; 'I' for Inactive)
REMARK    1  A    between atoms: C_1  and  C_2
REMARK    2  A    between atoms: C_5  and  C_6
REMARK    3  A    between atoms: C_6  and  C_7
REMARK                            x       y       z     vdW  Elec       q    Type
REMARK                         _______ _______ _______ _____ _____    ______ ____
ROOT
ATOM      1  C   UNL     1       3.826   5.077  17.380  0.00  0.00    +0.000 C 
ENDROOT
BRANCH   1   6
ATOM      2  C   UNL     1       1.441   2.638  21.578  0.00  0.00    +0.000 C 
ATOM      3  C   UNL     1       2.054   3.022  20.273  0.00  0.00    +0.000 A 
ATOM      4  C   UNL     1       2.177   2.198  19.160  0.00  0.00    +0.000 A 
ATOM      5  C   UNL     1       2.792   2.831  18.075  0.00  0.00    +0.000 A 
ATOM      6  C   UNL     1       3.152   4.148  18.341  0.00  0.00    +0.000 A 
ATOM      7  S   UNL     1       2.709   4.531  19.917  0.00  0.00    +0.000 S 
ENDBRANCH   1   6
BRANCH   1   8
ATOM      8  C   UNL     1       5.298   4.809  17.347  0.00  0.00    +0.000 A 
ATOM      9  C   UNL     1       6.114   4.602  18.439  0.00  0.00    +0.000 A 
ATOM     10  N   UNL     1       7.358   4.384  17.985  0.00  0.00    +0.000 N 
ATOM     11  C   UNL     1       7.280   4.464  16.642  0.00  0.00    +0.000 A 
ATOM     12  N   UNL     1       6.027   4.726  16.217  0.00  0.00    +0.000 NA
ATOM     13  H   UNL     1       8.211   4.191  18.554  0.00  0.00    +0.000 HD
ENDBRANCH   1   8
TORSDOF 2
ENDMDL
