MODEL 1
REMARK VINA RESULT:      -7.9      0.000      0.000
REMARK  Name = 
REMARK  9 active torsions:
REMARK  status: ('A' for Active; 'I' for Inactive)
REMARK    1  A    between atoms: C_1  and  C_2
REMARK    2  A    between atoms: C_5  and  C_6
REMARK    3  A    between atoms: N_8  and  C_9
REMARK    4  A    between atoms: C_9  and  C_10
REMARK    5  A    between atoms: N_12  and  N_13
REMARK    6  A    between atoms: N_13  and  C_14
REMARK    7  A    between atoms: C_14  and  N_16
REMARK    8  A    between atoms: N_16  and  C_17
REMARK    9  A    between atoms: N_26  and  N_27
REMARK                            x       y       z     vdW  Elec       q    Type
REMARK                         _______ _______ _______ _____ _____    ______ ____
ROOT
ATOM      1  C   UNL     1       1.419   9.412  19.449  0.00  0.00    +0.000 C 
ENDROOT
BRANCH   1   4
ATOM      2  C   UNL     1      -1.415  11.341  18.571  0.00  0.00    +0.000 A 
ATOM      3  N   UNL     1      -0.918  10.159  18.853  0.00  0.00    +0.000 NA
ATOM      4  N   UNL     1       0.448  10.390  19.016  0.00  0.00    +0.000 N 
ATOM      5  C   UNL     1       0.738  11.746  18.864  0.00  0.00    +0.000 A 
ATOM      6  O   UNL     1       1.814  12.302  19.033  0.00  0.00    +0.000 OA
ATOM      7  N   UNL     1      -0.463  12.333  18.548  0.00  0.00    +0.000 N 
BRANCH   2  12
ATOM      8  C   UNL     1      -7.138  12.055  17.936  0.00  0.00    +0.000 C 
ATOM      9  C   UNL     1      -5.643  11.958  18.028  0.00  0.00    +0.000 A 
ATOM     10  C   UNL     1      -4.848  11.547  16.948  0.00  0.00    +0.000 A 
ATOM     11  C   UNL     1      -3.457  11.391  17.096  0.00  0.00    +0.000 A 
ATOM     12  C   UNL     1      -2.851  11.650  18.331  0.00  0.00    +0.000 A 
ATOM     13  C   UNL     1      -3.642  12.149  19.373  0.00  0.00    +0.000 A 
ATOM     14  C   UNL     1      -5.024  12.271  19.238  0.00  0.00    +0.000 A 
ENDBRANCH   2  12
BRANCH   7  15
ATOM     15  N   UNL     1      -0.635  13.722  18.467  0.00  0.00    +0.000 N 
ATOM     16  H   UNL     1      -1.092  14.013  19.338  0.00  0.00    +0.000 HD
ATOM     17  H   UNL     1      -1.308  13.914  17.725  0.00  0.00    +0.000 HD
ENDBRANCH   7  15
ENDBRANCH   1   4
BRANCH   1  18
ATOM     18  C   UNL     1       2.047   8.597  18.333  0.00  0.00    +0.000 C 
ATOM     19  O   UNL     1       2.115   9.027  17.177  0.00  0.00    +0.000 OA
ATOM     20  N   UNL     1       2.568   7.365  18.686  0.00  0.00    +0.000 N 
ATOM     21  H   UNL     1       2.790   7.207  19.671  0.00  0.00    +0.000 HD
BRANCH  20  22
ATOM     22  N   UNL     1       3.431   6.808  17.742  0.00  0.00    +0.000 N 
ATOM     23  H   UNL     1       3.367   7.212  16.806  0.00  0.00    +0.000 HD
BRANCH  22  24
ATOM     24  C   UNL     1       4.210   5.693  17.937  0.00  0.00    +0.000 C 
ATOM     25  S   UNL     1       5.847   5.697  18.253  0.00  0.00    +0.000 S 
BRANCH  24  26
ATOM     26  N   UNL     1       3.508   4.503  17.895  0.00  0.00    +0.000 N 
ATOM     27  H   UNL     1       3.418   4.068  16.984  0.00  0.00    +0.000 HD
BRANCH  26  28
ATOM     28  C   UNL     1       2.835   3.905  18.985  0.00  0.00    +0.000 A 
ATOM     29  C   UNL     1       1.446   4.033  19.145  0.00  0.00    +0.000 A 
ATOM     30  C   UNL     1       0.805   3.506  20.264  0.00  0.00    +0.000 A 
ATOM     31  C   UNL     1       1.555   2.829  21.212  0.00  0.00    +0.000 A 
ATOM     32  F   UNL     1       0.951   2.352  22.307  0.00  0.00    +0.000 F 
ATOM     33  C   UNL     1       2.922   2.637  21.041  0.00  0.00    +0.000 A 
ATOM     34  C   UNL     1       3.565   3.158  19.911  0.00  0.00    +0.000 A 
ENDBRANCH  26  28
ENDBRANCH  24  26
ENDBRANCH  22  24
ENDBRANCH  20  22
ENDBRANCH   1  18
TORSDOF 8
ENDMDL
MODEL 2
REMARK VINA RESULT:      -7.9      2.441      3.366
REMARK  Name = 
REMARK  9 active torsions:
REMARK  status: ('A' for Active; 'I' for Inactive)
REMARK    1  A    between atoms: C_1  and  C_2
REMARK    2  A    between atoms: C_5  and  C_6
REMARK    3  A    between atoms: N_8  and  C_9
REMARK    4  A    between atoms: C_9  and  C_10
REMARK    5  A    between atoms: N_12  and  N_13
REMARK    6  A    between atoms: N_13  and  C_14
REMARK    7  A    between atoms: C_14  and  N_16
REMARK    8  A    between atoms: N_16  and  C_17
REMARK    9  A    between atoms: N_26  and  N_27
REMARK                            x       y       z     vdW  Elec       q    Type
REMARK                         _______ _______ _______ _____ _____    ______ ____
ROOT
ATOM      1  C   UNL     1       1.055   9.722  20.554  0.00  0.00    +0.000 C 
ENDROOT
BRANCH   1   4
ATOM      2  C   UNL     1      -1.672  11.249  18.895  0.00  0.00    +0.000 A 
ATOM      3  N   UNL     1      -1.247  10.296  19.692  0.00  0.00    +0.000 NA
ATOM      4  N   UNL     1       0.138  10.464  19.722  0.00  0.00    +0.000 N 
ATOM      5  C   UNL     1       0.515  11.567  18.955  0.00  0.00    +0.000 A 
ATOM      6  O   UNL     1       1.632  12.048  18.841  0.00  0.00    +0.000 OA
ATOM      7  N   UNL     1      -0.655  12.036  18.409  0.00  0.00    +0.000 N 
BRANCH   2  12
ATOM      8  C   UNL     1      -7.010  12.786  17.219  0.00  0.00    +0.000 C 
ATOM      9  C   UNL     1      -5.678  12.312  17.723  0.00  0.00    +0.000 A 
ATOM     10  C   UNL     1      -5.245  12.545  19.037  0.00  0.00    +0.000 A 
ATOM     11  C   UNL     1      -3.956  12.156  19.450  0.00  0.00    +0.000 A 
ATOM     12  C   UNL     1      -3.092  11.527  18.546  0.00  0.00    +0.000 A 
ATOM     13  C   UNL     1      -3.570  11.216  17.267  0.00  0.00    +0.000 A 
ATOM     14  C   UNL     1      -4.833  11.631  16.847  0.00  0.00    +0.000 A 
ENDBRANCH   2  12
BRANCH   7  15
ATOM     15  N   UNL     1      -0.733  13.240  17.693  0.00  0.00    +0.000 N 
ATOM     16  H   UNL     1       0.016  13.214  16.993  0.00  0.00    +0.000 HD
ATOM     17  H   UNL     1      -0.489  14.000  18.328  0.00  0.00    +0.000 HD
ENDBRANCH   7  15
ENDBRANCH   1   4
BRANCH   1  18
ATOM     18  C   UNL     1       1.606   8.454  19.928  0.00  0.00    +0.000 C 
ATOM     19  O   UNL     1       1.879   8.392  18.725  0.00  0.00    +0.000 OA
ATOM     20  N   UNL     1       1.816   7.385  20.781  0.00  0.00    +0.000 N 
ATOM     21  H   UNL     1       1.899   7.583  21.779  0.00  0.00    +0.000 HD
BRANCH  20  22
ATOM     22  N   UNL     1       2.631   6.379  20.260  0.00  0.00    +0.000 N 
ATOM     23  H   UNL     1       3.633   6.579  20.283  0.00  0.00    +0.000 HD
BRANCH  22  24
ATOM     24  C   UNL     1       2.189   5.259  19.600  0.00  0.00    +0.000 C 
ATOM     25  S   UNL     1       1.479   3.930  20.315  0.00  0.00    +0.000 S 
BRANCH  24  26
ATOM     26  N   UNL     1       2.335   5.320  18.228  0.00  0.00    +0.000 N 
ATOM     27  H   UNL     1       1.479   5.377  17.688  0.00  0.00    +0.000 HD
BRANCH  26  28
ATOM     28  C   UNL     1       3.557   5.214  17.524  0.00  0.00    +0.000 A 
ATOM     29  C   UNL     1       4.015   3.979  17.037  0.00  0.00    +0.000 A 
ATOM     30  C   UNL     1       5.256   3.874  16.414  0.00  0.00    +0.000 A 
ATOM     31  C   UNL     1       6.029   5.013  16.259  0.00  0.00    +0.000 A 
ATOM     32  F   UNL     1       7.239   4.912  15.694  0.00  0.00    +0.000 F 
ATOM     33  C   UNL     1       5.567   6.256  16.679  0.00  0.00    +0.000 A 
ATOM     34  C   UNL     1       4.315   6.364  17.296  0.00  0.00    +0.000 A 
ENDBRANCH  26  28
ENDBRANCH  24  26
ENDBRANCH  22  24
ENDBRANCH  20  22
ENDBRANCH   1  18
TORSDOF 8
ENDMDL
MODEL 3
REMARK VINA RESULT:      -7.9      7.637     10.984
REMARK  Name = 
REMARK  9 active torsions:
REMARK  status: ('A' for Active; 'I' for Inactive)
REMARK    1  A    between atoms: C_1  and  C_2
REMARK    2  A    between atoms: C_5  and  C_6
REMARK    3  A    between atoms: N_8  and  C_9
REMARK    4  A    between atoms: C_9  and  C_10
REMARK    5  A    between atoms: N_12  and  N_13
REMARK    6  A    between atoms: N_13  and  C_14
REMARK    7  A    between atoms: C_14  and  N_16
REMARK    8  A    between atoms: N_16  and  C_17
REMARK    9  A    between atoms: N_26  and  N_27
REMARK                            x       y       z     vdW  Elec       q    Type
REMARK                         _______ _______ _______ _____ _____    ______ ____
ROOT
ATOM      1  C   UNL     1       7.618   7.561  16.810  0.00  0.00    +0.000 C 
ENDROOT
BRANCH   1   4
ATOM      2  C   UNL     1       5.185   5.107  17.574  0.00  0.00    +0.000 A 
ATOM      3  N   UNL     1       5.678   6.299  17.818  0.00  0.00    +0.000 NA
ATOM      4  N   UNL     1       6.796   6.387  16.988  0.00  0.00    +0.000 N 
ATOM      5  C   UNL     1       6.927   5.232  16.218  0.00  0.00    +0.000 A 
ATOM      6  O   UNL     1       7.736   5.017  15.328  0.00  0.00    +0.000 OA
ATOM      7  N   UNL     1       5.905   4.412  16.631  0.00  0.00    +0.000 N 
BRANCH   2  12
ATOM      8  C   UNL     1       0.533   2.347  19.672  0.00  0.00    +0.000 C 
ATOM      9  C   UNL     1       1.697   3.157  19.179  0.00  0.00    +0.000 A 
ATOM     10  C   UNL     1       1.557   4.162  18.211  0.00  0.00    +0.000 A 
ATOM     11  C   UNL     1       2.684   4.845  17.714  0.00  0.00    +0.000 A 
ATOM     12  C   UNL     1       3.961   4.525  18.189  0.00  0.00    +0.000 A 
ATOM     13  C   UNL     1       4.077   3.587  19.222  0.00  0.00    +0.000 A 
ATOM     14  C   UNL     1       2.967   2.886  19.690  0.00  0.00    +0.000 A 
ENDBRANCH   2  12
BRANCH   7  15
ATOM     15  N   UNL     1       5.588   3.206  15.988  0.00  0.00    +0.000 N 
ATOM     16  H   UNL     1       4.984   3.446  15.195  0.00  0.00    +0.000 HD
ATOM     17  H   UNL     1       5.006   2.656  16.621  0.00  0.00    +0.000 HD
ENDBRANCH   7  15
ENDBRANCH   1   4
BRANCH   1  18
ATOM     18  C   UNL     1       8.181   8.149  18.090  0.00  0.00    +0.000 C 
ATOM     19  O   UNL     1       8.578   7.431  19.013  0.00  0.00    +0.000 OA
ATOM     20  N   UNL     1       8.257   9.530  18.154  0.00  0.00    +0.000 N 
ATOM     21  H   UNL     1       8.241  10.048  17.274  0.00  0.00    +0.000 HD
BRANCH  20  22
ATOM     22  N   UNL     1       9.082  10.019  19.167  0.00  0.00    +0.000 N 
ATOM     23  H   UNL     1       9.026   9.513  20.053  0.00  0.00    +0.000 HD
BRANCH  22  24
ATOM     24  C   UNL     1       9.812  11.181  19.106  0.00  0.00    +0.000 C 
ATOM     25  S   UNL     1      10.746  11.805  20.338  0.00  0.00    +0.000 S 
BRANCH  24  26
ATOM     26  N   UNL     1       9.757  11.815  17.880  0.00  0.00    +0.000 N 
ATOM     27  H   UNL     1       9.631  11.217  17.072  0.00  0.00    +0.000 HD
BRANCH  26  28
ATOM     28  C   UNL     1       9.957  13.197  17.657  0.00  0.00    +0.000 A 
ATOM     29  C   UNL     1      11.122  13.676  17.037  0.00  0.00    +0.000 A 
ATOM     30  C   UNL     1      11.343  15.044  16.893  0.00  0.00    +0.000 A 
ATOM     31  C   UNL     1      10.383  15.932  17.350  0.00  0.00    +0.000 A 
ATOM     32  F   UNL     1      10.606  17.248  17.249  0.00  0.00    +0.000 F 
ATOM     33  C   UNL     1       9.194  15.476  17.912  0.00  0.00    +0.000 A 
ATOM     34  C   UNL     1       8.968  14.101  18.047  0.00  0.00    +0.000 A 
ENDBRANCH  26  28
ENDBRANCH  24  26
ENDBRANCH  22  24
ENDBRANCH  20  22
ENDBRANCH   1  18
TORSDOF 8
ENDMDL
MODEL 4
REMARK VINA RESULT:      -7.7      7.384     10.413
REMARK  Name = 
REMARK  9 active torsions:
REMARK  status: ('A' for Active; 'I' for Inactive)
REMARK    1  A    between atoms: C_1  and  C_2
REMARK    2  A    between atoms: C_5  and  C_6
REMARK    3  A    between atoms: N_8  and  C_9
REMARK    4  A    between atoms: C_9  and  C_10
REMARK    5  A    between atoms: N_12  and  N_13
REMARK    6  A    between atoms: N_13  and  C_14
REMARK    7  A    between atoms: C_14  and  N_16
REMARK    8  A    between atoms: N_16  and  C_17
REMARK    9  A    between atoms: N_26  and  N_27
REMARK                            x       y       z     vdW  Elec       q    Type
REMARK                         _______ _______ _______ _____ _____    ______ ____
ROOT
ATOM      1  C   UNL     1       7.398   7.800  16.959  0.00  0.00    +0.000 C 
ENDROOT
BRANCH   1   4
ATOM      2  C   UNL     1       5.310   5.088  17.864  0.00  0.00    +0.000 A 
ATOM      3  N   UNL     1       5.720   6.310  18.117  0.00  0.00    +0.000 NA
ATOM      4  N   UNL     1       6.713   6.544  17.166  0.00  0.00    +0.000 N 
ATOM      5  C   UNL     1       6.852   5.445  16.319  0.00  0.00    +0.000 A 
ATOM      6  O   UNL     1       7.560   5.351  15.328  0.00  0.00    +0.000 OA
ATOM      7  N   UNL     1       5.967   4.511  16.803  0.00  0.00    +0.000 N 
BRANCH   2  12
ATOM      8  C   UNL     1       1.075   2.718  21.043  0.00  0.00    +0.000 C 
ATOM      9  C   UNL     1       2.178   3.232  20.164  0.00  0.00    +0.000 A 
ATOM     10  C   UNL     1       3.490   2.743  20.240  0.00  0.00    +0.000 A 
ATOM     11  C   UNL     1       4.515   3.305  19.456  0.00  0.00    +0.000 A 
ATOM     12  C   UNL     1       4.229   4.363  18.585  0.00  0.00    +0.000 A 
ATOM     13  C   UNL     1       2.899   4.778  18.449  0.00  0.00    +0.000 A 
ATOM     14  C   UNL     1       1.890   4.246  19.250  0.00  0.00    +0.000 A 
ENDBRANCH   2  12
BRANCH   7  15
ATOM     15  N   UNL     1       5.683   3.312  16.133  0.00  0.00    +0.000 N 
ATOM     16  H   UNL     1       6.146   2.564  16.660  0.00  0.00    +0.000 HD
ATOM     17  H   UNL     1       6.150   3.340  15.226  0.00  0.00    +0.000 HD
ENDBRANCH   7  15
ENDBRANCH   1   4
BRANCH   1  18
ATOM     18  C   UNL     1       8.188   8.302  18.153  0.00  0.00    +0.000 C 
ATOM     19  O   UNL     1       8.643   7.528  19.000  0.00  0.00    +0.000 OA
ATOM     20  N   UNL     1       8.399   9.668  18.222  0.00  0.00    +0.000 N 
ATOM     21  H   UNL     1       8.307  10.207  17.360  0.00  0.00    +0.000 HD
BRANCH  20  22
ATOM     22  N   UNL     1       9.401  10.055  19.113  0.00  0.00    +0.000 N 
ATOM     23  H   UNL     1       9.610   9.379  19.850  0.00  0.00    +0.000 HD
BRANCH  22  24
ATOM     24  C   UNL     1       9.986  11.297  19.160  0.00  0.00    +0.000 C 
ATOM     25  S   UNL     1      10.129  12.351  17.875  0.00  0.00    +0.000 S 
BRANCH  24  26
ATOM     26  N   UNL     1      10.436  11.659  20.415  0.00  0.00    +0.000 N 
ATOM     27  H   UNL     1      11.293  11.218  20.728  0.00  0.00    +0.000 HD
BRANCH  26  28
ATOM     28  C   UNL     1       9.757  12.507  21.321  0.00  0.00    +0.000 A 
ATOM     29  C   UNL     1      10.077  13.870  21.425  0.00  0.00    +0.000 A 
ATOM     30  C   UNL     1       9.455  14.677  22.375  0.00  0.00    +0.000 A 
ATOM     31  C   UNL     1       8.495  14.122  23.205  0.00  0.00    +0.000 A 
ATOM     32  F   UNL     1       7.920  14.884  24.144  0.00  0.00    +0.000 F 
ATOM     33  C   UNL     1       8.119  12.789  23.075  0.00  0.00    +0.000 A 
ATOM     34  C   UNL     1       8.736  11.980  22.113  0.00  0.00    +0.000 A 
ENDBRANCH  26  28
ENDBRANCH  24  26
ENDBRANCH  22  24
ENDBRANCH  20  22
ENDBRANCH   1  18
TORSDOF 8
ENDMDL
MODEL 5
REMARK VINA RESULT:      -7.7      3.783      9.284
REMARK  Name = 
REMARK  9 active torsions:
REMARK  status: ('A' for Active; 'I' for Inactive)
REMARK    1  A    between atoms: C_1  and  C_2
REMARK    2  A    between atoms: C_5  and  C_6
REMARK    3  A    between atoms: N_8  and  C_9
REMARK    4  A    between atoms: C_9  and  C_10
REMARK    5  A    between atoms: N_12  and  N_13
REMARK    6  A    between atoms: N_13  and  C_14
REMARK    7  A    between atoms: C_14  and  N_16
REMARK    8  A    between atoms: N_16  and  C_17
REMARK    9  A    between atoms: N_26  and  N_27
REMARK                            x       y       z     vdW  Elec       q    Type
REMARK                         _______ _______ _______ _____ _____    ______ ____
ROOT
ATOM      1  C   UNL     1       0.901  11.144  19.223  0.00  0.00    +0.000 C 
ENDROOT
BRANCH   1   4
ATOM      2  C   UNL     1       2.297   7.945  18.630  0.00  0.00    +0.000 A 
ATOM      3  N   UNL     1       2.011   9.139  18.163  0.00  0.00    +0.000 NA
ATOM      4  N   UNL     1       1.330   9.764  19.208  0.00  0.00    +0.000 N 
ATOM      5  C   UNL     1       1.257   8.924  20.318  0.00  0.00    +0.000 A 
ATOM      6  O   UNL     1       0.815   9.190  21.426  0.00  0.00    +0.000 OA
ATOM      7  N   UNL     1       1.854   7.753  19.918  0.00  0.00    +0.000 N 
BRANCH   2  12
ATOM      8  C   UNL     1       5.436   3.633  16.349  0.00  0.00    +0.000 C 
ATOM      9  C   UNL     1       4.602   4.783  16.832  0.00  0.00    +0.000 A 
ATOM     10  C   UNL     1       5.006   6.118  16.685  0.00  0.00    +0.000 A 
ATOM     11  C   UNL     1       4.236   7.167  17.223  0.00  0.00    +0.000 A 
ATOM     12  C   UNL     1       3.050   6.883  17.910  0.00  0.00    +0.000 A 
ATOM     13  C   UNL     1       2.610   5.555  17.968  0.00  0.00    +0.000 A 
ATOM     14  C   UNL     1       3.389   4.513  17.466  0.00  0.00    +0.000 A 
ENDBRANCH   2  12
BRANCH   7  15
ATOM     15  N   UNL     1       2.128   6.697  20.799  0.00  0.00    +0.000 N 
ATOM     16  H   UNL     1       2.585   5.964  20.246  0.00  0.00    +0.000 HD
ATOM     17  H   UNL     1       1.237   6.299  21.100  0.00  0.00    +0.000 HD
ENDBRANCH   7  15
ENDBRANCH   1   4
BRANCH   1  18
ATOM     18  C   UNL     1      -0.582  11.355  18.976  0.00  0.00    +0.000 C 
ATOM     19  O   UNL     1      -1.404  11.310  19.897  0.00  0.00    +0.000 OA
ATOM     20  N   UNL     1      -0.957  11.634  17.674  0.00  0.00    +0.000 N 
ATOM     21  H   UNL     1      -0.241  11.987  17.038  0.00  0.00    +0.000 HD
BRANCH  20  22
ATOM     22  N   UNL     1      -2.243  12.160  17.541  0.00  0.00    +0.000 N 
ATOM     23  H   UNL     1      -2.330  13.152  17.770  0.00  0.00    +0.000 HD
BRANCH  22  24
ATOM     24  C   UNL     1      -3.379  11.429  17.292  0.00  0.00    +0.000 C 
ATOM     25  S   UNL     1      -3.418   9.844  16.776  0.00  0.00    +0.000 S 
BRANCH  24  26
ATOM     26  N   UNL     1      -4.553  12.110  17.548  0.00  0.00    +0.000 N 
ATOM     27  H   UNL     1      -4.789  12.855  16.902  0.00  0.00    +0.000 HD
BRANCH  26  28
ATOM     28  C   UNL     1      -5.386  11.920  18.675  0.00  0.00    +0.000 A 
ATOM     29  C   UNL     1      -6.591  11.205  18.580  0.00  0.00    +0.000 A 
ATOM     30  C   UNL     1      -7.440  11.091  19.677  0.00  0.00    +0.000 A 
ATOM     31  C   UNL     1      -7.071  11.675  20.878  0.00  0.00    +0.000 A 
ATOM     32  F   UNL     1      -7.901  11.601  21.926  0.00  0.00    +0.000 F 
ATOM     33  C   UNL     1      -5.853  12.335  21.009  0.00  0.00    +0.000 A 
ATOM     34  C   UNL     1      -4.994  12.441  19.909  0.00  0.00    +0.000 A 
ENDBRANCH  26  28
ENDBRANCH  24  26
ENDBRANCH  22  24
ENDBRANCH  20  22
ENDBRANCH   1  18
TORSDOF 8
ENDMDL
MODEL 6
REMARK VINA RESULT:      -7.7      7.673     10.988
REMARK  Name = 
REMARK  9 active torsions:
REMARK  status: ('A' for Active; 'I' for Inactive)
REMARK    1  A    between atoms: C_1  and  C_2
REMARK    2  A    between atoms: C_5  and  C_6
REMARK    3  A    between atoms: N_8  and  C_9
REMARK    4  A    between atoms: C_9  and  C_10
REMARK    5  A    between atoms: N_12  and  N_13
REMARK    6  A    between atoms: N_13  and  C_14
REMARK    7  A    between atoms: C_14  and  N_16
REMARK    8  A    between atoms: N_16  and  C_17
REMARK    9  A    between atoms: N_26  and  N_27
REMARK                            x       y       z     vdW  Elec       q    Type
REMARK                         _______ _______ _______ _____ _____    ______ ____
ROOT
ATOM      1  C   UNL     1       8.143   6.687  18.504  0.00  0.00    +0.000 C 
ENDROOT
BRANCH   1   4
ATOM      2  C   UNL     1       5.274   4.811  17.624  0.00  0.00    +0.000 A 
ATOM      3  N   UNL     1       5.995   5.363  18.572  0.00  0.00    +0.000 NA
ATOM      4  N   UNL     1       7.105   5.881  17.905  0.00  0.00    +0.000 N 
ATOM      5  C   UNL     1       7.001   5.657  16.533  0.00  0.00    +0.000 A 
ATOM      6  O   UNL     1       7.748   6.059  15.653  0.00  0.00    +0.000 OA
ATOM      7  N   UNL     1       5.838   4.942  16.376  0.00  0.00    +0.000 N 
BRANCH   2  12
ATOM      8  C   UNL     1       0.222   2.266  18.909  0.00  0.00    +0.000 C 
ATOM      9  C   UNL     1       1.514   2.889  18.469  0.00  0.00    +0.000 A 
ATOM     10  C   UNL     1       2.622   2.124  18.074  0.00  0.00    +0.000 A 
ATOM     11  C   UNL     1       3.843   2.741  17.744  0.00  0.00    +0.000 A 
ATOM     12  C   UNL     1       3.961   4.135  17.806  0.00  0.00    +0.000 A 
ATOM     13  C   UNL     1       2.823   4.891  18.109  0.00  0.00    +0.000 A 
ATOM     14  C   UNL     1       1.623   4.280  18.469  0.00  0.00    +0.000 A 
ENDBRANCH   2  12
BRANCH   7  15
ATOM     15  N   UNL     1       5.286   4.650  15.120  0.00  0.00    +0.000 N 
ATOM     16  H   UNL     1       4.772   5.487  14.824  0.00  0.00    +0.000 HD
ATOM     17  H   UNL     1       4.580   3.925  15.249  0.00  0.00    +0.000 HD
ENDBRANCH   7  15
ENDBRANCH   1   4
BRANCH   1  18
ATOM     18  C   UNL     1       8.085   8.165  18.162  0.00  0.00    +0.000 C 
ATOM     19  O   UNL     1       7.307   8.601  17.307  0.00  0.00    +0.000 OA
ATOM     20  N   UNL     1       8.924   8.998  18.880  0.00  0.00    +0.000 N 
ATOM     21  H   UNL     1       9.281   8.657  19.774  0.00  0.00    +0.000 HD
BRANCH  20  22
ATOM     22  N   UNL     1       8.604  10.354  18.797  0.00  0.00    +0.000 N 
ATOM     23  H   UNL     1       7.634  10.555  18.550  0.00  0.00    +0.000 HD
BRANCH  22  24
ATOM     24  C   UNL     1       9.506  11.389  18.863  0.00  0.00    +0.000 C 
ATOM     25  S   UNL     1      10.468  11.754  20.175  0.00  0.00    +0.000 S 
BRANCH  24  26
ATOM     26  N   UNL     1       9.604  12.123  17.697  0.00  0.00    +0.000 N 
ATOM     27  H   UNL     1       9.519  11.602  16.831  0.00  0.00    +0.000 HD
BRANCH  26  28
ATOM     28  C   UNL     1       9.906  13.502  17.614  0.00  0.00    +0.000 A 
ATOM     29  C   UNL     1       8.993  14.476  18.048  0.00  0.00    +0.000 A 
ATOM     30  C   UNL     1       9.269  15.832  17.890  0.00  0.00    +0.000 A 
ATOM     31  C   UNL     1      10.472  16.212  17.318  0.00  0.00    +0.000 A 
ATOM     32  F   UNL     1      10.727  17.513  17.130  0.00  0.00    +0.000 F 
ATOM     33  C   UNL     1      11.417  15.263  16.939  0.00  0.00    +0.000 A 
ATOM     34  C   UNL     1      11.144  13.900  17.107  0.00  0.00    +0.000 A 
ENDBRANCH  26  28
ENDBRANCH  24  26
ENDBRANCH  22  24
ENDBRANCH  20  22
ENDBRANCH   1  18
TORSDOF 8
ENDMDL
MODEL 7
REMARK VINA RESULT:      -7.7      2.235      2.946
REMARK  Name = 
REMARK  9 active torsions:
REMARK  status: ('A' for Active; 'I' for Inactive)
REMARK    1  A    between atoms: C_1  and  C_2
REMARK    2  A    between atoms: C_5  and  C_6
REMARK    3  A    between atoms: N_8  and  C_9
REMARK    4  A    between atoms: C_9  and  C_10
REMARK    5  A    between atoms: N_12  and  N_13
REMARK    6  A    between atoms: N_13  and  C_14
REMARK    7  A    between atoms: C_14  and  N_16
REMARK    8  A    between atoms: N_16  and  C_17
REMARK    9  A    between atoms: N_26  and  N_27
REMARK                            x       y       z     vdW  Elec       q    Type
REMARK                         _______ _______ _______ _____ _____    ______ ____
ROOT
ATOM      1  C   UNL     1       1.749   9.255  17.561  0.00  0.00    +0.000 C 
ENDROOT
BRANCH   1   4
ATOM      2  C   UNL     1      -0.055  11.173  19.926  0.00  0.00    +0.000 A 
ATOM      3  N   UNL     1       0.067  10.041  19.273  0.00  0.00    +0.000 NA
ATOM      4  N   UNL     1       1.148  10.253  18.416  0.00  0.00    +0.000 N 
ATOM      5  C   UNL     1       1.685  11.525  18.608  0.00  0.00    +0.000 A 
ATOM      6  O   UNL     1       2.687  11.997  18.093  0.00  0.00    +0.000 OA
ATOM      7  N   UNL     1       0.881  12.110  19.557  0.00  0.00    +0.000 N 
BRANCH   2  12
ATOM      8  C   UNL     1      -3.710  12.841  24.112  0.00  0.00    +0.000 C 
ATOM      9  C   UNL     1      -2.807  12.304  23.040  0.00  0.00    +0.000 A 
ATOM     10  C   UNL     1      -1.763  11.408  23.316  0.00  0.00    +0.000 A 
ATOM     11  C   UNL     1      -0.886  10.988  22.297  0.00  0.00    +0.000 A 
ATOM     12  C   UNL     1      -1.053  11.464  20.991  0.00  0.00    +0.000 A 
ATOM     13  C   UNL     1      -2.155  12.282  20.711  0.00  0.00    +0.000 A 
ATOM     14  C   UNL     1      -3.002  12.725  21.725  0.00  0.00    +0.000 A 
ENDBRANCH   2  12
BRANCH   7  15
ATOM     15  N   UNL     1       1.178  13.346  20.150  0.00  0.00    +0.000 N 
ATOM     16  H   UNL     1       1.604  13.927  19.421  0.00  0.00    +0.000 HD
ATOM     17  H   UNL     1       1.911  13.194  20.844  0.00  0.00    +0.000 HD
ENDBRANCH   7  15
ENDBRANCH   1   4
BRANCH   1  18
ATOM     18  C   UNL     1       2.486   8.148  18.291  0.00  0.00    +0.000 C 
ATOM     19  O   UNL     1       2.148   7.780  19.421  0.00  0.00    +0.000 OA
ATOM     20  N   UNL     1       3.533   7.550  17.611  0.00  0.00    +0.000 N 
ATOM     21  H   UNL     1       3.554   7.644  16.594  0.00  0.00    +0.000 HD
BRANCH  20  22
ATOM     22  N   UNL     1       3.952   6.333  18.147  0.00  0.00    +0.000 N 
ATOM     23  H   UNL     1       4.152   6.346  19.148  0.00  0.00    +0.000 HD
BRANCH  22  24
ATOM     24  C   UNL     1       4.257   5.207  17.420  0.00  0.00    +0.000 C 
ATOM     25  S   UNL     1       5.585   5.024  16.428  0.00  0.00    +0.000 S 
BRANCH  24  26
ATOM     26  N   UNL     1       3.372   4.162  17.605  0.00  0.00    +0.000 N 
ATOM     27  H   UNL     1       3.078   3.671  16.768  0.00  0.00    +0.000 HD
BRANCH  26  28
ATOM     28  C   UNL     1       2.778   3.793  18.834  0.00  0.00    +0.000 A 
ATOM     29  C   UNL     1       3.512   3.125  19.828  0.00  0.00    +0.000 A 
ATOM     30  C   UNL     1       2.896   2.697  21.001  0.00  0.00    +0.000 A 
ATOM     31  C   UNL     1       1.550   2.961  21.190  0.00  0.00    +0.000 A 
ATOM     32  F   UNL     1       0.944   2.520  22.300  0.00  0.00    +0.000 F 
ATOM     33  C   UNL     1       0.820   3.676  20.245  0.00  0.00    +0.000 A 
ATOM     34  C   UNL     1       1.441   4.115  19.069  0.00  0.00    +0.000 A 
ENDBRANCH  26  28
ENDBRANCH  24  26
ENDBRANCH  22  24
ENDBRANCH  20  22
ENDBRANCH   1  18
TORSDOF 8
ENDMDL
MODEL 8
REMARK VINA RESULT:      -7.7      4.020      9.461
REMARK  Name = 
REMARK  9 active torsions:
REMARK  status: ('A' for Active; 'I' for Inactive)
REMARK    1  A    between atoms: C_1  and  C_2
REMARK    2  A    between atoms: C_5  and  C_6
REMARK    3  A    between atoms: N_8  and  C_9
REMARK    4  A    between atoms: C_9  and  C_10
REMARK    5  A    between atoms: N_12  and  N_13
REMARK    6  A    between atoms: N_13  and  C_14
REMARK    7  A    between atoms: C_14  and  N_16
REMARK    8  A    between atoms: N_16  and  C_17
REMARK    9  A    between atoms: N_26  and  N_27
REMARK                            x       y       z     vdW  Elec       q    Type
REMARK                         _______ _______ _______ _____ _____    ______ ____
ROOT
ATOM      1  C   UNL     1       0.818  10.410  18.975  0.00  0.00    +0.000 C 
ENDROOT
BRANCH   1   4
ATOM      2  C   UNL     1       2.617   7.404  18.469  0.00  0.00    +0.000 A 
ATOM      3  N   UNL     1       2.210   8.553  17.981  0.00  0.00    +0.000 NA
ATOM      4  N   UNL     1       1.412   9.093  18.990  0.00  0.00    +0.000 N 
ATOM      5  C   UNL     1       1.390   8.252  20.102  0.00  0.00    +0.000 A 
ATOM      6  O   UNL     1       0.868   8.463  21.186  0.00  0.00    +0.000 OA
ATOM      7  N   UNL     1       2.142   7.161  19.737  0.00  0.00    +0.000 N 
BRANCH   2  12
ATOM      8  C   UNL     1       5.953   3.853  15.320  0.00  0.00    +0.000 C 
ATOM      9  C   UNL     1       5.125   4.715  16.228  0.00  0.00    +0.000 A 
ATOM     10  C   UNL     1       4.011   4.222  16.922  0.00  0.00    +0.000 A 
ATOM     11  C   UNL     1       3.211   5.079  17.702  0.00  0.00    +0.000 A 
ATOM     12  C   UNL     1       3.526   6.440  17.792  0.00  0.00    +0.000 A 
ATOM     13  C   UNL     1       4.694   6.900  17.171  0.00  0.00    +0.000 A 
ATOM     14  C   UNL     1       5.467   6.060  16.371  0.00  0.00    +0.000 A 
ENDBRANCH   2  12
BRANCH   7  15
ATOM     15  N   UNL     1       2.501   6.147  20.637  0.00  0.00    +0.000 N 
ATOM     16  H   UNL     1       3.378   5.743  20.290  0.00  0.00    +0.000 HD
ATOM     17  H   UNL     1       1.807   5.402  20.564  0.00  0.00    +0.000 HD
ENDBRANCH   7  15
ENDBRANCH   1   4
BRANCH   1  18
ATOM     18  C   UNL     1      -0.546  10.490  18.315  0.00  0.00    +0.000 C 
ATOM     19  O   UNL     1      -0.901   9.671  17.462  0.00  0.00    +0.000 OA
ATOM     20  N   UNL     1      -1.380  11.507  18.745  0.00  0.00    +0.000 N 
ATOM     21  H   UNL     1      -1.186  11.929  19.654  0.00  0.00    +0.000 HD
BRANCH  20  22
ATOM     22  N   UNL     1      -2.719  11.348  18.389  0.00  0.00    +0.000 N 
ATOM     23  H   UNL     1      -2.880  10.794  17.545  0.00  0.00    +0.000 HD
BRANCH  22  24
ATOM     24  C   UNL     1      -3.781  11.992  18.977  0.00  0.00    +0.000 C 
ATOM     25  S   UNL     1      -5.391  11.666  18.692  0.00  0.00    +0.000 S 
BRANCH  24  26
ATOM     26  N   UNL     1      -3.413  12.949  19.903  0.00  0.00    +0.000 N 
ATOM     27  H   UNL     1      -2.913  13.753  19.542  0.00  0.00    +0.000 HD
BRANCH  26  28
ATOM     28  C   UNL     1      -3.591  12.853  21.303  0.00  0.00    +0.000 A 
ATOM     29  C   UNL     1      -2.573  12.361  22.136  0.00  0.00    +0.000 A 
ATOM     30  C   UNL     1      -2.787  12.198  23.502  0.00  0.00    +0.000 A 
ATOM     31  C   UNL     1      -4.015  12.550  24.038  0.00  0.00    +0.000 A 
ATOM     32  F   UNL     1      -4.239  12.361  25.344  0.00  0.00    +0.000 F 
ATOM     33  C   UNL     1      -5.015  13.097  23.240  0.00  0.00    +0.000 A 
ATOM     34  C   UNL     1      -4.797  13.271  21.868  0.00  0.00    +0.000 A 
ENDBRANCH  26  28
ENDBRANCH  24  26
ENDBRANCH  22  24
ENDBRANCH  20  22
ENDBRANCH   1  18
TORSDOF 8
ENDMDL
MODEL 9
REMARK VINA RESULT:      -7.7      1.129      1.642
REMARK  Name = 
REMARK  9 active torsions:
REMARK  status: ('A' for Active; 'I' for Inactive)
REMARK    1  A    between atoms: C_1  and  C_2
REMARK    2  A    between atoms: C_5  and  C_6
REMARK    3  A    between atoms: N_8  and  C_9
REMARK    4  A    between atoms: C_9  and  C_10
REMARK    5  A    between atoms: N_12  and  N_13
REMARK    6  A    between atoms: N_13  and  C_14
REMARK    7  A    between atoms: C_14  and  N_16
REMARK    8  A    between atoms: N_16  and  C_17
REMARK    9  A    between atoms: N_26  and  N_27
REMARK                            x       y       z     vdW  Elec       q    Type
REMARK                         _______ _______ _______ _____ _____    ______ ____
ROOT
ATOM      1  C   UNL     1       1.109   9.486  19.493  0.00  0.00    +0.000 C 
ENDROOT
BRANCH   1   4
ATOM      2  C   UNL     1      -1.782  11.373  18.713  0.00  0.00    +0.000 A 
ATOM      3  N   UNL     1      -1.252  10.194  18.945  0.00  0.00    +0.000 NA
ATOM      4  N   UNL     1       0.109  10.455  19.107  0.00  0.00    +0.000 N 
ATOM      5  C   UNL     1       0.363  11.822  19.005  0.00  0.00    +0.000 A 
ATOM      6  O   UNL     1       1.425  12.399  19.188  0.00  0.00    +0.000 OA
ATOM      7  N   UNL     1      -0.856  12.389  18.721  0.00  0.00    +0.000 N 
BRANCH   2  12
ATOM      8  C   UNL     1      -7.250  12.948  17.579  0.00  0.00    +0.000 C 
ATOM      9  C   UNL     1      -5.878  12.457  17.939  0.00  0.00    +0.000 A 
ATOM     10  C   UNL     1      -5.351  12.577  19.233  0.00  0.00    +0.000 A 
ATOM     11  C   UNL     1      -4.031  12.179  19.514  0.00  0.00    +0.000 A 
ATOM     12  C   UNL     1      -3.228  11.652  18.495  0.00  0.00    +0.000 A 
ATOM     13  C   UNL     1      -3.795  11.450  17.231  0.00  0.00    +0.000 A 
ATOM     14  C   UNL     1      -5.091  11.876  16.944  0.00  0.00    +0.000 A 
ENDBRANCH   2  12
BRANCH   7  15
ATOM     15  N   UNL     1      -1.064  13.776  18.696  0.00  0.00    +0.000 N 
ATOM     16  H   UNL     1      -1.789  13.952  17.992  0.00  0.00    +0.000 HD
ATOM     17  H   UNL     1      -0.217  14.215  18.335  0.00  0.00    +0.000 HD
ENDBRANCH   7  15
ENDBRANCH   1   4
BRANCH   1  18
ATOM     18  C   UNL     1       1.915   8.906  18.346  0.00  0.00    +0.000 C 
ATOM     19  O   UNL     1       2.006   9.487  17.260  0.00  0.00    +0.000 OA
ATOM     20  N   UNL     1       2.569   7.711  18.593  0.00  0.00    +0.000 N 
ATOM     21  H   UNL     1       2.740   7.456  19.566  0.00  0.00    +0.000 HD
BRANCH  20  22
ATOM     22  N   UNL     1       3.561   7.390  17.666  0.00  0.00    +0.000 N 
ATOM     23  H   UNL     1       3.512   7.904  16.784  0.00  0.00    +0.000 HD
BRANCH  22  24
ATOM     24  C   UNL     1       4.462   6.361  17.790  0.00  0.00    +0.000 C 
ATOM     25  S   UNL     1       5.820   6.143  16.849  0.00  0.00    +0.000 S 
BRANCH  24  26
ATOM     26  N   UNL     1       4.183   5.492  18.828  0.00  0.00    +0.000 N 
ATOM     27  H   UNL     1       4.771   5.572  19.649  0.00  0.00    +0.000 HD
BRANCH  26  28
ATOM     28  C   UNL     1       3.223   4.454  18.797  0.00  0.00    +0.000 A 
ATOM     29  C   UNL     1       3.276   3.438  17.830  0.00  0.00    +0.000 A 
ATOM     30  C   UNL     1       2.282   2.466  17.762  0.00  0.00    +0.000 A 
ATOM     31  C   UNL     1       1.245   2.498  18.681  0.00  0.00    +0.000 A 
ATOM     32  F   UNL     1       0.267   1.588  18.598  0.00  0.00    +0.000 F 
ATOM     33  C   UNL     1       1.208   3.460  19.686  0.00  0.00    +0.000 A 
ATOM     34  C   UNL     1       2.213   4.431  19.760  0.00  0.00    +0.000 A 
ENDBRANCH  26  28
ENDBRANCH  24  26
ENDBRANCH  22  24
ENDBRANCH  20  22
ENDBRANCH   1  18
TORSDOF 8
ENDMDL
