MODEL 1
REMARK VINA RESULT:      -7.7      0.000      0.000
REMARK  Name = 
REMARK  10 active torsions:
REMARK  status: ('A' for Active; 'I' for Inactive)
REMARK    1  A    between atoms: C_1  and  C_2
REMARK    2  A    between atoms: C_2  and  C_3
REMARK    3  A    between atoms: C_3  and  C_4
REMARK    4  A    between atoms: C_4  and  C_5
REMARK    5  A    between atoms: C_9  and  C_11
REMARK    6  A    between atoms: C_11  and  C_12
REMARK    7  A    between atoms: C_11  and  O_13
REMARK    8  A    between atoms: O_13  and  C_14
REMARK    9  A    between atoms: N_25  and  C_26
REMARK   10  A    between atoms: C_26  and  C_27
REMARK                            x       y       z     vdW  Elec       q    Type
REMARK                         _______ _______ _______ _____ _____    ______ ____
ROOT
ATOM      1  C   UNL     1       2.432   5.419  19.590  0.00  0.00    +0.000 C 
ATOM      2  N   UNL     1       1.712   4.796  18.492  0.00  0.00    +0.000 N 
ATOM      3  C   UNL     1       2.534   4.078  17.655  0.00  0.00    +0.000 C 
ATOM      4  O   UNL     1       2.130   3.469  16.681  0.00  0.00    +0.000 OA
ATOM      5  N   UNL     1       3.805   4.154  18.132  0.00  0.00    +0.000 N 
ATOM      6  C   UNL     1       3.847   4.861  19.304  0.00  0.00    +0.000 C 
ATOM      7  O   UNL     1       4.830   5.027  20.011  0.00  0.00    +0.000 OA
ATOM      8  H   UNL     1       0.720   4.862  18.309  0.00  0.00    +0.000 HD
ENDROOT
BRANCH   1   9
ATOM      9  C   UNL     1       2.383   6.971  19.439  0.00  0.00    +0.000 C 
ATOM     10  C   UNL     1       1.715   7.478  18.141  0.00  0.00    +0.000 C 
ATOM     11  C   UNL     1       1.699   9.010  18.068  0.00  0.00    +0.000 C 
ATOM     12  N   UNL     1       1.117   9.605  19.272  0.00  0.00    +0.000 N 
ATOM     13  C   UNL     1       0.246  10.692  19.145  0.00  0.00    +0.000 C 
ATOM     14  O   UNL     1      -0.094  11.111  18.035  0.00  0.00    +0.000 OA
ATOM     15  C   UNL     1       1.716   9.164  20.523  0.00  0.00    +0.000 C 
ATOM     16  C   UNL     1       1.686   7.651  20.638  0.00  0.00    +0.000 C 
BRANCH  13  17
ATOM     17  C   UNL     1      -0.289  11.351  20.441  0.00  0.00    +0.000 C 
ATOM     18  C   UNL     1       0.556  12.567  20.818  0.00  0.00    +0.000 C 
BRANCH  17  19
ATOM     19  O   UNL     1      -1.643  11.749  20.193  0.00  0.00    +0.000 OA
BRANCH  19  20
ATOM     20  C   UNL     1      -2.394  12.211  21.238  0.00  0.00    +0.000 A 
ATOM     21  C   UNL     1      -3.495  13.003  20.895  0.00  0.00    +0.000 A 
ATOM     22  C   UNL     1      -4.362  13.487  21.877  0.00  0.00    +0.000 A 
ATOM     23  C   UNL     1      -4.143  13.166  23.214  0.00  0.00    +0.000 A 
ATOM     24  C   UNL     1      -3.059  12.363  23.562  0.00  0.00    +0.000 A 
ATOM     25  C   UNL     1      -2.188  11.887  22.578  0.00  0.00    +0.000 A 
ENDBRANCH  19  20
ENDBRANCH  17  19
ENDBRANCH  13  17
ENDBRANCH   1   9
BRANCH   1  26
ATOM     26  C   UNL     1       1.884   4.902  20.937  0.00  0.00    +0.000 C 
BRANCH  26  28
ATOM     27  C   UNL     1       1.820   2.473  21.683  0.00  0.00    +0.000 C 
ATOM     28  C   UNL     1       1.151   3.550  20.844  0.00  0.00    +0.000 C 
ENDBRANCH  26  28
ENDBRANCH   1  26
BRANCH   5  29
ATOM     29  C   UNL     1       4.941   3.486  17.539  0.00  0.00    +0.000 C 
BRANCH  29  30
ATOM     30  C   UNL     1       5.374   4.198  16.306  0.00  0.00    +0.000 A 
ATOM     31  C   UNL     1       5.309   5.510  15.878  0.00  0.00    +0.000 A 
ATOM     32  C   UNL     1       5.922   5.546  14.602  0.00  0.00    +0.000 A 
ATOM     33  C   UNL     1       6.337   4.263  14.339  0.00  0.00    +0.000 A 
ATOM     34  O   UNL     1       6.011   3.439  15.366  0.00  0.00    +0.000 OA
ENDBRANCH  29  30
ENDBRANCH   5  29
TORSDOF 8
ENDMDL
MODEL 2
REMARK VINA RESULT:      -7.7      1.033      1.530
REMARK  Name = 
REMARK  10 active torsions:
REMARK  status: ('A' for Active; 'I' for Inactive)
REMARK    1  A    between atoms: C_1  and  C_2
REMARK    2  A    between atoms: C_2  and  C_3
REMARK    3  A    between atoms: C_3  and  C_4
REMARK    4  A    between atoms: C_4  and  C_5
REMARK    5  A    between atoms: C_9  and  C_11
REMARK    6  A    between atoms: C_11  and  C_12
REMARK    7  A    between atoms: C_11  and  O_13
REMARK    8  A    between atoms: O_13  and  C_14
REMARK    9  A    between atoms: N_25  and  C_26
REMARK   10  A    between atoms: C_26  and  C_27
REMARK                            x       y       z     vdW  Elec       q    Type
REMARK                         _______ _______ _______ _____ _____    ______ ____
ROOT
ATOM      1  C   UNL     1       2.538   5.355  19.689  0.00  0.00    +0.000 C 
ATOM      2  N   UNL     1       1.755   4.702  18.653  0.00  0.00    +0.000 N 
ATOM      3  C   UNL     1       2.531   3.994  17.767  0.00  0.00    +0.000 C 
ATOM      4  O   UNL     1       2.073   3.364  16.831  0.00  0.00    +0.000 OA
ATOM      5  N   UNL     1       3.832   4.105  18.149  0.00  0.00    +0.000 N 
ATOM      6  C   UNL     1       3.941   4.827  19.307  0.00  0.00    +0.000 C 
ATOM      7  O   UNL     1       4.969   5.025  19.939  0.00  0.00    +0.000 OA
ATOM      8  H   UNL     1       0.751   4.743  18.543  0.00  0.00    +0.000 HD
ENDROOT
BRANCH   1   9
ATOM      9  C   UNL     1       2.440   6.904  19.526  0.00  0.00    +0.000 C 
ATOM     10  C   UNL     1       1.997   7.384  18.126  0.00  0.00    +0.000 C 
ATOM     11  C   UNL     1       1.919   8.914  18.046  0.00  0.00    +0.000 C 
ATOM     12  N   UNL     1       1.098   9.473  19.121  0.00  0.00    +0.000 N 
ATOM     13  C   UNL     1       0.212  10.517  18.833  0.00  0.00    +0.000 C 
ATOM     14  O   UNL     1       0.060  10.925  17.678  0.00  0.00    +0.000 OA
ATOM     15  C   UNL     1       1.479   9.056  20.462  0.00  0.00    +0.000 C 
ATOM     16  C   UNL     1       1.504   7.542  20.576  0.00  0.00    +0.000 C 
BRANCH  13  17
ATOM     17  C   UNL     1      -0.583  11.142  20.007  0.00  0.00    +0.000 C 
ATOM     18  C   UNL     1       0.366  11.658  21.088  0.00  0.00    +0.000 C 
BRANCH  17  19
ATOM     19  O   UNL     1      -1.357  12.222  19.474  0.00  0.00    +0.000 OA
BRANCH  19  20
ATOM     20  C   UNL     1      -2.717  12.089  19.414  0.00  0.00    +0.000 A 
ATOM     21  C   UNL     1      -3.435  12.689  20.454  0.00  0.00    +0.000 A 
ATOM     22  C   UNL     1      -4.831  12.660  20.470  0.00  0.00    +0.000 A 
ATOM     23  C   UNL     1      -5.523  12.044  19.430  0.00  0.00    +0.000 A 
ATOM     24  C   UNL     1      -4.816  11.460  18.381  0.00  0.00    +0.000 A 
ATOM     25  C   UNL     1      -3.418  11.482  18.373  0.00  0.00    +0.000 A 
ENDBRANCH  19  20
ENDBRANCH  17  19
ENDBRANCH  13  17
ENDBRANCH   1   9
BRANCH   1  26
ATOM     26  C   UNL     1       2.102   4.842  21.078  0.00  0.00    +0.000 C 
BRANCH  26  28
ATOM     27  C   UNL     1       1.882   2.394  21.727  0.00  0.00    +0.000 C 
ATOM     28  C   UNL     1       1.222   3.578  21.037  0.00  0.00    +0.000 C 
ENDBRANCH  26  28
ENDBRANCH   1  26
BRANCH   5  29
ATOM     29  C   UNL     1       4.937   3.456  17.482  0.00  0.00    +0.000 C 
BRANCH  29  30
ATOM     30  C   UNL     1       5.354   4.242  16.289  0.00  0.00    +0.000 A 
ATOM     31  C   UNL     1       5.282   5.578  15.942  0.00  0.00    +0.000 A 
ATOM     32  C   UNL     1       5.880   5.692  14.662  0.00  0.00    +0.000 A 
ATOM     33  C   UNL     1       6.294   4.428  14.317  0.00  0.00    +0.000 A 
ATOM     34  O   UNL     1       5.981   3.543  15.297  0.00  0.00    +0.000 OA
ENDBRANCH  29  30
ENDBRANCH   5  29
TORSDOF 8
ENDMDL
MODEL 3
REMARK VINA RESULT:      -7.5      1.279      1.761
REMARK  Name = 
REMARK  10 active torsions:
REMARK  status: ('A' for Active; 'I' for Inactive)
REMARK    1  A    between atoms: C_1  and  C_2
REMARK    2  A    between atoms: C_2  and  C_3
REMARK    3  A    between atoms: C_3  and  C_4
REMARK    4  A    between atoms: C_4  and  C_5
REMARK    5  A    between atoms: C_9  and  C_11
REMARK    6  A    between atoms: C_11  and  C_12
REMARK    7  A    between atoms: C_11  and  O_13
REMARK    8  A    between atoms: O_13  and  C_14
REMARK    9  A    between atoms: N_25  and  C_26
REMARK   10  A    between atoms: C_26  and  C_27
REMARK                            x       y       z     vdW  Elec       q    Type
REMARK                         _______ _______ _______ _____ _____    ______ ____
ROOT
ATOM      1  C   UNL     1       2.536   5.143  19.903  0.00  0.00    +0.000 C 
ATOM      2  N   UNL     1       1.629   4.539  18.941  0.00  0.00    +0.000 N 
ATOM      3  C   UNL     1       2.284   3.827  17.965  0.00  0.00    +0.000 C 
ATOM      4  O   UNL     1       1.710   3.234  17.070  0.00  0.00    +0.000 OA
ATOM      5  N   UNL     1       3.621   3.888  18.211  0.00  0.00    +0.000 N 
ATOM      6  C   UNL     1       3.874   4.579  19.366  0.00  0.00    +0.000 C 
ATOM      7  O   UNL     1       4.968   4.730  19.891  0.00  0.00    +0.000 OA
ATOM      8  H   UNL     1       0.621   4.615  18.938  0.00  0.00    +0.000 HD
ENDROOT
BRANCH   1   9
ATOM      9  C   UNL     1       2.475   6.697  19.782  0.00  0.00    +0.000 C 
ATOM     10  C   UNL     1       2.230   7.229  18.352  0.00  0.00    +0.000 C 
ATOM     11  C   UNL     1       2.177   8.762  18.315  0.00  0.00    +0.000 C 
ATOM     12  N   UNL     1       1.222   9.295  19.287  0.00  0.00    +0.000 N 
ATOM     13  C   UNL     1       0.393  10.360  18.917  0.00  0.00    +0.000 C 
ATOM     14  O   UNL     1       0.403  10.808  17.767  0.00  0.00    +0.000 OA
ATOM     15  C   UNL     1       1.414   8.829  20.652  0.00  0.00    +0.000 C 
ATOM     16  C   UNL     1       1.410   7.313  20.716  0.00  0.00    +0.000 C 
BRANCH  13  17
ATOM     17  C   UNL     1      -0.549  10.956  19.994  0.00  0.00    +0.000 C 
ATOM     18  C   UNL     1       0.243  11.390  21.225  0.00  0.00    +0.000 C 
BRANCH  17  19
ATOM     19  O   UNL     1      -1.209  12.085  19.408  0.00  0.00    +0.000 OA
BRANCH  19  20
ATOM     20  C   UNL     1      -2.574  12.075  19.320  0.00  0.00    +0.000 A 
ATOM     21  C   UNL     1      -3.110  11.343  18.255  0.00  0.00    +0.000 A 
ATOM     22  C   UNL     1      -4.492  11.220  18.095  0.00  0.00    +0.000 A 
ATOM     23  C   UNL     1      -5.351  11.816  19.015  0.00  0.00    +0.000 A 
ATOM     24  C   UNL     1      -4.825  12.531  20.088  0.00  0.00    +0.000 A 
ATOM     25  C   UNL     1      -3.441  12.660  20.240  0.00  0.00    +0.000 A 
ENDBRANCH  19  20
ENDBRANCH  17  19
ENDBRANCH  13  17
ENDBRANCH   1   9
BRANCH   1  26
ATOM     26  C   UNL     1       2.229   4.611  21.319  0.00  0.00    +0.000 C 
BRANCH  26  28
ATOM     27  C   UNL     1       1.215   2.356  21.909  0.00  0.00    +0.000 C 
ATOM     28  C   UNL     1       2.475   3.101  21.494  0.00  0.00    +0.000 C 
ENDBRANCH  26  28
ENDBRANCH   1  26
BRANCH   5  29
ATOM     29  C   UNL     1       4.628   3.221  17.420  0.00  0.00    +0.000 C 
BRANCH  29  30
ATOM     30  C   UNL     1       5.174   4.146  16.390  0.00  0.00    +0.000 A 
ATOM     31  C   UNL     1       6.039   3.998  15.323  0.00  0.00    +0.000 A 
ATOM     32  C   UNL     1       6.142   5.271  14.711  0.00  0.00    +0.000 A 
ATOM     33  C   UNL     1       5.324   6.110  15.428  0.00  0.00    +0.000 A 
ATOM     34  O   UNL     1       4.732   5.437  16.447  0.00  0.00    +0.000 OA
ENDBRANCH  29  30
ENDBRANCH   5  29
TORSDOF 8
ENDMDL
MODEL 4
REMARK VINA RESULT:      -7.4      1.951      2.685
REMARK  Name = 
REMARK  10 active torsions:
REMARK  status: ('A' for Active; 'I' for Inactive)
REMARK    1  A    between atoms: C_1  and  C_2
REMARK    2  A    between atoms: C_2  and  C_3
REMARK    3  A    between atoms: C_3  and  C_4
REMARK    4  A    between atoms: C_4  and  C_5
REMARK    5  A    between atoms: C_9  and  C_11
REMARK    6  A    between atoms: C_11  and  C_12
REMARK    7  A    between atoms: C_11  and  O_13
REMARK    8  A    between atoms: O_13  and  C_14
REMARK    9  A    between atoms: N_25  and  C_26
REMARK   10  A    between atoms: C_26  and  C_27
REMARK                            x       y       z     vdW  Elec       q    Type
REMARK                         _______ _______ _______ _____ _____    ______ ____
ROOT
ATOM      1  C   UNL     1       2.550   5.147  19.893  0.00  0.00    +0.000 C 
ATOM      2  N   UNL     1       1.574   4.586  18.974  0.00  0.00    +0.000 N 
ATOM      3  C   UNL     1       2.154   3.876  17.950  0.00  0.00    +0.000 C 
ATOM      4  O   UNL     1       1.515   3.315  17.079  0.00  0.00    +0.000 OA
ATOM      5  N   UNL     1       3.503   3.898  18.121  0.00  0.00    +0.000 N 
ATOM      6  C   UNL     1       3.840   4.559  19.271  0.00  0.00    +0.000 C 
ATOM      7  O   UNL     1       4.965   4.671  19.736  0.00  0.00    +0.000 OA
ATOM      8  H   UNL     1       0.570   4.688  19.029  0.00  0.00    +0.000 HD
ENDROOT
BRANCH   1   9
ATOM      9  C   UNL     1       2.524   6.705  19.804  0.00  0.00    +0.000 C 
ATOM     10  C   UNL     1       2.576   7.274  18.368  0.00  0.00    +0.000 C 
ATOM     11  C   UNL     1       2.541   8.808  18.362  0.00  0.00    +0.000 C 
ATOM     12  N   UNL     1       1.413   9.329  19.135  0.00  0.00    +0.000 N 
ATOM     13  C   UNL     1       0.682  10.411  18.635  0.00  0.00    +0.000 C 
ATOM     14  O   UNL     1       0.926  10.887  17.522  0.00  0.00    +0.000 OA
ATOM     15  C   UNL     1       1.323   8.827  20.498  0.00  0.00    +0.000 C 
ATOM     16  C   UNL     1       1.297   7.309  20.520  0.00  0.00    +0.000 C 
BRANCH  13  17
ATOM     17  C   UNL     1      -0.454  10.991  19.515  0.00  0.00    +0.000 C 
ATOM     18  C   UNL     1      -0.709  12.457  19.171  0.00  0.00    +0.000 C 
BRANCH  17  19
ATOM     19  O   UNL     1      -1.631  10.214  19.264  0.00  0.00    +0.000 OA
BRANCH  19  20
ATOM     20  C   UNL     1      -2.405  10.525  18.180  0.00  0.00    +0.000 A 
ATOM     21  C   UNL     1      -2.136   9.803  17.012  0.00  0.00    +0.000 A 
ATOM     22  C   UNL     1      -2.896  10.000  15.858  0.00  0.00    +0.000 A 
ATOM     23  C   UNL     1      -3.950  10.912  15.870  0.00  0.00    +0.000 A 
ATOM     24  C   UNL     1      -4.236  11.620  17.035  0.00  0.00    +0.000 A 
ATOM     25  C   UNL     1      -3.466  11.427  18.186  0.00  0.00    +0.000 A 
ENDBRANCH  19  20
ENDBRANCH  17  19
ENDBRANCH  13  17
ENDBRANCH   1   9
BRANCH   1  26
ATOM     26  C   UNL     1       2.309   4.597  21.315  0.00  0.00    +0.000 C 
BRANCH  26  28
ATOM     27  C   UNL     1       2.487   2.068  21.501  0.00  0.00    +0.000 C 
ATOM     28  C   UNL     1       1.550   3.257  21.354  0.00  0.00    +0.000 C 
ENDBRANCH  26  28
ENDBRANCH   1  26
BRANCH   5  29
ATOM     29  C   UNL     1       4.446   3.219  17.262  0.00  0.00    +0.000 C 
BRANCH  29  30
ATOM     30  C   UNL     1       5.260   4.209  16.504  0.00  0.00    +0.000 A 
ATOM     31  C   UNL     1       4.960   5.333  15.758  0.00  0.00    +0.000 A 
ATOM     32  C   UNL     1       6.198   5.856  15.308  0.00  0.00    +0.000 A 
ATOM     33  C   UNL     1       7.172   5.032  15.819  0.00  0.00    +0.000 A 
ATOM     34  O   UNL     1       6.613   4.033  16.546  0.00  0.00    +0.000 OA
ENDBRANCH  29  30
ENDBRANCH   5  29
TORSDOF 8
ENDMDL
MODEL 5
REMARK VINA RESULT:      -7.4      2.562      5.244
REMARK  Name = 
REMARK  10 active torsions:
REMARK  status: ('A' for Active; 'I' for Inactive)
REMARK    1  A    between atoms: C_1  and  C_2
REMARK    2  A    between atoms: C_2  and  C_3
REMARK    3  A    between atoms: C_3  and  C_4
REMARK    4  A    between atoms: C_4  and  C_5
REMARK    5  A    between atoms: C_9  and  C_11
REMARK    6  A    between atoms: C_11  and  C_12
REMARK    7  A    between atoms: C_11  and  O_13
REMARK    8  A    between atoms: O_13  and  C_14
REMARK    9  A    between atoms: N_25  and  C_26
REMARK   10  A    between atoms: C_26  and  C_27
REMARK                            x       y       z     vdW  Elec       q    Type
REMARK                         _______ _______ _______ _____ _____    ______ ____
ROOT
ATOM      1  C   UNL     1       3.954   6.282  17.580  0.00  0.00    +0.000 C 
ATOM      2  N   UNL     1       5.035   6.383  18.546  0.00  0.00    +0.000 N 
ATOM      3  C   UNL     1       5.252   5.208  19.227  0.00  0.00    +0.000 C 
ATOM      4  O   UNL     1       6.119   5.075  20.071  0.00  0.00    +0.000 OA
ATOM      5  N   UNL     1       4.378   4.275  18.763  0.00  0.00    +0.000 N 
ATOM      6  C   UNL     1       3.616   4.781  17.745  0.00  0.00    +0.000 C 
ATOM      7  O   UNL     1       2.804   4.159  17.075  0.00  0.00    +0.000 OA
ATOM      8  H   UNL     1       5.588   7.205  18.745  0.00  0.00    +0.000 HD
ENDROOT
BRANCH   1   9
ATOM      9  C   UNL     1       2.766   7.193  18.021  0.00  0.00    +0.000 C 
ATOM     10  C   UNL     1       2.598   7.349  19.549  0.00  0.00    +0.000 C 
ATOM     11  C   UNL     1       1.416   8.261  19.902  0.00  0.00    +0.000 C 
ATOM     12  N   UNL     1       1.497   9.547  19.209  0.00  0.00    +0.000 N 
ATOM     13  C   UNL     1       1.180  10.719  19.904  0.00  0.00    +0.000 C 
ATOM     14  O   UNL     1       0.904  10.694  21.107  0.00  0.00    +0.000 OA
ATOM     15  C   UNL     1       1.649   9.455  17.765  0.00  0.00    +0.000 C 
ATOM     16  C   UNL     1       2.851   8.603  17.397  0.00  0.00    +0.000 C 
BRANCH  13  17
ATOM     17  C   UNL     1       1.195  12.056  19.120  0.00  0.00    +0.000 C 
ATOM     18  C   UNL     1      -0.228  12.525  18.824  0.00  0.00    +0.000 C 
BRANCH  17  19
ATOM     19  O   UNL     1       1.874  13.021  19.932  0.00  0.00    +0.000 OA
BRANCH  19  20
ATOM     20  C   UNL     1       2.267  14.200  19.361  0.00  0.00    +0.000 A 
ATOM     21  C   UNL     1       3.175  14.092  18.302  0.00  0.00    +0.000 A 
ATOM     22  C   UNL     1       3.606  15.226  17.610  0.00  0.00    +0.000 A 
ATOM     23  C   UNL     1       3.115  16.481  17.962  0.00  0.00    +0.000 A 
ATOM     24  C   UNL     1       2.196  16.595  19.004  0.00  0.00    +0.000 A 
ATOM     25  C   UNL     1       1.774  15.459  19.700  0.00  0.00    +0.000 A 
ENDBRANCH  19  20
ENDBRANCH  17  19
ENDBRANCH  13  17
ENDBRANCH   1   9
BRANCH   1  26
ATOM     26  C   UNL     1       4.486   6.587  16.164  0.00  0.00    +0.000 C 
BRANCH  26  28
ATOM     27  C   UNL     1       5.621   4.807  14.748  0.00  0.00    +0.000 C 
ATOM     28  C   UNL     1       5.806   5.872  15.817  0.00  0.00    +0.000 C 
ENDBRANCH  26  28
ENDBRANCH   1  26
BRANCH   5  29
ATOM     29  C   UNL     1       4.337   2.902  19.212  0.00  0.00    +0.000 C 
BRANCH  29  30
ATOM     30  C   UNL     1       3.156   2.679  20.089  0.00  0.00    +0.000 A 
ATOM     31  C   UNL     1       2.938   2.763  21.451  0.00  0.00    +0.000 A 
ATOM     32  C   UNL     1       1.573   2.444  21.658  0.00  0.00    +0.000 A 
ATOM     33  C   UNL     1       1.041   2.205  20.414  0.00  0.00    +0.000 A 
ATOM     34  O   UNL     1       1.992   2.347  19.457  0.00  0.00    +0.000 OA
ENDBRANCH  29  30
ENDBRANCH   5  29
TORSDOF 8
ENDMDL
MODEL 6
REMARK VINA RESULT:      -7.3      0.983      1.374
REMARK  Name = 
REMARK  10 active torsions:
REMARK  status: ('A' for Active; 'I' for Inactive)
REMARK    1  A    between atoms: C_1  and  C_2
REMARK    2  A    between atoms: C_2  and  C_3
REMARK    3  A    between atoms: C_3  and  C_4
REMARK    4  A    between atoms: C_4  and  C_5
REMARK    5  A    between atoms: C_9  and  C_11
REMARK    6  A    between atoms: C_11  and  C_12
REMARK    7  A    between atoms: C_11  and  O_13
REMARK    8  A    between atoms: O_13  and  C_14
REMARK    9  A    between atoms: N_25  and  C_26
REMARK   10  A    between atoms: C_26  and  C_27
REMARK                            x       y       z     vdW  Elec       q    Type
REMARK                         _______ _______ _______ _____ _____    ______ ____
ROOT
ATOM      1  C   UNL     1       2.239   5.546  19.734  0.00  0.00    +0.000 C 
ATOM      2  N   UNL     1       1.457   5.002  18.636  0.00  0.00    +0.000 N 
ATOM      3  C   UNL     1       2.224   4.321  17.721  0.00  0.00    +0.000 C 
ATOM      4  O   UNL     1       1.763   3.778  16.734  0.00  0.00    +0.000 OA
ATOM      5  N   UNL     1       3.517   4.345  18.141  0.00  0.00    +0.000 N 
ATOM      6  C   UNL     1       3.628   4.980  19.349  0.00  0.00    +0.000 C 
ATOM      7  O   UNL     1       4.646   5.087  20.017  0.00  0.00    +0.000 OA
ATOM      8  H   UNL     1       0.459   5.097  18.506  0.00  0.00    +0.000 HD
ENDROOT
BRANCH   1   9
ATOM      9  C   UNL     1       2.215   7.105  19.676  0.00  0.00    +0.000 C 
ATOM     10  C   UNL     1       1.654   7.699  18.365  0.00  0.00    +0.000 C 
ATOM     11  C   UNL     1       1.657   9.233  18.387  0.00  0.00    +0.000 C 
ATOM     12  N   UNL     1       0.989   9.760  19.577  0.00  0.00    +0.000 N 
ATOM     13  C   UNL     1       0.139  10.865  19.452  0.00  0.00    +0.000 C 
ATOM     14  O   UNL     1      -0.110  11.356  18.347  0.00  0.00    +0.000 OA
ATOM     15  C   UNL     1       1.486   9.236  20.841  0.00  0.00    +0.000 C 
ATOM     16  C   UNL     1       1.434   7.719  20.859  0.00  0.00    +0.000 C 
BRANCH  13  17
ATOM     17  C   UNL     1      -0.488  11.451  20.742  0.00  0.00    +0.000 C 
ATOM     18  C   UNL     1       0.319  12.647  21.242  0.00  0.00    +0.000 C 
BRANCH  17  19
ATOM     19  O   UNL     1      -1.825  11.856  20.423  0.00  0.00    +0.000 OA
BRANCH  19  20
ATOM     20  C   UNL     1      -2.537  12.561  21.354  0.00  0.00    +0.000 A 
ATOM     21  C   UNL     1      -2.568  12.014  22.641  0.00  0.00    +0.000 A 
ATOM     22  C   UNL     1      -3.221  12.673  23.684  0.00  0.00    +0.000 A 
ATOM     23  C   UNL     1      -3.837  13.901  23.449  0.00  0.00    +0.000 A 
ATOM     24  C   UNL     1      -3.795  14.461  22.174  0.00  0.00    +0.000 A 
ATOM     25  C   UNL     1      -3.147  13.794  21.130  0.00  0.00    +0.000 A 
ENDBRANCH  19  20
ENDBRANCH  17  19
ENDBRANCH  13  17
ENDBRANCH   1   9
BRANCH   1  26
ATOM     26  C   UNL     1       1.743   4.959  21.073  0.00  0.00    +0.000 C 
BRANCH  26  28
ATOM     27  C   UNL     1       2.121   2.528  21.711  0.00  0.00    +0.000 C 
ATOM     28  C   UNL     1       1.225   3.513  20.975  0.00  0.00    +0.000 C 
ENDBRANCH  26  28
ENDBRANCH   1  26
BRANCH   5  29
ATOM     29  C   UNL     1       4.610   3.693  17.457  0.00  0.00    +0.000 C 
BRANCH  29  30
ATOM     30  C   UNL     1       5.771   4.617  17.338  0.00  0.00    +0.000 A 
ATOM     31  C   UNL     1       6.010   5.777  16.625  0.00  0.00    +0.000 A 
ATOM     32  C   UNL     1       7.321   6.192  16.966  0.00  0.00    +0.000 A 
ATOM     33  C   UNL     1       7.792   5.275  17.874  0.00  0.00    +0.000 A 
ATOM     34  O   UNL     1       6.859   4.318  18.107  0.00  0.00    +0.000 OA
ENDBRANCH  29  30
ENDBRANCH   5  29
TORSDOF 8
ENDMDL
MODEL 7
REMARK VINA RESULT:      -7.2      0.674      1.153
REMARK  Name = 
REMARK  10 active torsions:
REMARK  status: ('A' for Active; 'I' for Inactive)
REMARK    1  A    between atoms: C_1  and  C_2
REMARK    2  A    between atoms: C_2  and  C_3
REMARK    3  A    between atoms: C_3  and  C_4
REMARK    4  A    between atoms: C_4  and  C_5
REMARK    5  A    between atoms: C_9  and  C_11
REMARK    6  A    between atoms: C_11  and  C_12
REMARK    7  A    between atoms: C_11  and  O_13
REMARK    8  A    between atoms: O_13  and  C_14
REMARK    9  A    between atoms: N_25  and  C_26
REMARK   10  A    between atoms: C_26  and  C_27
REMARK                            x       y       z     vdW  Elec       q    Type
REMARK                         _______ _______ _______ _____ _____    ______ ____
ROOT
ATOM      1  C   UNL     1       2.479   5.363  19.848  0.00  0.00    +0.000 C 
ATOM      2  N   UNL     1       1.566   4.736  18.907  0.00  0.00    +0.000 N 
ATOM      3  C   UNL     1       2.215   3.983  17.957  0.00  0.00    +0.000 C 
ATOM      4  O   UNL     1       1.636   3.366  17.083  0.00  0.00    +0.000 OA
ATOM      5  N   UNL     1       3.551   4.037  18.205  0.00  0.00    +0.000 N 
ATOM      6  C   UNL     1       3.811   4.765  19.335  0.00  0.00    +0.000 C 
ATOM      7  O   UNL     1       4.905   4.921  19.857  0.00  0.00    +0.000 OA
ATOM      8  H   UNL     1       0.559   4.824  18.898  0.00  0.00    +0.000 HD
ENDROOT
BRANCH   1   9
ATOM      9  C   UNL     1       2.436   6.913  19.672  0.00  0.00    +0.000 C 
ATOM     10  C   UNL     1       1.856   7.399  18.326  0.00  0.00    +0.000 C 
ATOM     11  C   UNL     1       1.842   8.930  18.230  0.00  0.00    +0.000 C 
ATOM     12  N   UNL     1       1.179   9.540  19.383  0.00  0.00    +0.000 N 
ATOM     13  C   UNL     1       0.316  10.623  19.182  0.00  0.00    +0.000 C 
ATOM     14  O   UNL     1       0.050  11.025  18.046  0.00  0.00    +0.000 OA
ATOM     15  C   UNL     1       1.694   9.119  20.678  0.00  0.00    +0.000 C 
ATOM     16  C   UNL     1       1.660   7.607  20.812  0.00  0.00    +0.000 C 
BRANCH  13  17
ATOM     17  C   UNL     1      -0.306  11.299  20.430  0.00  0.00    +0.000 C 
ATOM     18  C   UNL     1       0.556  12.470  20.897  0.00  0.00    +0.000 C 
BRANCH  17  19
ATOM     19  O   UNL     1      -1.611  11.762  20.062  0.00  0.00    +0.000 OA
BRANCH  19  20
ATOM     20  C   UNL     1      -2.472  12.153  21.049  0.00  0.00    +0.000 A 
ATOM     21  C   UNL     1      -2.109  11.796  22.352  0.00  0.00    +0.000 A 
ATOM     22  C   UNL     1      -2.885  12.186  23.445  0.00  0.00    +0.000 A 
ATOM     23  C   UNL     1      -4.028  12.956  23.242  0.00  0.00    +0.000 A 
ATOM     24  C   UNL     1      -4.387  13.332  21.949  0.00  0.00    +0.000 A 
ATOM     25  C   UNL     1      -3.612  12.932  20.857  0.00  0.00    +0.000 A 
ENDBRANCH  19  20
ENDBRANCH  17  19
ENDBRANCH  13  17
ENDBRANCH   1   9
BRANCH   1  26
ATOM     26  C   UNL     1       2.162   4.886  21.282  0.00  0.00    +0.000 C 
BRANCH  26  28
ATOM     27  C   UNL     1       1.244   2.550  21.685  0.00  0.00    +0.000 C 
ATOM     28  C   UNL     1       2.494   3.405  21.542  0.00  0.00    +0.000 C 
ENDBRANCH  26  28
ENDBRANCH   1  26
BRANCH   5  29
ATOM     29  C   UNL     1       4.552   3.330  17.440  0.00  0.00    +0.000 C 
BRANCH  29  30
ATOM     30  C   UNL     1       5.389   4.290  16.671  0.00  0.00    +0.000 A 
ATOM     31  C   UNL     1       6.738   4.377  16.383  0.00  0.00    +0.000 A 
ATOM     32  C   UNL     1       6.902   5.531  15.578  0.00  0.00    +0.000 A 
ATOM     33  C   UNL     1       5.647   6.065  15.410  0.00  0.00    +0.000 A 
ATOM     34  O   UNL     1       4.724   5.319  16.067  0.00  0.00    +0.000 OA
ENDBRANCH  29  30
ENDBRANCH   5  29
TORSDOF 8
ENDMDL
MODEL 8
REMARK VINA RESULT:      -7.1      0.923      1.032
REMARK  Name = 
REMARK  10 active torsions:
REMARK  status: ('A' for Active; 'I' for Inactive)
REMARK    1  A    between atoms: C_1  and  C_2
REMARK    2  A    between atoms: C_2  and  C_3
REMARK    3  A    between atoms: C_3  and  C_4
REMARK    4  A    between atoms: C_4  and  C_5
REMARK    5  A    between atoms: C_9  and  C_11
REMARK    6  A    between atoms: C_11  and  C_12
REMARK    7  A    between atoms: C_11  and  O_13
REMARK    8  A    between atoms: O_13  and  C_14
REMARK    9  A    between atoms: N_25  and  C_26
REMARK   10  A    between atoms: C_26  and  C_27
REMARK                            x       y       z     vdW  Elec       q    Type
REMARK                         _______ _______ _______ _____ _____    ______ ____
ROOT
ATOM      1  C   UNL     1       2.313   5.559  19.769  0.00  0.00    +0.000 C 
ATOM      2  N   UNL     1       1.458   5.018  18.726  0.00  0.00    +0.000 N 
ATOM      3  C   UNL     1       2.160   4.337  17.760  0.00  0.00    +0.000 C 
ATOM      4  O   UNL     1       1.633   3.797  16.805  0.00  0.00    +0.000 OA
ATOM      5  N   UNL     1       3.479   4.360  18.091  0.00  0.00    +0.000 N 
ATOM      6  C   UNL     1       3.672   4.993  19.290  0.00  0.00    +0.000 C 
ATOM      7  O   UNL     1       4.733   5.097  19.888  0.00  0.00    +0.000 OA
ATOM      8  H   UNL     1       0.453   5.114  18.663  0.00  0.00    +0.000 HD
ENDROOT
BRANCH   1   9
ATOM      9  C   UNL     1       2.287   7.118  19.716  0.00  0.00    +0.000 C 
ATOM     10  C   UNL     1       1.712   7.716  18.412  0.00  0.00    +0.000 C 
ATOM     11  C   UNL     1       1.714   9.249  18.438  0.00  0.00    +0.000 C 
ATOM     12  N   UNL     1       1.057   9.773  19.637  0.00  0.00    +0.000 N 
ATOM     13  C   UNL     1       0.206  10.877  19.523  0.00  0.00    +0.000 C 
ATOM     14  O   UNL     1      -0.055  11.371  18.423  0.00  0.00    +0.000 OA
ATOM     15  C   UNL     1       1.568   9.245  20.894  0.00  0.00    +0.000 C 
ATOM     16  C   UNL     1       1.518   7.728  20.908  0.00  0.00    +0.000 C 
BRANCH  13  17
ATOM     17  C   UNL     1      -0.409  11.459  20.821  0.00  0.00    +0.000 C 
ATOM     18  C   UNL     1       0.376  12.682  21.291  0.00  0.00    +0.000 C 
BRANCH  17  19
ATOM     19  O   UNL     1      -1.763  11.824  20.528  0.00  0.00    +0.000 OA
BRANCH  19  20
ATOM     20  C   UNL     1      -2.495  12.457  21.494  0.00  0.00    +0.000 A 
ATOM     21  C   UNL     1      -3.208  13.587  21.077  0.00  0.00    +0.000 A 
ATOM     22  C   UNL     1      -4.030  14.283  21.964  0.00  0.00    +0.000 A 
ATOM     23  C   UNL     1      -4.161  13.841  23.279  0.00  0.00    +0.000 A 
ATOM     24  C   UNL     1      -3.470  12.706  23.697  0.00  0.00    +0.000 A 
ATOM     25  C   UNL     1      -2.640  12.017  22.808  0.00  0.00    +0.000 A 
ENDBRANCH  19  20
ENDBRANCH  17  19
ENDBRANCH  13  17
ENDBRANCH   1   9
BRANCH   1  26
ATOM     26  C   UNL     1       1.908   4.971  21.137  0.00  0.00    +0.000 C 
BRANCH  26  28
ATOM     27  C   UNL     1       2.229   2.514  21.706  0.00  0.00    +0.000 C 
ATOM     28  C   UNL     1       1.319   3.550  21.064  0.00  0.00    +0.000 C 
ENDBRANCH  26  28
ENDBRANCH   1  26
BRANCH   5  29
ATOM     29  C   UNL     1       4.522   3.708  17.334  0.00  0.00    +0.000 C 
BRANCH  29  30
ATOM     30  C   UNL     1       5.617   4.669  17.028  0.00  0.00    +0.000 A 
ATOM     31  C   UNL     1       6.991   4.642  17.175  0.00  0.00    +0.000 A 
ATOM     32  C   UNL     1       7.472   5.875  16.669  0.00  0.00    +0.000 A 
ATOM     33  C   UNL     1       6.368   6.567  16.231  0.00  0.00    +0.000 A 
ATOM     34  O   UNL     1       5.241   5.843  16.443  0.00  0.00    +0.000 OA
ENDBRANCH  29  30
ENDBRANCH   5  29
TORSDOF 8
ENDMDL
MODEL 9
REMARK VINA RESULT:      -7.1      1.767      2.399
REMARK  Name = 
REMARK  10 active torsions:
REMARK  status: ('A' for Active; 'I' for Inactive)
REMARK    1  A    between atoms: C_1  and  C_2
REMARK    2  A    between atoms: C_2  and  C_3
REMARK    3  A    between atoms: C_3  and  C_4
REMARK    4  A    between atoms: C_4  and  C_5
REMARK    5  A    between atoms: C_9  and  C_11
REMARK    6  A    between atoms: C_11  and  C_12
REMARK    7  A    between atoms: C_11  and  O_13
REMARK    8  A    between atoms: O_13  and  C_14
REMARK    9  A    between atoms: N_25  and  C_26
REMARK   10  A    between atoms: C_26  and  C_27
REMARK                            x       y       z     vdW  Elec       q    Type
REMARK                         _______ _______ _______ _____ _____    ______ ____
ROOT
ATOM      1  C   UNL     1       2.922   4.769  19.837  0.00  0.00    +0.000 C 
ATOM      2  N   UNL     1       1.958   4.162  18.934  0.00  0.00    +0.000 N 
ATOM      3  C   UNL     1       2.553   3.461  17.912  0.00  0.00    +0.000 C 
ATOM      4  O   UNL     1       1.926   2.867  17.054  0.00  0.00    +0.000 OA
ATOM      5  N   UNL     1       3.902   3.532  18.070  0.00  0.00    +0.000 N 
ATOM      6  C   UNL     1       4.226   4.219  19.209  0.00  0.00    +0.000 C 
ATOM      7  O   UNL     1       5.351   4.376  19.661  0.00  0.00    +0.000 OA
ATOM      8  H   UNL     1       0.951   4.229  18.998  0.00  0.00    +0.000 HD
ENDROOT
BRANCH   1   9
ATOM      9  C   UNL     1       2.840   6.323  19.729  0.00  0.00    +0.000 C 
ATOM     10  C   UNL     1       2.861   6.877  18.286  0.00  0.00    +0.000 C 
ATOM     11  C   UNL     1       2.771   8.408  18.262  0.00  0.00    +0.000 C 
ATOM     12  N   UNL     1       1.632   8.898  19.038  0.00  0.00    +0.000 N 
ATOM     13  C   UNL     1       0.859   9.948  18.531  0.00  0.00    +0.000 C 
ATOM     14  O   UNL     1       1.078  10.418  17.411  0.00  0.00    +0.000 OA
ATOM     15  C   UNL     1       1.570   8.410  20.408  0.00  0.00    +0.000 C 
ATOM     16  C   UNL     1       1.598   6.892  20.448  0.00  0.00    +0.000 C 
BRANCH  13  17
ATOM     17  C   UNL     1      -0.290  10.498  19.413  0.00  0.00    +0.000 C 
ATOM     18  C   UNL     1       0.251  11.016  20.744  0.00  0.00    +0.000 C 
BRANCH  17  19
ATOM     19  O   UNL     1      -0.916  11.563  18.687  0.00  0.00    +0.000 OA
BRANCH  19  20
ATOM     20  C   UNL     1      -2.179  11.372  18.200  0.00  0.00    +0.000 A 
ATOM     21  C   UNL     1      -3.219  11.879  18.988  0.00  0.00    +0.000 A 
ATOM     22  C   UNL     1      -4.547  11.787  18.566  0.00  0.00    +0.000 A 
ATOM     23  C   UNL     1      -4.844  11.201  17.337  0.00  0.00    +0.000 A 
ATOM     24  C   UNL     1      -3.813  10.711  16.539  0.00  0.00    +0.000 A 
ATOM     25  C   UNL     1      -2.485  10.796  16.969  0.00  0.00    +0.000 A 
ENDBRANCH  19  20
ENDBRANCH  17  19
ENDBRANCH  13  17
ENDBRANCH   1   9
BRANCH   1  26
ATOM     26  C   UNL     1       2.714   4.228  21.268  0.00  0.00    +0.000 C 
BRANCH  26  28
ATOM     27  C   UNL     1       1.223   2.274  21.916  0.00  0.00    +0.000 C 
ATOM     28  C   UNL     1       2.570   2.697  21.349  0.00  0.00    +0.000 C 
ENDBRANCH  26  28
ENDBRANCH   1  26
BRANCH   5  29
ATOM     29  C   UNL     1       4.860   2.877  17.210  0.00  0.00    +0.000 C 
BRANCH  29  30
ATOM     30  C   UNL     1       5.593   3.882  16.393  0.00  0.00    +0.000 A 
ATOM     31  C   UNL     1       6.916   4.275  16.308  0.00  0.00    +0.000 A 
ATOM     32  C   UNL     1       6.971   5.278  15.309  0.00  0.00    +0.000 A 
ATOM     33  C   UNL     1       5.689   5.421  14.835  0.00  0.00    +0.000 A 
ATOM     34  O   UNL     1       4.848   4.578  15.485  0.00  0.00    +0.000 OA
ENDBRANCH  29  30
ENDBRANCH   5  29
TORSDOF 8
ENDMDL
