MODEL 1
REMARK VINA RESULT:      -7.5      0.000      0.000
REMARK  Name = 
REMARK  10 active torsions:
REMARK  status: ('A' for Active; 'I' for Inactive)
REMARK    1  A    between atoms: C_1  and  C_2
REMARK    2  A    between atoms: C_2  and  C_19
REMARK    3  A    between atoms: C_3  and  C_4
REMARK    4  A    between atoms: C_4  and  C_5
REMARK    5  A    between atoms: C_6  and  O_7
REMARK    6  A    between atoms: C_10  and  C_11
REMARK    7  A    between atoms: C_12  and  C_13
REMARK    8  A    between atoms: C_19  and  C_20
REMARK    9  A    between atoms: C_20  and  C_21
REMARK   10  A    between atoms: C_21  and  O_23
REMARK                            x       y       z     vdW  Elec       q    Type
REMARK                         _______ _______ _______ _____ _____    ______ ____
ROOT
ATOM      1  C   UNL     1       4.405   5.542  18.404  0.00  0.00    +0.000 A 
ATOM      2  C   UNL     1       4.768   4.292  18.946  0.00  0.00    +0.000 A 
ATOM      3  C   UNL     1       3.997   3.749  19.965  0.00  0.00    +0.000 A 
ATOM      4  C   UNL     1       2.884   4.393  20.472  0.00  0.00    +0.000 A 
ATOM      5  C   UNL     1       2.470   5.623  19.965  0.00  0.00    +0.000 A 
ATOM      6  C   UNL     1       1.252   6.321  20.511  0.00  0.00    +0.000 C 
ATOM      7  C   UNL     1       3.232   6.192  18.917  0.00  0.00    +0.000 A 
ATOM      8  C   UNL     1       2.303   3.567  21.551  0.00  0.00    +0.000 C 
ATOM      9  O   UNL     1       3.118   2.385  21.555  0.00  0.00    +0.000 OA
ATOM     10  C   UNL     1       4.159   2.473  20.665  0.00  0.00    +0.000 C 
ATOM     11  O   UNL     1       5.012   1.627  20.514  0.00  0.00    +0.000 OA
ENDROOT
BRANCH   2  12
ATOM     12  O   UNL     1       5.836   3.562  18.525  0.00  0.00    +0.000 OA
ATOM     13  H   UNL     1       6.604   3.625  19.105  0.00  0.00    +0.000 HD
ENDBRANCH   2  12
BRANCH   7  14
ATOM     14  C   UNL     1       2.800   7.457  18.368  0.00  0.00    +0.000 C 
ATOM     15  N   UNL     1       2.466   8.480  17.938  0.00  0.00    +0.000 NA
ENDBRANCH   7  14
BRANCH   1  16
ATOM     16  C   UNL     1       5.216   6.207  17.307  0.00  0.00    +0.000 C 
BRANCH  16  19
ATOM     17  C   UNL     1       7.079   4.515  15.520  0.00  0.00    +0.000 C 
ATOM     18  C   UNL     1       5.688   4.937  15.134  0.00  0.00    +0.000 C 
ATOM     19  C   UNL     1       4.893   5.684  15.934  0.00  0.00    +0.000 C 
BRANCH  18  20
ATOM     20  C   UNL     1       5.243   4.442  13.764  0.00  0.00    +0.000 C 
BRANCH  20  21
ATOM     21  C   UNL     1       6.258   3.592  12.991  0.00  0.00    +0.000 C 
BRANCH  21  22
ATOM     22  C   UNL     1       5.597   2.793  11.896  0.00  0.00    +0.000 C 
ATOM     23  O   UNL     1       6.049   1.781  11.384  0.00  0.00    +0.000 OA
BRANCH  22  24
ATOM     24  O   UNL     1       4.406   3.322  11.525  0.00  0.00    +0.000 OA
ATOM     25  H   UNL     1       3.799   3.489  12.272  0.00  0.00    +0.000 HD
ENDBRANCH  22  24
ENDBRANCH  21  22
ENDBRANCH  20  21
ENDBRANCH  18  20
ENDBRANCH  16  19
ENDBRANCH   1  16
TORSDOF 8
ENDMDL
MODEL 2
REMARK VINA RESULT:      -7.2      2.924      4.671
REMARK  Name = 
REMARK  10 active torsions:
REMARK  status: ('A' for Active; 'I' for Inactive)
REMARK    1  A    between atoms: C_1  and  C_2
REMARK    2  A    between atoms: C_2  and  C_19
REMARK    3  A    between atoms: C_3  and  C_4
REMARK    4  A    between atoms: C_4  and  C_5
REMARK    5  A    between atoms: C_6  and  O_7
REMARK    6  A    between atoms: C_10  and  C_11
REMARK    7  A    between atoms: C_12  and  C_13
REMARK    8  A    between atoms: C_19  and  C_20
REMARK    9  A    between atoms: C_20  and  C_21
REMARK   10  A    between atoms: C_21  and  O_23
REMARK                            x       y       z     vdW  Elec       q    Type
REMARK                         _______ _______ _______ _____ _____    ______ ____
ROOT
ATOM      1  C   UNL     1       4.071   5.621  17.981  0.00  0.00    +0.000 A 
ATOM      2  C   UNL     1       4.323   4.333  18.493  0.00  0.00    +0.000 A 
ATOM      3  C   UNL     1       3.631   3.906  19.618  0.00  0.00    +0.000 A 
ATOM      4  C   UNL     1       2.702   4.705  20.260  0.00  0.00    +0.000 A 
ATOM      5  C   UNL     1       2.403   5.981  19.791  0.00  0.00    +0.000 A 
ATOM      6  C   UNL     1       1.384   6.848  20.484  0.00  0.00    +0.000 C 
ATOM      7  C   UNL     1       3.086   6.434  18.637  0.00  0.00    +0.000 A 
ATOM      8  C   UNL     1       2.163   3.971  21.424  0.00  0.00    +0.000 C 
ATOM      9  O   UNL     1       2.794   2.683  21.341  0.00  0.00    +0.000 OA
ATOM     10  C   UNL     1       3.704   2.620  20.315  0.00  0.00    +0.000 C 
ATOM     11  O   UNL     1       4.398   1.659  20.065  0.00  0.00    +0.000 OA
ENDROOT
BRANCH   2  12
ATOM     12  O   UNL     1       5.207   3.456  17.944  0.00  0.00    +0.000 OA
ATOM     13  H   UNL     1       5.745   3.835  17.238  0.00  0.00    +0.000 HD
ENDBRANCH   2  12
BRANCH   7  14
ATOM     14  C   UNL     1       2.768   7.748  18.127  0.00  0.00    +0.000 C 
ATOM     15  N   UNL     1       2.511   8.795  17.700  0.00  0.00    +0.000 NA
ENDBRANCH   7  14
BRANCH   1  16
ATOM     16  C   UNL     1       4.810   6.163  16.771  0.00  0.00    +0.000 C 
BRANCH  16  19
ATOM     17  C   UNL     1       7.569   5.333  17.877  0.00  0.00    +0.000 C 
ATOM     18  C   UNL     1       7.154   6.755  17.614  0.00  0.00    +0.000 C 
ATOM     19  C   UNL     1       5.936   7.093  17.134  0.00  0.00    +0.000 C 
BRANCH  18  20
ATOM     20  C   UNL     1       8.230   7.786  17.926  0.00  0.00    +0.000 C 
BRANCH  20  21
ATOM     21  C   UNL     1       7.815   9.256  17.794  0.00  0.00    +0.000 C 
BRANCH  21  22
ATOM     22  C   UNL     1       8.838  10.181  18.406  0.00  0.00    +0.000 C 
ATOM     23  O   UNL     1       9.217  11.237  17.924  0.00  0.00    +0.000 OA
BRANCH  22  24
ATOM     24  O   UNL     1       9.308   9.713  19.586  0.00  0.00    +0.000 OA
ATOM     25  H   UNL     1       8.608   9.468  20.221  0.00  0.00    +0.000 HD
ENDBRANCH  22  24
ENDBRANCH  21  22
ENDBRANCH  20  21
ENDBRANCH  18  20
ENDBRANCH  16  19
ENDBRANCH   1  16
TORSDOF 8
ENDMDL
MODEL 3
REMARK VINA RESULT:      -7.2      2.034      2.517
REMARK  Name = 
REMARK  10 active torsions:
REMARK  status: ('A' for Active; 'I' for Inactive)
REMARK    1  A    between atoms: C_1  and  C_2
REMARK    2  A    between atoms: C_2  and  C_19
REMARK    3  A    between atoms: C_3  and  C_4
REMARK    4  A    between atoms: C_4  and  C_5
REMARK    5  A    between atoms: C_6  and  O_7
REMARK    6  A    between atoms: C_10  and  C_11
REMARK    7  A    between atoms: C_12  and  C_13
REMARK    8  A    between atoms: C_19  and  C_20
REMARK    9  A    between atoms: C_20  and  C_21
REMARK   10  A    between atoms: C_21  and  O_23
REMARK                            x       y       z     vdW  Elec       q    Type
REMARK                         _______ _______ _______ _____ _____    ______ ____
ROOT
ATOM      1  C   UNL     1       4.652   4.024  17.016  0.00  0.00    +0.000 A 
ATOM      2  C   UNL     1       3.887   3.042  17.678  0.00  0.00    +0.000 A 
ATOM      3  C   UNL     1       2.815   3.440  18.467  0.00  0.00    +0.000 A 
ATOM      4  C   UNL     1       2.473   4.770  18.630  0.00  0.00    +0.000 A 
ATOM      5  C   UNL     1       3.184   5.781  17.988  0.00  0.00    +0.000 A 
ATOM      6  C   UNL     1       2.804   7.229  18.158  0.00  0.00    +0.000 C 
ATOM      7  C   UNL     1       4.273   5.400  17.169  0.00  0.00    +0.000 A 
ATOM      8  C   UNL     1       1.309   4.856  19.537  0.00  0.00    +0.000 C 
ATOM      9  O   UNL     1       0.979   3.484  19.804  0.00  0.00    +0.000 OA
ATOM     10  C   UNL     1       1.873   2.616  19.228  0.00  0.00    +0.000 C 
ATOM     11  O   UNL     1       1.840   1.411  19.343  0.00  0.00    +0.000 OA
ENDROOT
BRANCH   2  12
ATOM     12  O   UNL     1       4.123   1.705  17.589  0.00  0.00    +0.000 OA
ATOM     13  H   UNL     1       3.421   1.214  17.145  0.00  0.00    +0.000 HD
ENDBRANCH   2  12
BRANCH   7  14
ATOM     14  C   UNL     1       5.004   6.439  16.479  0.00  0.00    +0.000 C 
ATOM     15  N   UNL     1       5.607   7.265  15.934  0.00  0.00    +0.000 NA
ENDBRANCH   7  14
BRANCH   1  16
ATOM     16  C   UNL     1       5.851   3.663  16.159  0.00  0.00    +0.000 C 
BRANCH  16  19
ATOM     17  C   UNL     1       7.413   4.897  13.802  0.00  0.00    +0.000 C 
ATOM     18  C   UNL     1       6.184   4.045  13.649  0.00  0.00    +0.000 C 
ATOM     19  C   UNL     1       5.513   3.519  14.700  0.00  0.00    +0.000 C 
BRANCH  18  20
ATOM     20  C   UNL     1       5.761   3.812  12.205  0.00  0.00    +0.000 C 
BRANCH  20  21
ATOM     21  C   UNL     1       5.310   2.390  11.854  0.00  0.00    +0.000 C 
BRANCH  21  22
ATOM     22  C   UNL     1       6.459   1.546  11.360  0.00  0.00    +0.000 C 
ATOM     23  O   UNL     1       7.555   1.966  11.026  0.00  0.00    +0.000 OA
BRANCH  22  24
ATOM     24  O   UNL     1       6.146   0.229  11.326  0.00  0.00    +0.000 OA
ATOM     25  H   UNL     1       5.277   0.039  10.923  0.00  0.00    +0.000 HD
ENDBRANCH  22  24
ENDBRANCH  21  22
ENDBRANCH  20  21
ENDBRANCH  18  20
ENDBRANCH  16  19
ENDBRANCH   1  16
TORSDOF 8
ENDMDL
MODEL 4
REMARK VINA RESULT:      -7.2      2.676      3.655
REMARK  Name = 
REMARK  10 active torsions:
REMARK  status: ('A' for Active; 'I' for Inactive)
REMARK    1  A    between atoms: C_1  and  C_2
REMARK    2  A    between atoms: C_2  and  C_19
REMARK    3  A    between atoms: C_3  and  C_4
REMARK    4  A    between atoms: C_4  and  C_5
REMARK    5  A    between atoms: C_6  and  O_7
REMARK    6  A    between atoms: C_10  and  C_11
REMARK    7  A    between atoms: C_12  and  C_13
REMARK    8  A    between atoms: C_19  and  C_20
REMARK    9  A    between atoms: C_20  and  C_21
REMARK   10  A    between atoms: C_21  and  O_23
REMARK                            x       y       z     vdW  Elec       q    Type
REMARK                         _______ _______ _______ _____ _____    ______ ____
ROOT
ATOM      1  C   UNL     1       4.409   4.979  18.278  0.00  0.00    +0.000 A 
ATOM      2  C   UNL     1       3.927   6.268  17.974  0.00  0.00    +0.000 A 
ATOM      3  C   UNL     1       2.941   6.826  18.777  0.00  0.00    +0.000 A 
ATOM      4  C   UNL     1       2.410   6.159  19.865  0.00  0.00    +0.000 A 
ATOM      5  C   UNL     1       2.858   4.889  20.221  0.00  0.00    +0.000 A 
ATOM      6  C   UNL     1       2.286   4.166  21.412  0.00  0.00    +0.000 C 
ATOM      7  C   UNL     1       3.872   4.303  19.425  0.00  0.00    +0.000 A 
ATOM      8  C   UNL     1       1.377   7.011  20.490  0.00  0.00    +0.000 C 
ATOM      9  O   UNL     1       1.425   8.226  19.727  0.00  0.00    +0.000 OA
ATOM     10  C   UNL     1       2.303   8.141  18.676  0.00  0.00    +0.000 C 
ATOM     11  O   UNL     1       2.491   9.015  17.859  0.00  0.00    +0.000 OA
ENDROOT
BRANCH   2  12
ATOM     12  O   UNL     1       4.377   7.023  16.936  0.00  0.00    +0.000 OA
ATOM     13  H   UNL     1       5.313   6.896  16.739  0.00  0.00    +0.000 HD
ENDBRANCH   2  12
BRANCH   7  14
ATOM     14  C   UNL     1       4.361   2.996  19.798  0.00  0.00    +0.000 C 
ATOM     15  N   UNL     1       4.765   1.955  20.110  0.00  0.00    +0.000 NA
ENDBRANCH   7  14
BRANCH   1  16
ATOM     16  C   UNL     1       5.467   4.297  17.429  0.00  0.00    +0.000 C 
BRANCH  16  19
ATOM     17  C   UNL     1       7.128   4.963  14.916  0.00  0.00    +0.000 C 
ATOM     18  C   UNL     1       5.746   4.370  14.885  0.00  0.00    +0.000 C 
ATOM     19  C   UNL     1       5.036   4.092  16.002  0.00  0.00    +0.000 C 
BRANCH  18  20
ATOM     20  C   UNL     1       5.216   4.097  13.484  0.00  0.00    +0.000 C 
BRANCH  20  21
ATOM     21  C   UNL     1       6.160   3.348  12.538  0.00  0.00    +0.000 C 
BRANCH  21  22
ATOM     22  C   UNL     1       5.406   2.439  11.599  0.00  0.00    +0.000 C 
ATOM     23  O   UNL     1       4.311   2.674  11.112  0.00  0.00    +0.000 OA
BRANCH  22  24
ATOM     24  O   UNL     1       6.087   1.299  11.336  0.00  0.00    +0.000 OA
ATOM     25  H   UNL     1       6.721   1.048  12.034  0.00  0.00    +0.000 HD
ENDBRANCH  22  24
ENDBRANCH  21  22
ENDBRANCH  20  21
ENDBRANCH  18  20
ENDBRANCH  16  19
ENDBRANCH   1  16
TORSDOF 8
ENDMDL
MODEL 5
REMARK VINA RESULT:      -7.1      1.285      1.901
REMARK  Name = 
REMARK  10 active torsions:
REMARK  status: ('A' for Active; 'I' for Inactive)
REMARK    1  A    between atoms: C_1  and  C_2
REMARK    2  A    between atoms: C_2  and  C_19
REMARK    3  A    between atoms: C_3  and  C_4
REMARK    4  A    between atoms: C_4  and  C_5
REMARK    5  A    between atoms: C_6  and  O_7
REMARK    6  A    between atoms: C_10  and  C_11
REMARK    7  A    between atoms: C_12  and  C_13
REMARK    8  A    between atoms: C_19  and  C_20
REMARK    9  A    between atoms: C_20  and  C_21
REMARK   10  A    between atoms: C_21  and  O_23
REMARK                            x       y       z     vdW  Elec       q    Type
REMARK                         _______ _______ _______ _____ _____    ______ ____
ROOT
ATOM      1  C   UNL     1       4.951   4.487  17.970  0.00  0.00    +0.000 A 
ATOM      2  C   UNL     1       4.540   3.658  19.033  0.00  0.00    +0.000 A 
ATOM      3  C   UNL     1       3.513   4.085  19.865  0.00  0.00    +0.000 A 
ATOM      4  C   UNL     1       2.880   5.302  19.690  0.00  0.00    +0.000 A 
ATOM      5  C   UNL     1       3.234   6.156  18.648  0.00  0.00    +0.000 A 
ATOM      6  C   UNL     1       2.538   7.477  18.452  0.00  0.00    +0.000 C 
ATOM      7  C   UNL     1       4.270   5.737  17.779  0.00  0.00    +0.000 A 
ATOM      8  C   UNL     1       1.856   5.463  20.743  0.00  0.00    +0.000 C 
ATOM      9  O   UNL     1       1.908   4.224  21.466  0.00  0.00    +0.000 OA
ATOM     10  C   UNL     1       2.906   3.401  21.008  0.00  0.00    +0.000 C 
ATOM     11  O   UNL     1       3.183   2.320  21.481  0.00  0.00    +0.000 OA
ENDROOT
BRANCH   2  12
ATOM     12  O   UNL     1       5.082   2.439  19.300  0.00  0.00    +0.000 OA
ATOM     13  H   UNL     1       5.757   2.166  18.666  0.00  0.00    +0.000 HD
ENDBRANCH   2  12
BRANCH   7  14
ATOM     14  C   UNL     1       4.631   6.604  16.681  0.00  0.00    +0.000 C 
ATOM     15  N   UNL     1       4.935   7.307  15.810  0.00  0.00    +0.000 NA
ENDBRANCH   7  14
BRANCH   1  16
ATOM     16  C   UNL     1       6.083   4.096  17.038  0.00  0.00    +0.000 C 
BRANCH  16  19
ATOM     17  C   UNL     1       7.340   5.108  14.408  0.00  0.00    +0.000 C 
ATOM     18  C   UNL     1       6.151   4.190  14.480  0.00  0.00    +0.000 C 
ATOM     19  C   UNL     1       5.615   3.764  15.647  0.00  0.00    +0.000 C 
BRANCH  18  20
ATOM     20  C   UNL     1       5.605   3.768  13.123  0.00  0.00    +0.000 C 
BRANCH  20  21
ATOM     21  C   UNL     1       6.602   3.094  12.174  0.00  0.00    +0.000 C 
BRANCH  21  22
ATOM     22  C   UNL     1       5.968   1.951  11.419  0.00  0.00    +0.000 C 
ATOM     23  O   UNL     1       4.813   1.914  11.027  0.00  0.00    +0.000 OA
BRANCH  22  24
ATOM     24  O   UNL     1       6.838   0.936  11.207  0.00  0.00    +0.000 OA
ATOM     25  H   UNL     1       6.762   0.208  11.853  0.00  0.00    +0.000 HD
ENDBRANCH  22  24
ENDBRANCH  21  22
ENDBRANCH  20  21
ENDBRANCH  18  20
ENDBRANCH  16  19
ENDBRANCH   1  16
TORSDOF 8
ENDMDL
MODEL 6
REMARK VINA RESULT:      -6.9      4.361      6.897
REMARK  Name = 
REMARK  10 active torsions:
REMARK  status: ('A' for Active; 'I' for Inactive)
REMARK    1  A    between atoms: C_1  and  C_2
REMARK    2  A    between atoms: C_2  and  C_19
REMARK    3  A    between atoms: C_3  and  C_4
REMARK    4  A    between atoms: C_4  and  C_5
REMARK    5  A    between atoms: C_6  and  O_7
REMARK    6  A    between atoms: C_10  and  C_11
REMARK    7  A    between atoms: C_12  and  C_13
REMARK    8  A    between atoms: C_19  and  C_20
REMARK    9  A    between atoms: C_20  and  C_21
REMARK   10  A    between atoms: C_21  and  O_23
REMARK                            x       y       z     vdW  Elec       q    Type
REMARK                         _______ _______ _______ _____ _____    ______ ____
ROOT
ATOM      1  C   UNL     1       3.164   6.371  18.324  0.00  0.00    +0.000 A 
ATOM      2  C   UNL     1       2.401   5.604  19.228  0.00  0.00    +0.000 A 
ATOM      3  C   UNL     1       2.441   4.219  19.139  0.00  0.00    +0.000 A 
ATOM      4  C   UNL     1       3.202   3.562  18.190  0.00  0.00    +0.000 A 
ATOM      5  C   UNL     1       3.986   4.268  17.280  0.00  0.00    +0.000 A 
ATOM      6  C   UNL     1       4.823   3.552  16.253  0.00  0.00    +0.000 C 
ATOM      7  C   UNL     1       3.972   5.681  17.359  0.00  0.00    +0.000 A 
ATOM      8  C   UNL     1       3.011   2.105  18.349  0.00  0.00    +0.000 C 
ATOM      9  O   UNL     1       2.158   1.994  19.499  0.00  0.00    +0.000 OA
ATOM     10  C   UNL     1       1.760   3.221  19.967  0.00  0.00    +0.000 C 
ATOM     11  O   UNL     1       1.004   3.394  20.897  0.00  0.00    +0.000 OA
ENDROOT
BRANCH   2  12
ATOM     12  O   UNL     1       1.621   6.137  20.207  0.00  0.00    +0.000 OA
ATOM     13  H   UNL     1       1.712   5.697  21.061  0.00  0.00    +0.000 HD
ENDBRANCH   2  12
BRANCH   7  14
ATOM     14  C   UNL     1       4.799   6.424  16.436  0.00  0.00    +0.000 C 
ATOM     15  N   UNL     1       5.462   7.005  15.683  0.00  0.00    +0.000 NA
ENDBRANCH   7  14
BRANCH   1  16
ATOM     16  C   UNL     1       3.147   7.888  18.346  0.00  0.00    +0.000 C 
BRANCH  16  19
ATOM     17  C   UNL     1       1.098   9.604  19.889  0.00  0.00    +0.000 C 
ATOM     18  C   UNL     1       0.969   9.232  18.438  0.00  0.00    +0.000 C 
ATOM     19  C   UNL     1       1.879   8.473  17.785  0.00  0.00    +0.000 C 
BRANCH  18  20
ATOM     20  C   UNL     1      -0.273   9.792  17.758  0.00  0.00    +0.000 C 
BRANCH  20  21
ATOM     21  C   UNL     1      -1.233  10.585  18.652  0.00  0.00    +0.000 C 
BRANCH  21  22
ATOM     22  C   UNL     1      -1.271  12.045  18.274  0.00  0.00    +0.000 C 
ATOM     23  O   UNL     1      -0.972  12.975  19.005  0.00  0.00    +0.000 OA
BRANCH  22  24
ATOM     24  O   UNL     1      -1.679  12.230  16.996  0.00  0.00    +0.000 OA
ATOM     25  H   UNL     1      -2.641  12.376  16.906  0.00  0.00    +0.000 HD
ENDBRANCH  22  24
ENDBRANCH  21  22
ENDBRANCH  20  21
ENDBRANCH  18  20
ENDBRANCH  16  19
ENDBRANCH   1  16
TORSDOF 8
ENDMDL
MODEL 7
REMARK VINA RESULT:      -6.8      1.281      1.355
REMARK  Name = 
REMARK  10 active torsions:
REMARK  status: ('A' for Active; 'I' for Inactive)
REMARK    1  A    between atoms: C_1  and  C_2
REMARK    2  A    between atoms: C_2  and  C_19
REMARK    3  A    between atoms: C_3  and  C_4
REMARK    4  A    between atoms: C_4  and  C_5
REMARK    5  A    between atoms: C_6  and  O_7
REMARK    6  A    between atoms: C_10  and  C_11
REMARK    7  A    between atoms: C_12  and  C_13
REMARK    8  A    between atoms: C_19  and  C_20
REMARK    9  A    between atoms: C_20  and  C_21
REMARK   10  A    between atoms: C_21  and  O_23
REMARK                            x       y       z     vdW  Elec       q    Type
REMARK                         _______ _______ _______ _____ _____    ______ ____
ROOT
ATOM      1  C   UNL     1       4.307   5.636  18.635  0.00  0.00    +0.000 A 
ATOM      2  C   UNL     1       4.703   4.386  19.151  0.00  0.00    +0.000 A 
ATOM      3  C   UNL     1       3.912   3.770  20.111  0.00  0.00    +0.000 A 
ATOM      4  C   UNL     1       2.746   4.344  20.586  0.00  0.00    +0.000 A 
ATOM      5  C   UNL     1       2.299   5.571  20.102  0.00  0.00    +0.000 A 
ATOM      6  C   UNL     1       1.024   6.191  20.612  0.00  0.00    +0.000 C 
ATOM      7  C   UNL     1       3.082   6.213  19.113  0.00  0.00    +0.000 A 
ATOM      8  C   UNL     1       2.155   3.452  21.605  0.00  0.00    +0.000 C 
ATOM      9  O   UNL     1       3.025   2.310  21.609  0.00  0.00    +0.000 OA
ATOM     10  C   UNL     1       4.101   2.478  20.774  0.00  0.00    +0.000 C 
ATOM     11  O   UNL     1       5.000   1.678  20.636  0.00  0.00    +0.000 OA
ENDROOT
BRANCH   2  12
ATOM     12  O   UNL     1       5.824   3.722  18.758  0.00  0.00    +0.000 OA
ATOM     13  H   UNL     1       5.651   2.838  18.409  0.00  0.00    +0.000 HD
ENDBRANCH   2  12
BRANCH   7  14
ATOM     14  C   UNL     1       2.616   7.475  18.587  0.00  0.00    +0.000 C 
ATOM     15  N   UNL     1       2.245   8.481  18.147  0.00  0.00    +0.000 NA
ENDBRANCH   7  14
BRANCH   1  16
ATOM     16  C   UNL     1       5.137   6.378  17.604  0.00  0.00    +0.000 C 
BRANCH  16  19
ATOM     17  C   UNL     1       7.208   4.666  16.086  0.00  0.00    +0.000 C 
ATOM     18  C   UNL     1       5.870   5.069  15.529  0.00  0.00    +0.000 C 
ATOM     19  C   UNL     1       4.981   5.825  16.213  0.00  0.00    +0.000 C 
BRANCH  18  20
ATOM     20  C   UNL     1       5.595   4.542  14.127  0.00  0.00    +0.000 C 
BRANCH  20  21
ATOM     21  C   UNL     1       6.776   3.878  13.411  0.00  0.00    +0.000 C 
BRANCH  21  22
ATOM     22  C   UNL     1       7.400   4.799  12.392  0.00  0.00    +0.000 C 
ATOM     23  O   UNL     1       7.233   4.737  11.185  0.00  0.00    +0.000 OA
BRANCH  22  24
ATOM     24  O   UNL     1       8.188   5.738  12.968  0.00  0.00    +0.000 OA
ATOM     25  H   UNL     1       7.700   6.525  13.280  0.00  0.00    +0.000 HD
ENDBRANCH  22  24
ENDBRANCH  21  22
ENDBRANCH  20  21
ENDBRANCH  18  20
ENDBRANCH  16  19
ENDBRANCH   1  16
TORSDOF 8
ENDMDL
MODEL 8
REMARK VINA RESULT:      -6.8      2.995      4.670
REMARK  Name = 
REMARK  10 active torsions:
REMARK  status: ('A' for Active; 'I' for Inactive)
REMARK    1  A    between atoms: C_1  and  C_2
REMARK    2  A    between atoms: C_2  and  C_19
REMARK    3  A    between atoms: C_3  and  C_4
REMARK    4  A    between atoms: C_4  and  C_5
REMARK    5  A    between atoms: C_6  and  O_7
REMARK    6  A    between atoms: C_10  and  C_11
REMARK    7  A    between atoms: C_12  and  C_13
REMARK    8  A    between atoms: C_19  and  C_20
REMARK    9  A    between atoms: C_20  and  C_21
REMARK   10  A    between atoms: C_21  and  O_23
REMARK                            x       y       z     vdW  Elec       q    Type
REMARK                         _______ _______ _______ _____ _____    ______ ____
ROOT
ATOM      1  C   UNL     1       3.962   5.341  17.641  0.00  0.00    +0.000 A 
ATOM      2  C   UNL     1       4.049   3.946  17.819  0.00  0.00    +0.000 A 
ATOM      3  C   UNL     1       3.272   3.340  18.798  0.00  0.00    +0.000 A 
ATOM      4  C   UNL     1       2.417   4.060  19.611  0.00  0.00    +0.000 A 
ATOM      5  C   UNL     1       2.280   5.440  19.472  0.00  0.00    +0.000 A 
ATOM      6  C   UNL     1       1.341   6.223  20.352  0.00  0.00    +0.000 C 
ATOM      7  C   UNL     1       3.052   6.078  18.472  0.00  0.00    +0.000 A 
ATOM      8  C   UNL     1       1.758   3.131  20.553  0.00  0.00    +0.000 C 
ATOM      9  O   UNL     1       2.242   1.839  20.157  0.00  0.00    +0.000 OA
ATOM     10  C   UNL     1       3.175   1.923  19.154  0.00  0.00    +0.000 C 
ATOM     11  O   UNL     1       3.766   0.979  18.678  0.00  0.00    +0.000 OA
ENDROOT
BRANCH   2  12
ATOM     12  O   UNL     1       4.848   3.133  17.076  0.00  0.00    +0.000 OA
ATOM     13  H   UNL     1       4.409   2.330  16.770  0.00  0.00    +0.000 HD
ENDBRANCH   2  12
BRANCH   7  14
ATOM     14  C   UNL     1       2.902   7.505  18.302  0.00  0.00    +0.000 C 
ATOM     15  N   UNL     1       2.786   8.648  18.147  0.00  0.00    +0.000 NA
ENDBRANCH   7  14
BRANCH   1  16
ATOM     16  C   UNL     1       4.800   6.072  16.609  0.00  0.00    +0.000 C 
BRANCH  16  19
ATOM     17  C   UNL     1       7.496   5.122  17.771  0.00  0.00    +0.000 C 
ATOM     18  C   UNL     1       7.050   6.558  17.731  0.00  0.00    +0.000 C 
ATOM     19  C   UNL     1       5.860   6.948  17.221  0.00  0.00    +0.000 C 
BRANCH  18  20
ATOM     20  C   UNL     1       8.060   7.541  18.307  0.00  0.00    +0.000 C 
BRANCH  20  21
ATOM     21  C   UNL     1       8.209   8.871  17.560  0.00  0.00    +0.000 C 
BRANCH  21  22
ATOM     22  C   UNL     1       8.708   9.968  18.468  0.00  0.00    +0.000 C 
ATOM     23  O   UNL     1       9.197   9.806  19.575  0.00  0.00    +0.000 OA
BRANCH  22  24
ATOM     24  O   UNL     1       8.559  11.195  17.915  0.00  0.00    +0.000 OA
ATOM     25  H   UNL     1       8.999  11.910  18.415  0.00  0.00    +0.000 HD
ENDBRANCH  22  24
ENDBRANCH  21  22
ENDBRANCH  20  21
ENDBRANCH  18  20
ENDBRANCH  16  19
ENDBRANCH   1  16
TORSDOF 8
ENDMDL
MODEL 9
REMARK VINA RESULT:      -6.7      4.234      6.573
REMARK  Name = 
REMARK  10 active torsions:
REMARK  status: ('A' for Active; 'I' for Inactive)
REMARK    1  A    between atoms: C_1  and  C_2
REMARK    2  A    between atoms: C_2  and  C_19
REMARK    3  A    between atoms: C_3  and  C_4
REMARK    4  A    between atoms: C_4  and  C_5
REMARK    5  A    between atoms: C_6  and  O_7
REMARK    6  A    between atoms: C_10  and  C_11
REMARK    7  A    between atoms: C_12  and  C_13
REMARK    8  A    between atoms: C_19  and  C_20
REMARK    9  A    between atoms: C_20  and  C_21
REMARK   10  A    between atoms: C_21  and  O_23
REMARK                            x       y       z     vdW  Elec       q    Type
REMARK                         _______ _______ _______ _____ _____    ______ ____
ROOT
ATOM      1  C   UNL     1       3.389   6.660  18.201  0.00  0.00    +0.000 A 
ATOM      2  C   UNL     1       2.859   6.038  19.350  0.00  0.00    +0.000 A 
ATOM      3  C   UNL     1       3.082   4.683  19.548  0.00  0.00    +0.000 A 
ATOM      4  C   UNL     1       3.805   3.915  18.653  0.00  0.00    +0.000 A 
ATOM      5  C   UNL     1       4.364   4.478  17.509  0.00  0.00    +0.000 A 
ATOM      6  C   UNL     1       5.160   3.644  16.539  0.00  0.00    +0.000 C 
ATOM      7  C   UNL     1       4.162   5.862  17.291  0.00  0.00    +0.000 A 
ATOM      8  C   UNL     1       3.842   2.520  19.141  0.00  0.00    +0.000 C 
ATOM      9  O   UNL     1       3.160   2.579  20.404  0.00  0.00    +0.000 OA
ATOM     10  C   UNL     1       2.655   3.829  20.660  0.00  0.00    +0.000 C 
ATOM     11  O   UNL     1       2.002   4.124  21.636  0.00  0.00    +0.000 OA
ENDROOT
BRANCH   2  12
ATOM     12  O   UNL     1       2.139   6.690  20.303  0.00  0.00    +0.000 OA
ATOM     13  H   UNL     1       2.667   6.992  21.052  0.00  0.00    +0.000 HD
ENDBRANCH   2  12
BRANCH   7  14
ATOM     14  C   UNL     1       4.756   6.462  16.119  0.00  0.00    +0.000 C 
ATOM     15  N   UNL     1       5.232   6.961  15.187  0.00  0.00    +0.000 NA
ENDBRANCH   7  14
BRANCH   1  16
ATOM     16  C   UNL     1       3.163   8.131  17.908  0.00  0.00    +0.000 C 
BRANCH  16  19
ATOM     17  C   UNL     1       2.157  11.034  18.195  0.00  0.00    +0.000 C 
ATOM     18  C   UNL     1       1.267   9.822  18.225  0.00  0.00    +0.000 C 
ATOM     19  C   UNL     1       1.733   8.559  18.102  0.00  0.00    +0.000 C 
BRANCH  18  20
ATOM     20  C   UNL     1      -0.213  10.139  18.394  0.00  0.00    +0.000 C 
BRANCH  20  21
ATOM     21  C   UNL     1      -1.139   9.662  17.270  0.00  0.00    +0.000 C 
BRANCH  21  22
ATOM     22  C   UNL     1      -2.361  10.539  17.143  0.00  0.00    +0.000 C 
ATOM     23  O   UNL     1      -3.462  10.292  17.606  0.00  0.00    +0.000 OA
BRANCH  22  24
ATOM     24  O   UNL     1      -2.105  11.670  16.444  0.00  0.00    +0.000 OA
ATOM     25  H   UNL     1      -2.558  12.461  16.793  0.00  0.00    +0.000 HD
ENDBRANCH  22  24
ENDBRANCH  21  22
ENDBRANCH  20  21
ENDBRANCH  18  20
ENDBRANCH  16  19
ENDBRANCH   1  16
TORSDOF 8
ENDMDL
