MODEL 1
REMARK VINA RESULT:      -8.4      0.000      0.000
REMARK  Name = 
REMARK  3 active torsions:
REMARK  status: ('A' for Active; 'I' for Inactive)
REMARK    1  A    between atoms: C_2  and  C_5
REMARK    2  A    between atoms: C_8  and  C_9
REMARK    3  A    between atoms: C_22  and  C_23
REMARK                            x       y       z     vdW  Elec       q    Type
REMARK                         _______ _______ _______ _____ _____    ______ ____
ROOT
ATOM      1  C   UNL     1      -2.168  14.655  21.644  0.00  0.00    +0.000 A 
ATOM      2  C   UNL     1      -2.647  15.604  22.673  0.00  0.00    +0.000 A 
ATOM      3  C   UNL     1      -4.007  16.168  22.844  0.00  0.00    +0.000 A 
ATOM      4  C   UNL     1      -4.318  16.984  23.973  0.00  0.00    +0.000 A 
ATOM      5  C   UNL     1      -3.404  17.084  25.015  0.00  0.00    +0.000 A 
ATOM      6  C   UNL     1      -2.167  16.432  24.919  0.00  0.00    +0.000 A 
ATOM      7  C   UNL     1      -1.756  15.756  23.755  0.00  0.00    +0.000 A 
ATOM      8  N   UNL     1      -0.534  15.118  23.721  0.00  0.00    +0.000 NA
ATOM      9  C   UNL     1      -0.120  14.207  22.652  0.00  0.00    +0.000 A 
ATOM     10  C   UNL     1      -0.796  12.967  22.616  0.00  0.00    +0.000 A 
ATOM     11  C   UNL     1      -1.211  12.501  20.697  0.00  0.00    +0.000 A 
ATOM     12  C   UNL     1      -2.285  12.567  19.364  0.00  0.00    +0.000 A 
ATOM     13  C   UNL     1      -1.954  12.004  18.220  0.00  0.00    +0.000 A 
ATOM     14  C   UNL     1      -1.654  10.720  18.389  0.00  0.00    +0.000 A 
ATOM     15  C   UNL     1      -0.325  10.909  19.230  0.00  0.00    +0.000 A 
ATOM     16  C   UNL     1      -0.125  12.203  20.094  0.00  0.00    +0.000 A 
ATOM     17  C   UNL     1       0.622  13.233  20.768  0.00  0.00    +0.000 A 
ATOM     18  C   UNL     1      -0.304  14.471  21.552  0.00  0.00    +0.000 A 
ENDROOT
BRANCH   1  22
ATOM     19  C   UNL     1      -5.886  12.894  23.175  0.00  0.00    +0.000 A 
ATOM     20  C   UNL     1      -4.681  12.643  23.902  0.00  0.00    +0.000 A 
ATOM     21  C   UNL     1      -3.329  12.869  23.320  0.00  0.00    +0.000 A 
ATOM     22  C   UNL     1      -3.226  13.194  22.010  0.00  0.00    +0.000 A 
ATOM     23  C   UNL     1      -4.581  12.648  21.296  0.00  0.00    +0.000 A 
ATOM     24  C   UNL     1      -5.834  12.937  21.837  0.00  0.00    +0.000 A 
BRANCH  19  26
ATOM     25  F   UNL     1      -7.619  11.648  24.110  0.00  0.00    +0.000 F 
ATOM     26  C   UNL     1      -7.229  12.899  23.805  0.00  0.00    +0.000 C 
ATOM     27  F   UNL     1      -7.908  13.116  22.697  0.00  0.00    +0.000 F 
ATOM     28  F   UNL     1      -7.590  13.812  24.837  0.00  0.00    +0.000 F 
ENDBRANCH  19  26
ENDBRANCH   1  22
BRANCH  14  29
ATOM     29  C   UNL     1      -2.845  10.004  17.337  0.00  0.00    +0.000 C 
ATOM     30  F   UNL     1      -2.193   9.399  16.224  0.00  0.00    +0.000 F 
ATOM     31  F   UNL     1      -3.498   8.897  17.858  0.00  0.00    +0.000 F 
ATOM     32  F   UNL     1      -3.890  10.678  16.701  0.00  0.00    +0.000 F 
ENDBRANCH  14  29
TORSDOF 3
ENDMDL
MODEL 2
REMARK VINA RESULT:      -8.3      7.215     12.011
REMARK  Name = 
REMARK  3 active torsions:
REMARK  status: ('A' for Active; 'I' for Inactive)
REMARK    1  A    between atoms: C_2  and  C_5
REMARK    2  A    between atoms: C_8  and  C_9
REMARK    3  A    between atoms: C_22  and  C_23
REMARK                            x       y       z     vdW  Elec       q    Type
REMARK                         _______ _______ _______ _____ _____    ______ ____
ROOT
ATOM      1  C   UNL     1       1.824   5.518  18.761  0.00  0.00    +0.000 A 
ATOM      2  C   UNL     1       2.244   4.155  18.365  0.00  0.00    +0.000 A 
ATOM      3  C   UNL     1       2.810   3.705  17.071  0.00  0.00    +0.000 A 
ATOM      4  C   UNL     1       3.271   2.364  16.907  0.00  0.00    +0.000 A 
ATOM      5  C   UNL     1       3.377   1.538  18.020  0.00  0.00    +0.000 A 
ATOM      6  C   UNL     1       2.974   2.011  19.277  0.00  0.00    +0.000 A 
ATOM      7  C   UNL     1       2.360   3.265  19.452  0.00  0.00    +0.000 A 
ATOM      8  N   UNL     1       1.999   3.688  20.714  0.00  0.00    +0.000 NA
ATOM      9  C   UNL     1       1.568   5.052  21.025  0.00  0.00    +0.000 A 
ATOM     10  C   UNL     1       2.579   6.036  20.959  0.00  0.00    +0.000 A 
ATOM     11  C   UNL     1       1.830   7.690  20.078  0.00  0.00    +0.000 A 
ATOM     12  C   UNL     1       1.540   8.596  18.653  0.00  0.00    +0.000 A 
ATOM     13  C   UNL     1       0.923   9.758  18.724  0.00  0.00    +0.000 A 
ATOM     14  C   UNL     1       1.547  10.579  19.564  0.00  0.00    +0.000 A 
ATOM     15  C   UNL     1       1.246   9.797  20.908  0.00  0.00    +0.000 A 
ATOM     16  C   UNL     1       1.000   8.247  20.872  0.00  0.00    +0.000 A 
ATOM     17  C   UNL     1       0.469   6.989  21.324  0.00  0.00    +0.000 A 
ATOM     18  C   UNL     1       0.828   5.602  20.347  0.00  0.00    +0.000 A 
ENDROOT
BRANCH   1  22
ATOM     19  C   UNL     1       5.890   5.901  17.151  0.00  0.00    +0.000 A 
ATOM     20  C   UNL     1       5.748   5.656  18.552  0.00  0.00    +0.000 A 
ATOM     21  C   UNL     1       4.464   5.856  19.277  0.00  0.00    +0.000 A 
ATOM     22  C   UNL     1       3.422   6.420  18.622  0.00  0.00    +0.000 A 
ATOM     23  C   UNL     1       4.064   7.278  17.398  0.00  0.00    +0.000 A 
ATOM     24  C   UNL     1       5.004   6.702  16.544  0.00  0.00    +0.000 A 
BRANCH  19  26
ATOM     25  F   UNL     1       7.767   4.527  17.015  0.00  0.00    +0.000 F 
ATOM     26  C   UNL     1       7.083   5.490  16.371  0.00  0.00    +0.000 C 
ATOM     27  F   UNL     1       7.811   6.551  16.650  0.00  0.00    +0.000 F 
ATOM     28  F   UNL     1       7.034   5.232  14.970  0.00  0.00    +0.000 F 
ENDBRANCH  19  26
ENDBRANCH   1  22
BRANCH  14  29
ATOM     29  C   UNL     1       1.916  11.885  18.471  0.00  0.00    +0.000 C 
ATOM     30  F   UNL     1       2.748  12.836  19.131  0.00  0.00    +0.000 F 
ATOM     31  F   UNL     1       2.742  11.547  17.409  0.00  0.00    +0.000 F 
ATOM     32  F   UNL     1       0.987  12.726  17.853  0.00  0.00    +0.000 F 
ENDBRANCH  14  29
TORSDOF 3
ENDMDL
MODEL 3
REMARK VINA RESULT:      -7.7      1.201      1.515
REMARK  Name = 
REMARK  3 active torsions:
REMARK  status: ('A' for Active; 'I' for Inactive)
REMARK    1  A    between atoms: C_2  and  C_5
REMARK    2  A    between atoms: C_8  and  C_9
REMARK    3  A    between atoms: C_22  and  C_23
REMARK                            x       y       z     vdW  Elec       q    Type
REMARK                         _______ _______ _______ _____ _____    ______ ____
ROOT
ATOM      1  C   UNL     1      -1.656  13.922  21.104  0.00  0.00    +0.000 A 
ATOM      2  C   UNL     1      -1.936  14.879  22.198  0.00  0.00    +0.000 A 
ATOM      3  C   UNL     1      -2.979  15.930  22.258  0.00  0.00    +0.000 A 
ATOM      4  C   UNL     1      -3.179  16.687  23.451  0.00  0.00    +0.000 A 
ATOM      5  C   UNL     1      -2.533  16.303  24.620  0.00  0.00    +0.000 A 
ATOM      6  C   UNL     1      -1.649  15.215  24.599  0.00  0.00    +0.000 A 
ATOM      7  C   UNL     1      -1.298  14.548  23.410  0.00  0.00    +0.000 A 
ATOM      8  N   UNL     1      -0.436  13.473  23.450  0.00  0.00    +0.000 NA
ATOM      9  C   UNL     1      -0.192  12.581  22.315  0.00  0.00    +0.000 A 
ATOM     10  C   UNL     1      -1.268  11.736  21.966  0.00  0.00    +0.000 A 
ATOM     11  C   UNL     1      -1.425  11.669  19.955  0.00  0.00    +0.000 A 
ATOM     12  C   UNL     1      -2.092  12.298  18.507  0.00  0.00    +0.000 A 
ATOM     13  C   UNL     1      -1.774  11.764  17.347  0.00  0.00    +0.000 A 
ATOM     14  C   UNL     1      -2.031  10.459  17.335  0.00  0.00    +0.000 A 
ATOM     15  C   UNL     1      -0.936  10.005  18.385  0.00  0.00    +0.000 A 
ATOM     16  C   UNL     1      -0.437  11.014  19.480  0.00  0.00    +0.000 A 
ATOM     17  C   UNL     1       0.491  11.577  20.424  0.00  0.00    +0.000 A 
ATOM     18  C   UNL     1      -0.030  13.003  21.262  0.00  0.00    +0.000 A 
ENDROOT
BRANCH   1  22
ATOM     19  C   UNL     1      -5.972  13.649  21.858  0.00  0.00    +0.000 A 
ATOM     20  C   UNL     1      -5.106  12.816  22.633  0.00  0.00    +0.000 A 
ATOM     21  C   UNL     1      -3.694  12.547  22.248  0.00  0.00    +0.000 A 
ATOM     22  C   UNL     1      -3.244  12.993  21.051  0.00  0.00    +0.000 A 
ATOM     23  C   UNL     1      -4.557  13.171  20.108  0.00  0.00    +0.000 A 
ATOM     24  C   UNL     1      -5.674  13.867  20.571  0.00  0.00    +0.000 A 
BRANCH  19  26
ATOM     25  F   UNL     1      -7.916  13.150  23.042  0.00  0.00    +0.000 F 
ATOM     26  C   UNL     1      -7.296  14.115  22.339  0.00  0.00    +0.000 C 
ATOM     27  F   UNL     1      -7.913  14.022  21.178  0.00  0.00    +0.000 F 
ATOM     28  F   UNL     1      -7.489  15.391  22.943  0.00  0.00    +0.000 F 
ENDBRANCH  19  26
ENDBRANCH   1  22
BRANCH  14  29
ATOM     29  C   UNL     1      -3.161  10.398  16.010  0.00  0.00    +0.000 C 
ATOM     30  F   UNL     1      -3.311   9.049  15.575  0.00  0.00    +0.000 F 
ATOM     31  F   UNL     1      -4.476  10.685  16.345  0.00  0.00    +0.000 F 
ATOM     32  F   UNL     1      -3.028  11.060  14.787  0.00  0.00    +0.000 F 
ENDBRANCH  14  29
TORSDOF 3
ENDMDL
MODEL 4
REMARK VINA RESULT:      -7.6      2.773      4.534
REMARK  Name = 
REMARK  3 active torsions:
REMARK  status: ('A' for Active; 'I' for Inactive)
REMARK    1  A    between atoms: C_2  and  C_5
REMARK    2  A    between atoms: C_8  and  C_9
REMARK    3  A    between atoms: C_22  and  C_23
REMARK                            x       y       z     vdW  Elec       q    Type
REMARK                         _______ _______ _______ _____ _____    ______ ____
ROOT
ATOM      1  C   UNL     1      -0.579  13.026  19.323  0.00  0.00    +0.000 A 
ATOM      2  C   UNL     1       0.464  13.854  19.970  0.00  0.00    +0.000 A 
ATOM      3  C   UNL     1       0.308  15.156  20.660  0.00  0.00    +0.000 A 
ATOM      4  C   UNL     1       1.413  15.757  21.334  0.00  0.00    +0.000 A 
ATOM      5  C   UNL     1       2.582  15.027  21.515  0.00  0.00    +0.000 A 
ATOM      6  C   UNL     1       2.682  13.733  20.984  0.00  0.00    +0.000 A 
ATOM      7  C   UNL     1       1.679  13.169  20.172  0.00  0.00    +0.000 A 
ATOM      8  N   UNL     1       1.821  11.886  19.690  0.00  0.00    +0.000 NA
ATOM      9  C   UNL     1       0.747  11.136  19.036  0.00  0.00    +0.000 A 
ATOM     10  C   UNL     1      -0.307  10.726  19.882  0.00  0.00    +0.000 A 
ATOM     11  C   UNL     1      -2.063  11.003  18.925  0.00  0.00    +0.000 A 
ATOM     12  C   UNL     1      -3.401  12.011  18.564  0.00  0.00    +0.000 A 
ATOM     13  C   UNL     1      -4.358  11.577  17.770  0.00  0.00    +0.000 A 
ATOM     14  C   UNL     1      -4.867  10.433  18.216  0.00  0.00    +0.000 A 
ATOM     15  C   UNL     1      -3.599   9.515  17.978  0.00  0.00    +0.000 A 
ATOM     16  C   UNL     1      -2.163  10.150  17.981  0.00  0.00    +0.000 A 
ATOM     17  C   UNL     1      -0.771  10.255  17.633  0.00  0.00    +0.000 A 
ATOM     18  C   UNL     1       0.078  11.634  18.251  0.00  0.00    +0.000 A 
ENDROOT
BRANCH   1  22
ATOM     19  C   UNL     1      -2.119  13.990  23.318  0.00  0.00    +0.000 A 
ATOM     20  C   UNL     1      -1.306  12.822  23.182  0.00  0.00    +0.000 A 
ATOM     21  C   UNL     1      -1.021  12.192  21.864  0.00  0.00    +0.000 A 
ATOM     22  C   UNL     1      -1.661  12.653  20.764  0.00  0.00    +0.000 A 
ATOM     23  C   UNL     1      -3.021  13.370  21.295  0.00  0.00    +0.000 A 
ATOM     24  C   UNL     1      -2.974  14.298  22.335  0.00  0.00    +0.000 A 
BRANCH  19  26
ATOM     25  F   UNL     1      -3.274  14.346  25.311  0.00  0.00    +0.000 F 
ATOM     26  C   UNL     1      -2.225  14.764  24.580  0.00  0.00    +0.000 C 
ATOM     27  F   UNL     1      -2.712  15.861  24.037  0.00  0.00    +0.000 F 
ATOM     28  F   UNL     1      -1.099  15.036  25.411  0.00  0.00    +0.000 F 
ENDBRANCH  19  26
ENDBRANCH   1  22
BRANCH  14  29
ATOM     29  C   UNL     1      -6.527  10.918  18.428  0.00  0.00    +0.000 C 
ATOM     30  F   UNL     1      -7.353   9.760  18.515  0.00  0.00    +0.000 F 
ATOM     31  F   UNL     1      -6.817  11.506  19.650  0.00  0.00    +0.000 F 
ATOM     32  F   UNL     1      -7.270  11.710  17.548  0.00  0.00    +0.000 F 
ENDBRANCH  14  29
TORSDOF 3
ENDMDL
MODEL 5
REMARK VINA RESULT:      -7.6      0.862      1.225
REMARK  Name = 
REMARK  3 active torsions:
REMARK  status: ('A' for Active; 'I' for Inactive)
REMARK    1  A    between atoms: C_2  and  C_5
REMARK    2  A    between atoms: C_8  and  C_9
REMARK    3  A    between atoms: C_22  and  C_23
REMARK                            x       y       z     vdW  Elec       q    Type
REMARK                         _______ _______ _______ _____ _____    ______ ____
ROOT
ATOM      1  C   UNL     1      -2.371  15.189  22.055  0.00  0.00    +0.000 A 
ATOM      2  C   UNL     1      -3.160  16.056  22.959  0.00  0.00    +0.000 A 
ATOM      3  C   UNL     1      -4.597  16.410  22.873  0.00  0.00    +0.000 A 
ATOM      4  C   UNL     1      -5.220  17.170  23.908  0.00  0.00    +0.000 A 
ATOM      5  C   UNL     1      -4.531  17.405  25.092  0.00  0.00    +0.000 A 
ATOM      6  C   UNL     1      -3.214  16.945  25.232  0.00  0.00    +0.000 A 
ATOM      7  C   UNL     1      -2.508  16.339  24.176  0.00  0.00    +0.000 A 
ATOM      8  N   UNL     1      -1.219  15.890  24.374  0.00  0.00    +0.000 NA
ATOM      9  C   UNL     1      -0.492  15.053  23.419  0.00  0.00    +0.000 A 
ATOM     10  C   UNL     1      -0.960  13.726  23.297  0.00  0.00    +0.000 A 
ATOM     11  C   UNL     1      -0.953  13.203  21.348  0.00  0.00    +0.000 A 
ATOM     12  C   UNL     1      -1.772  13.109  19.845  0.00  0.00    +0.000 A 
ATOM     13  C   UNL     1      -1.163  12.603  18.792  0.00  0.00    +0.000 A 
ATOM     14  C   UNL     1      -0.712  11.377  19.045  0.00  0.00    +0.000 A 
ATOM     15  C   UNL     1       0.403  11.763  20.101  0.00  0.00    +0.000 A 
ATOM     16  C   UNL     1       0.254  13.072  20.954  0.00  0.00    +0.000 A 
ATOM     17  C   UNL     1       0.709  14.201  21.721  0.00  0.00    +0.000 A 
ATOM     18  C   UNL     1      -0.514  15.286  22.298  0.00  0.00    +0.000 A 
ENDROOT
BRANCH   1  22
ATOM     19  C   UNL     1      -5.917  12.881  23.222  0.00  0.00    +0.000 A 
ATOM     20  C   UNL     1      -4.739  12.740  24.019  0.00  0.00    +0.000 A 
ATOM     21  C   UNL     1      -3.394  13.171  23.548  0.00  0.00    +0.000 A 
ATOM     22  C   UNL     1      -3.250  13.587  22.267  0.00  0.00    +0.000 A 
ATOM     23  C   UNL     1      -4.474  12.918  21.431  0.00  0.00    +0.000 A 
ATOM     24  C   UNL     1      -5.786  13.012  21.896  0.00  0.00    +0.000 A 
BRANCH  19  26
ATOM     25  F   UNL     1      -7.528  11.371  23.967  0.00  0.00    +0.000 F 
ATOM     26  C   UNL     1      -7.287  12.677  23.754  0.00  0.00    +0.000 C 
ATOM     27  F   UNL     1      -7.916  12.870  22.613  0.00  0.00    +0.000 F 
ATOM     28  F   UNL     1      -7.831  13.475  24.802  0.00  0.00    +0.000 F 
ENDBRANCH  19  26
ENDBRANCH   1  22
BRANCH  14  29
ATOM     29  C   UNL     1      -1.578  10.492  17.820  0.00  0.00    +0.000 C 
ATOM     30  F   UNL     1      -2.718   9.866  18.401  0.00  0.00    +0.000 F 
ATOM     31  F   UNL     1      -2.203  11.275  16.860  0.00  0.00    +0.000 F 
ATOM     32  F   UNL     1      -1.066   9.448  17.045  0.00  0.00    +0.000 F 
ENDBRANCH  14  29
TORSDOF 3
ENDMDL
MODEL 6
REMARK VINA RESULT:      -7.6      0.641      1.130
REMARK  Name = 
REMARK  3 active torsions:
REMARK  status: ('A' for Active; 'I' for Inactive)
REMARK    1  A    between atoms: C_2  and  C_5
REMARK    2  A    between atoms: C_8  and  C_9
REMARK    3  A    between atoms: C_22  and  C_23
REMARK                            x       y       z     vdW  Elec       q    Type
REMARK                         _______ _______ _______ _____ _____    ______ ____
ROOT
ATOM      1  C   UNL     1      -1.796  14.621  21.227  0.00  0.00    +0.000 A 
ATOM      2  C   UNL     1      -2.217  15.606  22.249  0.00  0.00    +0.000 A 
ATOM      3  C   UNL     1      -3.559  16.199  22.457  0.00  0.00    +0.000 A 
ATOM      4  C   UNL     1      -3.811  17.050  23.574  0.00  0.00    +0.000 A 
ATOM      5  C   UNL     1      -2.855  17.161  24.578  0.00  0.00    +0.000 A 
ATOM      6  C   UNL     1      -1.635  16.483  24.451  0.00  0.00    +0.000 A 
ATOM      7  C   UNL     1      -1.282  15.770  23.290  0.00  0.00    +0.000 A 
ATOM      8  N   UNL     1      -0.074  15.108  23.226  0.00  0.00    +0.000 NA
ATOM      9  C   UNL     1       0.282  14.162  22.167  0.00  0.00    +0.000 A 
ATOM     10  C   UNL     1      -0.417  12.934  22.191  0.00  0.00    +0.000 A 
ATOM     11  C   UNL     1      -0.914  12.425  20.302  0.00  0.00    +0.000 A 
ATOM     12  C   UNL     1      -2.039  12.477  19.010  0.00  0.00    +0.000 A 
ATOM     13  C   UNL     1      -1.763  11.878  17.870  0.00  0.00    +0.000 A 
ATOM     14  C   UNL     1      -1.480  10.593  18.062  0.00  0.00    +0.000 A 
ATOM     15  C   UNL     1      -0.116  10.779  18.845  0.00  0.00    +0.000 A 
ATOM     16  C   UNL     1       0.142  12.092  19.667  0.00  0.00    +0.000 A 
ATOM     17  C   UNL     1       0.932  13.124  20.283  0.00  0.00    +0.000 A 
ATOM     18  C   UNL     1       0.060  14.400  21.069  0.00  0.00    +0.000 A 
ENDROOT
BRANCH   1  22
ATOM     19  C   UNL     1      -5.417  12.961  23.070  0.00  0.00    +0.000 A 
ATOM     20  C   UNL     1      -4.161  12.662  23.683  0.00  0.00    +0.000 A 
ATOM     21  C   UNL     1      -2.860  12.852  22.984  0.00  0.00    +0.000 A 
ATOM     22  C   UNL     1      -2.864  13.191  21.673  0.00  0.00    +0.000 A 
ATOM     23  C   UNL     1      -4.296  12.698  21.080  0.00  0.00    +0.000 A 
ATOM     24  C   UNL     1      -5.484  13.019  21.734  0.00  0.00    +0.000 A 
BRANCH  19  26
ATOM     25  F   UNL     1      -6.934  14.237  24.295  0.00  0.00    +0.000 F 
ATOM     26  C   UNL     1      -6.697  13.001  23.820  0.00  0.00    +0.000 C 
ATOM     27  F   UNL     1      -6.251  12.394  24.901  0.00  0.00    +0.000 F 
ATOM     28  F   UNL     1      -7.894  12.404  23.329  0.00  0.00    +0.000 F 
ENDBRANCH  19  26
ENDBRANCH   1  22
BRANCH  14  29
ATOM     29  C   UNL     1      -2.723   9.872  17.077  0.00  0.00    +0.000 C 
ATOM     30  F   UNL     1      -3.555  10.895  16.537  0.00  0.00    +0.000 F 
ATOM     31  F   UNL     1      -2.275   9.288  15.901  0.00  0.00    +0.000 F 
ATOM     32  F   UNL     1      -3.679   8.949  17.508  0.00  0.00    +0.000 F 
ENDBRANCH  14  29
TORSDOF 3
ENDMDL
MODEL 7
REMARK VINA RESULT:      -7.6      2.115      3.023
REMARK  Name = 
REMARK  3 active torsions:
REMARK  status: ('A' for Active; 'I' for Inactive)
REMARK    1  A    between atoms: C_2  and  C_5
REMARK    2  A    between atoms: C_8  and  C_9
REMARK    3  A    between atoms: C_22  and  C_23
REMARK                            x       y       z     vdW  Elec       q    Type
REMARK                         _______ _______ _______ _____ _____    ______ ____
ROOT
ATOM      1  C   UNL     1       0.132  14.349  20.201  0.00  0.00    +0.000 A 
ATOM      2  C   UNL     1       0.344  15.482  21.130  0.00  0.00    +0.000 A 
ATOM      3  C   UNL     1      -0.648  16.466  21.623  0.00  0.00    +0.000 A 
ATOM      4  C   UNL     1      -0.287  17.427  22.615  0.00  0.00    +0.000 A 
ATOM      5  C   UNL     1       0.936  17.310  23.265  0.00  0.00    +0.000 A 
ATOM      6  C   UNL     1       1.823  16.288  22.898  0.00  0.00    +0.000 A 
ATOM      7  C   UNL     1       1.575  15.425  21.814  0.00  0.00    +0.000 A 
ATOM      8  N   UNL     1       2.474  14.425  21.507  0.00  0.00    +0.000 NA
ATOM      9  C   UNL     1       2.201  13.347  20.555  0.00  0.00    +0.000 A 
ATOM     10  C   UNL     1       1.249  12.393  20.976  0.00  0.00    +0.000 A 
ATOM     11  C   UNL     1       0.047  11.933  19.421  0.00  0.00    +0.000 A 
ATOM     12  C   UNL     1      -1.380  12.236  18.523  0.00  0.00    +0.000 A 
ATOM     13  C   UNL     1      -1.660  11.507  17.462  0.00  0.00    +0.000 A 
ATOM     14  C   UNL     1      -1.682  10.212  17.766  0.00  0.00    +0.000 A 
ATOM     15  C   UNL     1      -0.140  10.029  18.077  0.00  0.00    +0.000 A 
ATOM     16  C   UNL     1       0.710  11.254  18.567  0.00  0.00    +0.000 A 
ATOM     17  C   UNL     1       1.902  12.038  18.753  0.00  0.00    +0.000 A 
ATOM     18  C   UNL     1       1.705  13.567  19.546  0.00  0.00    +0.000 A 
ENDROOT
BRANCH   1  22
ATOM     19  C   UNL     1      -2.932  13.974  23.321  0.00  0.00    +0.000 A 
ATOM     20  C   UNL     1      -1.681  13.317  23.534  0.00  0.00    +0.000 A 
ATOM     21  C   UNL     1      -0.708  13.065  22.435  0.00  0.00    +0.000 A 
ATOM     22  C   UNL     1      -1.072  13.343  21.161  0.00  0.00    +0.000 A 
ATOM     23  C   UNL     1      -2.698  13.305  21.133  0.00  0.00    +0.000 A 
ATOM     24  C   UNL     1      -3.441  14.005  22.083  0.00  0.00    +0.000 A 
BRANCH  19  26
ATOM     25  F   UNL     1      -3.102  15.167  25.315  0.00  0.00    +0.000 F 
ATOM     26  C   UNL     1      -3.804  14.439  24.428  0.00  0.00    +0.000 C 
ATOM     27  F   UNL     1      -3.878  13.281  25.051  0.00  0.00    +0.000 F 
ATOM     28  F   UNL     1      -5.091  15.007  24.206  0.00  0.00    +0.000 F 
ENDBRANCH  19  26
ENDBRANCH   1  22
BRANCH  14  29
ATOM     29  C   UNL     1      -3.322   9.837  17.314  0.00  0.00    +0.000 C 
ATOM     30  F   UNL     1      -3.342   9.315  15.988  0.00  0.00    +0.000 F 
ATOM     31  F   UNL     1      -3.890   8.771  17.995  0.00  0.00    +0.000 F 
ATOM     32  F   UNL     1      -4.387  10.741  17.261  0.00  0.00    +0.000 F 
ENDBRANCH  14  29
TORSDOF 3
ENDMDL
MODEL 8
REMARK VINA RESULT:      -7.4      3.650      6.495
REMARK  Name = 
REMARK  3 active torsions:
REMARK  status: ('A' for Active; 'I' for Inactive)
REMARK    1  A    between atoms: C_2  and  C_5
REMARK    2  A    between atoms: C_8  and  C_9
REMARK    3  A    between atoms: C_22  and  C_23
REMARK                            x       y       z     vdW  Elec       q    Type
REMARK                         _______ _______ _______ _____ _____    ______ ____
ROOT
ATOM      1  C   UNL     1      -0.007  13.976  21.542  0.00  0.00    +0.000 A 
ATOM      2  C   UNL     1       0.997  14.868  22.164  0.00  0.00    +0.000 A 
ATOM      3  C   UNL     1       2.455  14.935  21.906  0.00  0.00    +0.000 A 
ATOM      4  C   UNL     1       3.254  15.947  22.518  0.00  0.00    +0.000 A 
ATOM      5  C   UNL     1       2.635  16.991  23.194  0.00  0.00    +0.000 A 
ATOM      6  C   UNL     1       1.238  17.006  23.318  0.00  0.00    +0.000 A 
ATOM      7  C   UNL     1       0.428  15.944  22.875  0.00  0.00    +0.000 A 
ATOM      8  N   UNL     1      -0.943  16.018  23.007  0.00  0.00    +0.000 NA
ATOM      9  C   UNL     1      -1.875  15.081  22.379  0.00  0.00    +0.000 A 
ATOM     10  C   UNL     1      -1.981  15.182  20.974  0.00  0.00    +0.000 A 
ATOM     11  C   UNL     1      -2.054  13.325  20.186  0.00  0.00    +0.000 A 
ATOM     12  C   UNL     1      -1.235  11.969  19.534  0.00  0.00    +0.000 A 
ATOM     13  C   UNL     1      -1.916  10.911  19.143  0.00  0.00    +0.000 A 
ATOM     14  C   UNL     1      -2.846  11.245  18.252  0.00  0.00    +0.000 A 
ATOM     15  C   UNL     1      -3.783  12.088  19.211  0.00  0.00    +0.000 A 
ATOM     16  C   UNL     1      -3.177  12.791  20.477  0.00  0.00    +0.000 A 
ATOM     17  C   UNL     1      -3.187  13.350  21.803  0.00  0.00    +0.000 A 
ATOM     18  C   UNL     1      -1.675  13.953  22.399  0.00  0.00    +0.000 A 
ENDROOT
BRANCH   1  22
ATOM     19  C   UNL     1       2.215  15.818  18.235  0.00  0.00    +0.000 A 
ATOM     20  C   UNL     1       1.049  16.494  18.712  0.00  0.00    +0.000 A 
ATOM     21  C   UNL     1       0.025  15.826  19.561  0.00  0.00    +0.000 A 
ATOM     22  C   UNL     1       0.123  14.494  19.781  0.00  0.00    +0.000 A 
ATOM     23  C   UNL     1       0.998  13.892  18.550  0.00  0.00    +0.000 A 
ATOM     24  C   UNL     1       2.209  14.480  18.186  0.00  0.00    +0.000 A 
BRANCH  19  26
ATOM     25  F   UNL     1       2.914  17.449  16.725  0.00  0.00    +0.000 F 
ATOM     26  C   UNL     1       3.354  16.518  17.591  0.00  0.00    +0.000 C 
ATOM     27  F   UNL     1       3.680  15.540  16.771  0.00  0.00    +0.000 F 
ATOM     28  F   UNL     1       4.478  16.994  18.326  0.00  0.00    +0.000 F 
ENDBRANCH  19  26
ENDBRANCH   1  22
BRANCH  14  29
ATOM     29  C   UNL     1      -2.328  10.261  16.911  0.00  0.00    +0.000 C 
ATOM     30  F   UNL     1      -3.303   9.254  16.656  0.00  0.00    +0.000 F 
ATOM     31  F   UNL     1      -2.324  10.901  15.680  0.00  0.00    +0.000 F 
ATOM     32  F   UNL     1      -1.148   9.515  16.847  0.00  0.00    +0.000 F 
ENDBRANCH  14  29
TORSDOF 3
ENDMDL
MODEL 9
REMARK VINA RESULT:      -7.4      2.754      7.091
REMARK  Name = 
REMARK  3 active torsions:
REMARK  status: ('A' for Active; 'I' for Inactive)
REMARK    1  A    between atoms: C_2  and  C_5
REMARK    2  A    between atoms: C_8  and  C_9
REMARK    3  A    between atoms: C_22  and  C_23
REMARK                            x       y       z     vdW  Elec       q    Type
REMARK                         _______ _______ _______ _____ _____    ______ ____
ROOT
ATOM      1  C   UNL     1       0.631  15.306  20.922  0.00  0.00    +0.000 A 
ATOM      2  C   UNL     1       1.775  15.240  19.984  0.00  0.00    +0.000 A 
ATOM      3  C   UNL     1       2.701  14.109  19.739  0.00  0.00    +0.000 A 
ATOM      4  C   UNL     1       3.680  14.184  18.704  0.00  0.00    +0.000 A 
ATOM      5  C   UNL     1       3.634  15.235  17.795  0.00  0.00    +0.000 A 
ATOM      6  C   UNL     1       2.664  16.237  17.940  0.00  0.00    +0.000 A 
ATOM      7  C   UNL     1       1.788  16.287  19.041  0.00  0.00    +0.000 A 
ATOM      8  N   UNL     1       0.842  17.287  19.125  0.00  0.00    +0.000 NA
ATOM      9  C   UNL     1      -0.250  17.295  20.100  0.00  0.00    +0.000 A 
ATOM     10  C   UNL     1      -1.257  16.327  19.890  0.00  0.00    +0.000 A 
ATOM     11  C   UNL     1      -1.786  15.533  21.668  0.00  0.00    +0.000 A 
ATOM     12  C   UNL     1      -1.566  14.329  22.868  0.00  0.00    +0.000 A 
ATOM     13  C   UNL     1      -2.310  14.336  23.954  0.00  0.00    +0.000 A 
ATOM     14  C   UNL     1      -3.604  14.318  23.647  0.00  0.00    +0.000 A 
ATOM     15  C   UNL     1      -3.699  15.759  22.995  0.00  0.00    +0.000 A 
ATOM     16  C   UNL     1      -2.427  16.407  22.343  0.00  0.00    +0.000 A 
ATOM     17  C   UNL     1      -1.576  17.482  21.905  0.00  0.00    +0.000 A 
ATOM     18  C   UNL     1      -0.060  17.027  21.197  0.00  0.00    +0.000 A 
ENDROOT
BRANCH   1  22
ATOM     19  C   UNL     1       0.119  11.415  18.955  0.00  0.00    +0.000 A 
ATOM     20  C   UNL     1      -0.276  12.584  18.233  0.00  0.00    +0.000 A 
ATOM     21  C   UNL     1      -0.489  13.902  18.891  0.00  0.00    +0.000 A 
ATOM     22  C   UNL     1      -0.442  13.974  20.243  0.00  0.00    +0.000 A 
ATOM     23  C   UNL     1      -0.769  12.478  20.791  0.00  0.00    +0.000 A 
ATOM     24  C   UNL     1      -0.096  11.371  20.276  0.00  0.00    +0.000 A 
BRANCH  19  26
ATOM     25  F   UNL     1      -0.421   9.658  17.522  0.00  0.00    +0.000 F 
ATOM     26  C   UNL     1       0.559  10.162  18.294  0.00  0.00    +0.000 C 
ATOM     27  F   UNL     1       0.465   9.394  19.360  0.00  0.00    +0.000 F 
ATOM     28  F   UNL     1       1.828  10.034  17.658  0.00  0.00    +0.000 F 
ENDBRANCH  19  26
ENDBRANCH   1  22
BRANCH  14  29
ATOM     29  C   UNL     1      -4.073  12.845  24.450  0.00  0.00    +0.000 C 
ATOM     30  F   UNL     1      -5.408  12.508  24.083  0.00  0.00    +0.000 F 
ATOM     31  F   UNL     1      -3.415  11.704  24.015  0.00  0.00    +0.000 F 
ATOM     32  F   UNL     1      -4.115  12.641  25.831  0.00  0.00    +0.000 F 
ENDBRANCH  14  29
TORSDOF 3
ENDMDL
