MODEL 1
REMARK VINA RESULT:      -7.3      0.000      0.000
REMARK  Name = 
REMARK  11 active torsions:
REMARK  status: ('A' for Active; 'I' for Inactive)
REMARK    1  A    between atoms: C_1  and  C_2
REMARK    2  A    between atoms: C_5  and  C_6
REMARK    3  A    between atoms: C_7  and  C_8
REMARK    4  A    between atoms: C_8  and  O_10
REMARK    5  A    between atoms: C_13  and  C_14
REMARK    6  A    between atoms: C_17  and  C_18
REMARK    7  A    between atoms: C_18  and  C_19
REMARK    8  A    between atoms: C_18  and  C_20
REMARK    9  A    between atoms: N_23  and  S_24
REMARK   10  A    between atoms: S_24  and  C_27
REMARK   11  A    between atoms: C_30  and  C_31
REMARK                            x       y       z     vdW  Elec       q    Type
REMARK                         _______ _______ _______ _____ _____    ______ ____
ROOT
ATOM      1  C   UNL     1      -1.558  11.979  19.872  0.00  0.00    +0.000 C 
ATOM      2  C   UNL     1      -2.458  11.419  18.728  0.00  0.00    +0.000 C 
ATOM      3  C   UNL     1      -1.985  10.571  17.775  0.00  0.00    +0.000 C 
ATOM      4  C   UNL     1      -0.537  10.336  17.606  0.00  0.00    +0.000 C 
ATOM      5  C   UNL     1       0.080  10.397  19.004  0.00  0.00    +0.000 C 
ATOM      6  N   UNL     1      -0.020  11.784  19.551  0.00  0.00    +0.000 NA
ENDROOT
BRANCH   1  11
ATOM      7  C   UNL     1      -2.229  15.215  24.743  0.00  0.00    +0.000 C 
ATOM      8  C   UNL     1      -2.017  14.477  23.446  0.00  0.00    +0.000 A 
ATOM      9  C   UNL     1      -1.216  13.345  23.409  0.00  0.00    +0.000 A 
ATOM     10  C   UNL     1      -1.092  12.610  22.227  0.00  0.00    +0.000 A 
ATOM     11  C   UNL     1      -1.755  12.962  21.022  0.00  0.00    +0.000 A 
ATOM     12  C   UNL     1      -2.500  14.143  21.051  0.00  0.00    +0.000 A 
ATOM     13  C   UNL     1      -2.631  14.888  22.251  0.00  0.00    +0.000 A 
ENDBRANCH   1  11
BRANCH   5  14
ATOM     14  C   UNL     1       1.067   9.285  19.186  0.00  0.00    +0.000 A 
ATOM     15  C   UNL     1       1.928   8.723  18.276  0.00  0.00    +0.000 A 
ATOM     16  C   UNL     1       2.503   7.480  18.572  0.00  0.00    +0.000 A 
ATOM     17  C   UNL     1       2.288   6.832  19.800  0.00  0.00    +0.000 A 
ATOM     18  C   UNL     1       1.569   7.494  20.785  0.00  0.00    +0.000 A 
ATOM     19  C   UNL     1       1.022   8.718  20.490  0.00  0.00    +0.000 A 
BRANCH  17  20
ATOM     20  C   UNL     1       2.878   5.470  20.068  0.00  0.00    +0.000 C 
ATOM     21  C   UNL     1       1.821   4.667  20.816  0.00  0.00    +0.000 C 
ATOM     22  C   UNL     1       3.360   4.729  18.813  0.00  0.00    +0.000 C 
ENDBRANCH  17  20
ENDBRANCH   5  14
BRANCH   6  23
ATOM     23  S   UNL     1       0.626  13.131  18.656  0.00  0.00    +0.000 S 
ATOM     24  O   UNL     1       1.895  12.771  18.046  0.00  0.00    +0.000 OA
ATOM     25  O   UNL     1      -0.427  13.704  17.844  0.00  0.00    +0.000 OA
BRANCH  23  26
ATOM     26  C   UNL     1       1.059  14.333  19.892  0.00  0.00    +0.000 A 
ATOM     27  C   UNL     1       0.423  15.577  19.851  0.00  0.00    +0.000 A 
ATOM     28  C   UNL     1       0.710  16.562  20.797  0.00  0.00    +0.000 A 
ATOM     29  C   UNL     1       1.566  16.278  21.862  0.00  0.00    +0.000 A 
ATOM     30  C   UNL     1       1.903  17.339  22.870  0.00  0.00    +0.000 C 
ATOM     31  C   UNL     1       2.107  14.987  21.974  0.00  0.00    +0.000 A 
ATOM     32  C   UNL     1       1.861  14.016  20.990  0.00  0.00    +0.000 A 
ENDBRANCH  23  26
ENDBRANCH   6  23
BRANCH   2  33
ATOM     33  C   UNL     1      -3.875  11.675  18.435  0.00  0.00    +0.000 C 
ATOM     34  O   UNL     1      -4.727  11.892  19.263  0.00  0.00    +0.000 OA
BRANCH  33  35
ATOM     35  O   UNL     1      -4.068  11.984  17.120  0.00  0.00    +0.000 OA
ATOM     36  H   UNL     1      -4.784  12.655  17.106  0.00  0.00    +0.000 HD
ENDBRANCH  33  35
ENDBRANCH   2  33
TORSDOF 7
ENDMDL
MODEL 2
REMARK VINA RESULT:      -7.2      0.432      1.220
REMARK  Name = 
REMARK  11 active torsions:
REMARK  status: ('A' for Active; 'I' for Inactive)
REMARK    1  A    between atoms: C_1  and  C_2
REMARK    2  A    between atoms: C_5  and  C_6
REMARK    3  A    between atoms: C_7  and  C_8
REMARK    4  A    between atoms: C_8  and  O_10
REMARK    5  A    between atoms: C_13  and  C_14
REMARK    6  A    between atoms: C_17  and  C_18
REMARK    7  A    between atoms: C_18  and  C_19
REMARK    8  A    between atoms: C_18  and  C_20
REMARK    9  A    between atoms: N_23  and  S_24
REMARK   10  A    between atoms: S_24  and  C_27
REMARK   11  A    between atoms: C_30  and  C_31
REMARK                            x       y       z     vdW  Elec       q    Type
REMARK                         _______ _______ _______ _____ _____    ______ ____
ROOT
ATOM      1  C   UNL     1      -1.459  12.113  20.158  0.00  0.00    +0.000 C 
ATOM      2  C   UNL     1      -2.456  11.580  19.083  0.00  0.00    +0.000 C 
ATOM      3  C   UNL     1      -2.072  10.744  18.080  0.00  0.00    +0.000 C 
ATOM      4  C   UNL     1      -0.646  10.499  17.790  0.00  0.00    +0.000 C 
ATOM      5  C   UNL     1       0.085  10.531  19.132  0.00  0.00    +0.000 C 
ATOM      6  N   UNL     1       0.045  11.909  19.707  0.00  0.00    +0.000 NA
ENDROOT
BRANCH   1  11
ATOM      7  C   UNL     1      -1.857  16.357  24.216  0.00  0.00    +0.000 C 
ATOM      8  C   UNL     1      -1.804  15.203  23.249  0.00  0.00    +0.000 A 
ATOM      9  C   UNL     1      -2.400  15.308  22.001  0.00  0.00    +0.000 A 
ATOM     10  C   UNL     1      -2.274  14.272  21.072  0.00  0.00    +0.000 A 
ATOM     11  C   UNL     1      -1.551  13.078  21.335  0.00  0.00    +0.000 A 
ATOM     12  C   UNL     1      -1.017  12.952  22.619  0.00  0.00    +0.000 A 
ATOM     13  C   UNL     1      -1.140  14.005  23.563  0.00  0.00    +0.000 A 
ENDBRANCH   1  11
BRANCH   5  14
ATOM     14  C   UNL     1       1.073   9.408  19.215  0.00  0.00    +0.000 A 
ATOM     15  C   UNL     1       1.888   8.887  18.241  0.00  0.00    +0.000 A 
ATOM     16  C   UNL     1       2.468   7.629  18.450  0.00  0.00    +0.000 A 
ATOM     17  C   UNL     1       2.305   6.923  19.653  0.00  0.00    +0.000 A 
ATOM     18  C   UNL     1       1.635   7.538  20.701  0.00  0.00    +0.000 A 
ATOM     19  C   UNL     1       1.082   8.778  20.491  0.00  0.00    +0.000 A 
BRANCH  17  20
ATOM     20  C   UNL     1       2.898   5.547  19.827  0.00  0.00    +0.000 C 
ATOM     21  C   UNL     1       1.987   4.788  20.785  0.00  0.00    +0.000 C 
ATOM     22  C   UNL     1       3.101   4.772  18.517  0.00  0.00    +0.000 C 
ENDBRANCH  17  20
ENDBRANCH   5  14
BRANCH   6  23
ATOM     23  S   UNL     1       0.629  13.266  18.784  0.00  0.00    +0.000 S 
ATOM     24  O   UNL     1       1.877  12.926  18.121  0.00  0.00    +0.000 OA
ATOM     25  O   UNL     1      -0.467  13.817  18.016  0.00  0.00    +0.000 OA
BRANCH  23  26
ATOM     26  C   UNL     1       1.092  14.478  19.998  0.00  0.00    +0.000 A 
ATOM     27  C   UNL     1       2.026  14.111  20.971  0.00  0.00    +0.000 A 
ATOM     28  C   UNL     1       2.439  15.017  21.948  0.00  0.00    +0.000 A 
ATOM     29  C   UNL     1       2.000  16.342  21.902  0.00  0.00    +0.000 A 
ATOM     30  C   UNL     1       2.416  17.318  22.963  0.00  0.00    +0.000 C 
ATOM     31  C   UNL     1       1.162  16.743  20.849  0.00  0.00    +0.000 A 
ATOM     32  C   UNL     1       0.703  15.815  19.900  0.00  0.00    +0.000 A 
ENDBRANCH  23  26
ENDBRANCH   6  23
BRANCH   2  33
ATOM     33  C   UNL     1      -3.890  11.853  18.911  0.00  0.00    +0.000 C 
ATOM     34  O   UNL     1      -4.652  12.144  19.802  0.00  0.00    +0.000 OA
BRANCH  33  35
ATOM     35  O   UNL     1      -4.204  12.084  17.604  0.00  0.00    +0.000 OA
ATOM     36  H   UNL     1      -3.962  13.019  17.432  0.00  0.00    +0.000 HD
ENDBRANCH  33  35
ENDBRANCH   2  33
TORSDOF 7
ENDMDL
MODEL 3
REMARK VINA RESULT:      -7.1      0.456      1.089
REMARK  Name = 
REMARK  11 active torsions:
REMARK  status: ('A' for Active; 'I' for Inactive)
REMARK    1  A    between atoms: C_1  and  C_2
REMARK    2  A    between atoms: C_5  and  C_6
REMARK    3  A    between atoms: C_7  and  C_8
REMARK    4  A    between atoms: C_8  and  O_10
REMARK    5  A    between atoms: C_13  and  C_14
REMARK    6  A    between atoms: C_17  and  C_18
REMARK    7  A    between atoms: C_18  and  C_19
REMARK    8  A    between atoms: C_18  and  C_20
REMARK    9  A    between atoms: N_23  and  S_24
REMARK   10  A    between atoms: S_24  and  C_27
REMARK   11  A    between atoms: C_30  and  C_31
REMARK                            x       y       z     vdW  Elec       q    Type
REMARK                         _______ _______ _______ _____ _____    ______ ____
ROOT
ATOM      1  C   UNL     1      -1.397  11.970  19.994  0.00  0.00    +0.000 C 
ATOM      2  C   UNL     1      -2.383  11.464  18.896  0.00  0.00    +0.000 C 
ATOM      3  C   UNL     1      -1.992  10.637  17.888  0.00  0.00    +0.000 C 
ATOM      4  C   UNL     1      -0.564  10.377  17.618  0.00  0.00    +0.000 C 
ATOM      5  C   UNL     1       0.144  10.382  18.973  0.00  0.00    +0.000 C 
ATOM      6  N   UNL     1       0.112  11.752  19.566  0.00  0.00    +0.000 NA
ENDROOT
BRANCH   1  11
ATOM      7  C   UNL     1      -1.845  16.159  24.104  0.00  0.00    +0.000 C 
ATOM      8  C   UNL     1      -1.776  15.017  23.124  0.00  0.00    +0.000 A 
ATOM      9  C   UNL     1      -2.395  15.119  21.886  0.00  0.00    +0.000 A 
ATOM     10  C   UNL     1      -2.255  14.096  20.944  0.00  0.00    +0.000 A 
ATOM     11  C   UNL     1      -1.497  12.920  21.183  0.00  0.00    +0.000 A 
ATOM     12  C   UNL     1      -0.939  12.795  22.458  0.00  0.00    +0.000 A 
ATOM     13  C   UNL     1      -1.076  13.834  23.414  0.00  0.00    +0.000 A 
ENDBRANCH   1  11
BRANCH   5  14
ATOM     14  C   UNL     1       1.115   9.244  19.057  0.00  0.00    +0.000 A 
ATOM     15  C   UNL     1       1.936   8.723  18.088  0.00  0.00    +0.000 A 
ATOM     16  C   UNL     1       2.497   7.455  18.291  0.00  0.00    +0.000 A 
ATOM     17  C   UNL     1       2.308   6.739  19.484  0.00  0.00    +0.000 A 
ATOM     18  C   UNL     1       1.633   7.352  20.530  0.00  0.00    +0.000 A 
ATOM     19  C   UNL     1       1.100   8.601  20.326  0.00  0.00    +0.000 A 
BRANCH  17  20
ATOM     20  C   UNL     1       2.881   5.353  19.652  0.00  0.00    +0.000 C 
ATOM     21  C   UNL     1       4.394   5.479  19.518  0.00  0.00    +0.000 C 
ATOM     22  C   UNL     1       2.490   4.658  20.964  0.00  0.00    +0.000 C 
ENDBRANCH  17  20
ENDBRANCH   5  14
BRANCH   6  23
ATOM     23  S   UNL     1       0.729  13.114  18.672  0.00  0.00    +0.000 S 
ATOM     24  O   UNL     1       1.944  12.744  17.965  0.00  0.00    +0.000 OA
ATOM     25  O   UNL     1      -0.362  13.735  17.952  0.00  0.00    +0.000 OA
BRANCH  23  26
ATOM     26  C   UNL     1       1.274  14.265  19.912  0.00  0.00    +0.000 A 
ATOM     27  C   UNL     1       0.706  15.541  19.918  0.00  0.00    +0.000 A 
ATOM     28  C   UNL     1       1.083  16.490  20.870  0.00  0.00    +0.000 A 
ATOM     29  C   UNL     1       1.961  16.138  21.896  0.00  0.00    +0.000 A 
ATOM     30  C   UNL     1       2.394  17.158  22.909  0.00  0.00    +0.000 C 
ATOM     31  C   UNL     1       2.434  14.818  21.963  0.00  0.00    +0.000 A 
ATOM     32  C   UNL     1       2.097  13.881  20.972  0.00  0.00    +0.000 A 
ENDBRANCH  23  26
ENDBRANCH   6  23
BRANCH   2  33
ATOM     33  C   UNL     1      -3.809  11.759  18.703  0.00  0.00    +0.000 C 
ATOM     34  O   UNL     1      -4.601  11.966  19.592  0.00  0.00    +0.000 OA
BRANCH  33  35
ATOM     35  O   UNL     1      -4.080  12.116  17.415  0.00  0.00    +0.000 OA
ATOM     36  H   UNL     1      -3.226  12.419  17.037  0.00  0.00    +0.000 HD
ENDBRANCH  33  35
ENDBRANCH   2  33
TORSDOF 7
ENDMDL
MODEL 4
REMARK VINA RESULT:      -6.9      0.667      1.050
REMARK  Name = 
REMARK  11 active torsions:
REMARK  status: ('A' for Active; 'I' for Inactive)
REMARK    1  A    between atoms: C_1  and  C_2
REMARK    2  A    between atoms: C_5  and  C_6
REMARK    3  A    between atoms: C_7  and  C_8
REMARK    4  A    between atoms: C_8  and  O_10
REMARK    5  A    between atoms: C_13  and  C_14
REMARK    6  A    between atoms: C_17  and  C_18
REMARK    7  A    between atoms: C_18  and  C_19
REMARK    8  A    between atoms: C_18  and  C_20
REMARK    9  A    between atoms: N_23  and  S_24
REMARK   10  A    between atoms: S_24  and  C_27
REMARK   11  A    between atoms: C_30  and  C_31
REMARK                            x       y       z     vdW  Elec       q    Type
REMARK                         _______ _______ _______ _____ _____    ______ ____
ROOT
ATOM      1  C   UNL     1      -1.817  11.600  19.685  0.00  0.00    +0.000 C 
ATOM      2  C   UNL     1      -2.595  11.027  18.460  0.00  0.00    +0.000 C 
ATOM      3  C   UNL     1      -1.997  10.261  17.508  0.00  0.00    +0.000 C 
ATOM      4  C   UNL     1      -0.527  10.141  17.431  0.00  0.00    +0.000 C 
ATOM      5  C   UNL     1      -0.010  10.184  18.869  0.00  0.00    +0.000 C 
ATOM      6  N   UNL     1      -0.251  11.533  19.463  0.00  0.00    +0.000 NA
ENDROOT
BRANCH   1  11
ATOM      7  C   UNL     1      -3.236  15.638  23.725  0.00  0.00    +0.000 C 
ATOM      8  C   UNL     1      -2.917  14.528  22.757  0.00  0.00    +0.000 A 
ATOM      9  C   UNL     1      -3.408  14.568  21.460  0.00  0.00    +0.000 A 
ATOM     10  C   UNL     1      -3.038  13.585  20.538  0.00  0.00    +0.000 A 
ATOM     11  C   UNL     1      -2.164  12.512  20.857  0.00  0.00    +0.000 A 
ATOM     12  C   UNL     1      -1.735  12.441  22.184  0.00  0.00    +0.000 A 
ATOM     13  C   UNL     1      -2.105  13.440  23.121  0.00  0.00    +0.000 A 
ENDBRANCH   1  11
BRANCH   5  14
ATOM     14  C   UNL     1       1.046   9.140  19.074  0.00  0.00    +0.000 A 
ATOM     15  C   UNL     1       1.936   8.610  18.174  0.00  0.00    +0.000 A 
ATOM     16  C   UNL     1       2.589   7.413  18.499  0.00  0.00    +0.000 A 
ATOM     17  C   UNL     1       2.419   6.785  19.744  0.00  0.00    +0.000 A 
ATOM     18  C   UNL     1       1.664   7.426  20.715  0.00  0.00    +0.000 A 
ATOM     19  C   UNL     1       1.040   8.605  20.393  0.00  0.00    +0.000 A 
BRANCH  17  20
ATOM     20  C   UNL     1       3.094   5.470  20.043  0.00  0.00    +0.000 C 
ATOM     21  C   UNL     1       2.113   4.644  20.867  0.00  0.00    +0.000 C 
ATOM     22  C   UNL     1       3.567   4.701  18.801  0.00  0.00    +0.000 C 
ENDBRANCH  17  20
ENDBRANCH   5  14
BRANCH   6  23
ATOM     23  S   UNL     1       0.348  12.964  18.670  0.00  0.00    +0.000 S 
ATOM     24  O   UNL     1       1.703  12.747  18.193  0.00  0.00    +0.000 OA
ATOM     25  O   UNL     1      -0.666  13.455  17.761  0.00  0.00    +0.000 OA
BRANCH  23  26
ATOM     26  C   UNL     1       0.525  14.164  19.969  0.00  0.00    +0.000 A 
ATOM     27  C   UNL     1      -0.202  15.353  19.869  0.00  0.00    +0.000 A 
ATOM     28  C   UNL     1      -0.115  16.333  20.858  0.00  0.00    +0.000 A 
ATOM     29  C   UNL     1       0.625  16.091  22.017  0.00  0.00    +0.000 A 
ATOM     30  C   UNL     1       0.748  17.149  23.075  0.00  0.00    +0.000 C 
ATOM     31  C   UNL     1       1.253  14.846  22.175  0.00  0.00    +0.000 A 
ATOM     32  C   UNL     1       1.210  13.883  21.152  0.00  0.00    +0.000 A 
ENDBRANCH  23  26
ENDBRANCH   6  23
BRANCH   2  33
ATOM     33  C   UNL     1      -4.005  11.191  18.080  0.00  0.00    +0.000 C 
ATOM     34  O   UNL     1      -4.939  10.662  18.633  0.00  0.00    +0.000 OA
BRANCH  33  35
ATOM     35  O   UNL     1      -4.182  12.268  17.261  0.00  0.00    +0.000 OA
ATOM     36  H   UNL     1      -3.385  12.303  16.689  0.00  0.00    +0.000 HD
ENDBRANCH  33  35
ENDBRANCH   2  33
TORSDOF 7
ENDMDL
MODEL 5
REMARK VINA RESULT:      -6.4      2.565      7.330
REMARK  Name = 
REMARK  11 active torsions:
REMARK  status: ('A' for Active; 'I' for Inactive)
REMARK    1  A    between atoms: C_1  and  C_2
REMARK    2  A    between atoms: C_5  and  C_6
REMARK    3  A    between atoms: C_7  and  C_8
REMARK    4  A    between atoms: C_8  and  O_10
REMARK    5  A    between atoms: C_13  and  C_14
REMARK    6  A    between atoms: C_17  and  C_18
REMARK    7  A    between atoms: C_18  and  C_19
REMARK    8  A    between atoms: C_18  and  C_20
REMARK    9  A    between atoms: N_23  and  S_24
REMARK   10  A    between atoms: S_24  and  C_27
REMARK   11  A    between atoms: C_30  and  C_31
REMARK                            x       y       z     vdW  Elec       q    Type
REMARK                         _______ _______ _______ _____ _____    ______ ____
ROOT
ATOM      1  C   UNL     1      -1.570  11.143  20.230  0.00  0.00    +0.000 C 
ATOM      2  C   UNL     1      -0.806  10.378  21.354  0.00  0.00    +0.000 C 
ATOM      3  C   UNL     1      -0.598  10.909  22.589  0.00  0.00    +0.000 C 
ATOM      4  C   UNL     1      -0.850  12.338  22.862  0.00  0.00    +0.000 C 
ATOM      5  C   UNL     1      -2.051  12.741  22.006  0.00  0.00    +0.000 C 
ATOM      6  N   UNL     1      -1.691  12.688  20.557  0.00  0.00    +0.000 NA
ENDROOT
BRANCH   1  11
ATOM      7  C   UNL     1      -3.551  10.190  14.770  0.00  0.00    +0.000 C 
ATOM      8  C   UNL     1      -2.950  10.469  16.123  0.00  0.00    +0.000 A 
ATOM      9  C   UNL     1      -3.578  11.339  17.002  0.00  0.00    +0.000 A 
ATOM     10  C   UNL     1      -3.068  11.528  18.289  0.00  0.00    +0.000 A 
ATOM     11  C   UNL     1      -1.908  10.866  18.769  0.00  0.00    +0.000 A 
ATOM     12  C   UNL     1      -1.242  10.050  17.852  0.00  0.00    +0.000 A 
ATOM     13  C   UNL     1      -1.759   9.852  16.546  0.00  0.00    +0.000 A 
ENDBRANCH   1  11
BRANCH   5  14
ATOM     14  C   UNL     1      -2.999  13.584  22.803  0.00  0.00    +0.000 A 
ATOM     15  C   UNL     1      -4.317  13.882  22.562  0.00  0.00    +0.000 A 
ATOM     16  C   UNL     1      -4.900  14.957  23.246  0.00  0.00    +0.000 A 
ATOM     17  C   UNL     1      -4.203  15.685  24.224  0.00  0.00    +0.000 A 
ATOM     18  C   UNL     1      -2.935  15.259  24.594  0.00  0.00    +0.000 A 
ATOM     19  C   UNL     1      -2.378  14.196  23.928  0.00  0.00    +0.000 A 
BRANCH  17  20
ATOM     20  C   UNL     1      -4.840  16.871  24.905  0.00  0.00    +0.000 C 
ATOM     21  C   UNL     1      -3.718  17.844  25.245  0.00  0.00    +0.000 C 
ATOM     22  C   UNL     1      -5.945  17.554  24.087  0.00  0.00    +0.000 C 
ENDBRANCH  17  20
ENDBRANCH   5  14
BRANCH   6  23
ATOM     23  S   UNL     1      -0.323  13.582  19.956  0.00  0.00    +0.000 S 
ATOM     24  O   UNL     1       0.913  12.887  20.272  0.00  0.00    +0.000 OA
ATOM     25  O   UNL     1      -0.592  13.991  18.593  0.00  0.00    +0.000 OA
BRANCH  23  26
ATOM     26  C   UNL     1      -0.267  15.053  20.952  0.00  0.00    +0.000 A 
ATOM     27  C   UNL     1      -1.322  15.962  20.842  0.00  0.00    +0.000 A 
ATOM     28  C   UNL     1      -1.344  17.132  21.602  0.00  0.00    +0.000 A 
ATOM     29  C   UNL     1      -0.358  17.359  22.563  0.00  0.00    +0.000 A 
ATOM     30  C   UNL     1      -0.356  18.627  23.366  0.00  0.00    +0.000 C 
ATOM     31  C   UNL     1       0.633  16.385  22.762  0.00  0.00    +0.000 A 
ATOM     32  C   UNL     1       0.685  15.235  21.957  0.00  0.00    +0.000 A 
ENDBRANCH  23  26
ENDBRANCH   6  23
BRANCH   2  33
ATOM     33  C   UNL     1      -0.175   9.051  21.327  0.00  0.00    +0.000 C 
ATOM     34  O   UNL     1      -0.687   8.032  21.726  0.00  0.00    +0.000 OA
BRANCH  33  35
ATOM     35  O   UNL     1       0.905   9.024  20.495  0.00  0.00    +0.000 OA
ATOM     36  H   UNL     1       1.122   9.963  20.308  0.00  0.00    +0.000 HD
ENDBRANCH  33  35
ENDBRANCH   2  33
TORSDOF 7
ENDMDL
MODEL 6
REMARK VINA RESULT:      -6.4      2.335      6.958
REMARK  Name = 
REMARK  11 active torsions:
REMARK  status: ('A' for Active; 'I' for Inactive)
REMARK    1  A    between atoms: C_1  and  C_2
REMARK    2  A    between atoms: C_5  and  C_6
REMARK    3  A    between atoms: C_7  and  C_8
REMARK    4  A    between atoms: C_8  and  O_10
REMARK    5  A    between atoms: C_13  and  C_14
REMARK    6  A    between atoms: C_17  and  C_18
REMARK    7  A    between atoms: C_18  and  C_19
REMARK    8  A    between atoms: C_18  and  C_20
REMARK    9  A    between atoms: N_23  and  S_24
REMARK   10  A    between atoms: S_24  and  C_27
REMARK   11  A    between atoms: C_30  and  C_31
REMARK                            x       y       z     vdW  Elec       q    Type
REMARK                         _______ _______ _______ _____ _____    ______ ____
ROOT
ATOM      1  C   UNL     1       0.405  10.051  20.406  0.00  0.00    +0.000 C 
ATOM      2  C   UNL     1       0.170  10.191  21.942  0.00  0.00    +0.000 C 
ATOM      3  C   UNL     1      -0.647  11.141  22.473  0.00  0.00    +0.000 C 
ATOM      4  C   UNL     1      -1.154  12.261  21.656  0.00  0.00    +0.000 C 
ATOM      5  C   UNL     1      -1.375  11.708  20.248  0.00  0.00    +0.000 C 
ATOM      6  N   UNL     1      -0.066  11.346  19.626  0.00  0.00    +0.000 NA
ENDROOT
BRANCH   1  11
ATOM      7  C   UNL     1       4.054   6.390  17.590  0.00  0.00    +0.000 C 
ATOM      8  C   UNL     1       3.049   7.315  18.228  0.00  0.00    +0.000 A 
ATOM      9  C   UNL     1       2.553   7.044  19.494  0.00  0.00    +0.000 A 
ATOM     10  C   UNL     1       1.691   7.947  20.120  0.00  0.00    +0.000 A 
ATOM     11  C   UNL     1       1.275   9.166  19.521  0.00  0.00    +0.000 A 
ATOM     12  C   UNL     1       1.722   9.394  18.217  0.00  0.00    +0.000 A 
ATOM     13  C   UNL     1       2.601   8.480  17.581  0.00  0.00    +0.000 A 
ENDBRANCH   1  11
BRANCH   5  14
ATOM     14  C   UNL     1      -2.679  12.197  19.695  0.00  0.00    +0.000 A 
ATOM     15  C   UNL     1      -3.628  13.001  20.275  0.00  0.00    +0.000 A 
ATOM     16  C   UNL     1      -4.911  13.042  19.714  0.00  0.00    +0.000 A 
ATOM     17  C   UNL     1      -5.231  12.350  18.534  0.00  0.00    +0.000 A 
ATOM     18  C   UNL     1      -4.218  11.692  17.853  0.00  0.00    +0.000 A 
ATOM     19  C   UNL     1      -2.960  11.669  18.404  0.00  0.00    +0.000 A 
BRANCH  17  20
ATOM     20  C   UNL     1      -6.635  12.372  17.983  0.00  0.00    +0.000 C 
ATOM     21  C   UNL     1      -7.581  12.370  19.178  0.00  0.00    +0.000 C 
ATOM     22  C   UNL     1      -6.929  13.547  17.040  0.00  0.00    +0.000 C 
ENDBRANCH  17  20
ENDBRANCH   5  14
BRANCH   6  23
ATOM     23  S   UNL     1       1.210  12.526  19.509  0.00  0.00    +0.000 S 
ATOM     24  O   UNL     1       2.114  12.406  20.641  0.00  0.00    +0.000 OA
ATOM     25  O   UNL     1       1.738  12.514  18.161  0.00  0.00    +0.000 OA
BRANCH  23  26
ATOM     26  C   UNL     1       0.406  14.092  19.753  0.00  0.00    +0.000 A 
ATOM     27  C   UNL     1       0.622  14.761  20.961  0.00  0.00    +0.000 A 
ATOM     28  C   UNL     1       0.028  15.998  21.213  0.00  0.00    +0.000 A 
ATOM     29  C   UNL     1      -0.711  16.634  20.213  0.00  0.00    +0.000 A 
ATOM     30  C   UNL     1      -1.377  17.952  20.482  0.00  0.00    +0.000 C 
ATOM     31  C   UNL     1      -0.822  16.020  18.956  0.00  0.00    +0.000 A 
ATOM     32  C   UNL     1      -0.271  14.749  18.724  0.00  0.00    +0.000 A 
ENDBRANCH  23  26
ENDBRANCH   6  23
BRANCH   2  33
ATOM     33  C   UNL     1       0.742   9.421  23.056  0.00  0.00    +0.000 C 
ATOM     34  O   UNL     1       1.922   9.235  23.236  0.00  0.00    +0.000 OA
BRANCH  33  35
ATOM     35  O   UNL     1      -0.167   9.230  24.054  0.00  0.00    +0.000 OA
ATOM     36  H   UNL     1      -0.949   8.817  23.628  0.00  0.00    +0.000 HD
ENDBRANCH  33  35
ENDBRANCH   2  33
TORSDOF 7
ENDMDL
MODEL 7
REMARK VINA RESULT:      -6.3      0.723      1.618
REMARK  Name = 
REMARK  11 active torsions:
REMARK  status: ('A' for Active; 'I' for Inactive)
REMARK    1  A    between atoms: C_1  and  C_2
REMARK    2  A    between atoms: C_5  and  C_6
REMARK    3  A    between atoms: C_7  and  C_8
REMARK    4  A    between atoms: C_8  and  O_10
REMARK    5  A    between atoms: C_13  and  C_14
REMARK    6  A    between atoms: C_17  and  C_18
REMARK    7  A    between atoms: C_18  and  C_19
REMARK    8  A    between atoms: C_18  and  C_20
REMARK    9  A    between atoms: N_23  and  S_24
REMARK   10  A    between atoms: S_24  and  C_27
REMARK   11  A    between atoms: C_30  and  C_31
REMARK                            x       y       z     vdW  Elec       q    Type
REMARK                         _______ _______ _______ _____ _____    ______ ____
ROOT
ATOM      1  C   UNL     1      -1.533  11.920  20.012  0.00  0.00    +0.000 C 
ATOM      2  C   UNL     1      -2.553  11.475  18.919  0.00  0.00    +0.000 C 
ATOM      3  C   UNL     1      -2.227  10.601  17.928  0.00  0.00    +0.000 C 
ATOM      4  C   UNL     1      -0.823  10.223  17.669  0.00  0.00    +0.000 C 
ATOM      5  C   UNL     1      -0.120  10.196  19.027  0.00  0.00    +0.000 C 
ATOM      6  N   UNL     1      -0.045  11.576  19.595  0.00  0.00    +0.000 NA
ENDROOT
BRANCH   1  11
ATOM      7  C   UNL     1      -1.654  16.207  24.043  0.00  0.00    +0.000 C 
ATOM      8  C   UNL     1      -1.675  15.046  23.084  0.00  0.00    +0.000 A 
ATOM      9  C   UNL     1      -2.275  15.176  21.840  0.00  0.00    +0.000 A 
ATOM     10  C   UNL     1      -2.216  14.128  20.918  0.00  0.00    +0.000 A 
ATOM     11  C   UNL     1      -1.560  12.897  21.183  0.00  0.00    +0.000 A 
ATOM     12  C   UNL     1      -1.023  12.749  22.464  0.00  0.00    +0.000 A 
ATOM     13  C   UNL     1      -1.078  13.813  23.401  0.00  0.00    +0.000 A 
ENDBRANCH   1  11
BRANCH   5  14
ATOM     14  C   UNL     1       0.757   8.987  19.135  0.00  0.00    +0.000 A 
ATOM     15  C   UNL     1       1.114   8.263  20.245  0.00  0.00    +0.000 A 
ATOM     16  C   UNL     1       2.208   7.392  20.158  0.00  0.00    +0.000 A 
ATOM     17  C   UNL     1       2.898   7.180  18.953  0.00  0.00    +0.000 A 
ATOM     18  C   UNL     1       2.415   7.773  17.795  0.00  0.00    +0.000 A 
ATOM     19  C   UNL     1       1.333   8.613  17.888  0.00  0.00    +0.000 A 
BRANCH  17  20
ATOM     20  C   UNL     1       4.106   6.277  18.903  0.00  0.00    +0.000 C 
ATOM     21  C   UNL     1       3.725   4.987  19.619  0.00  0.00    +0.000 C 
ATOM     22  C   UNL     1       4.632   5.997  17.488  0.00  0.00    +0.000 C 
ENDBRANCH  17  20
ENDBRANCH   5  14
BRANCH   6  23
ATOM     23  S   UNL     1       0.681  12.867  18.678  0.00  0.00    +0.000 S 
ATOM     24  O   UNL     1       1.924  12.419  18.072  0.00  0.00    +0.000 OA
ATOM     25  O   UNL     1      -0.337  13.491  17.860  0.00  0.00    +0.000 OA
BRANCH  23  26
ATOM     26  C   UNL     1       1.191  14.058  19.895  0.00  0.00    +0.000 A 
ATOM     27  C   UNL     1       2.165  13.677  20.821  0.00  0.00    +0.000 A 
ATOM     28  C   UNL     1       2.617  14.566  21.797  0.00  0.00    +0.000 A 
ATOM     29  C   UNL     1       2.172  15.889  21.794  0.00  0.00    +0.000 A 
ATOM     30  C   UNL     1       2.629  16.848  22.855  0.00  0.00    +0.000 C 
ATOM     31  C   UNL     1       1.289  16.307  20.785  0.00  0.00    +0.000 A 
ATOM     32  C   UNL     1       0.793  15.395  19.839  0.00  0.00    +0.000 A 
ENDBRANCH  23  26
ENDBRANCH   6  23
BRANCH   2  33
ATOM     33  C   UNL     1      -3.951  11.878  18.715  0.00  0.00    +0.000 C 
ATOM     34  O   UNL     1      -4.725  12.168  19.596  0.00  0.00    +0.000 OA
BRANCH  33  35
ATOM     35  O   UNL     1      -4.189  12.228  17.418  0.00  0.00    +0.000 OA
ATOM     36  H   UNL     1      -3.524  11.743  16.884  0.00  0.00    +0.000 HD
ENDBRANCH  33  35
ENDBRANCH   2  33
TORSDOF 7
ENDMDL
MODEL 8
REMARK VINA RESULT:      -6.3      2.746      7.197
REMARK  Name = 
REMARK  11 active torsions:
REMARK  status: ('A' for Active; 'I' for Inactive)
REMARK    1  A    between atoms: C_1  and  C_2
REMARK    2  A    between atoms: C_5  and  C_6
REMARK    3  A    between atoms: C_7  and  C_8
REMARK    4  A    between atoms: C_8  and  O_10
REMARK    5  A    between atoms: C_13  and  C_14
REMARK    6  A    between atoms: C_17  and  C_18
REMARK    7  A    between atoms: C_18  and  C_19
REMARK    8  A    between atoms: C_18  and  C_20
REMARK    9  A    between atoms: N_23  and  S_24
REMARK   10  A    between atoms: S_24  and  C_27
REMARK   11  A    between atoms: C_30  and  C_31
REMARK                            x       y       z     vdW  Elec       q    Type
REMARK                         _______ _______ _______ _____ _____    ______ ____
ROOT
ATOM      1  C   UNL     1      -0.300  10.559  20.753  0.00  0.00    +0.000 C 
ATOM      2  C   UNL     1      -0.584  10.417  22.280  0.00  0.00    +0.000 C 
ATOM      3  C   UNL     1      -1.323  11.325  22.973  0.00  0.00    +0.000 C 
ATOM      4  C   UNL     1      -1.681  12.632  22.386  0.00  0.00    +0.000 C 
ATOM      5  C   UNL     1      -1.896  12.395  20.891  0.00  0.00    +0.000 C 
ATOM      6  N   UNL     1      -0.604  12.025  20.238  0.00  0.00    +0.000 NA
ENDROOT
BRANCH   1  11
ATOM      7  C   UNL     1       3.294   7.402  17.323  0.00  0.00    +0.000 C 
ATOM      8  C   UNL     1       2.291   8.179  18.135  0.00  0.00    +0.000 A 
ATOM      9  C   UNL     1       2.137   7.921  19.490  0.00  0.00    +0.000 A 
ATOM     10  C   UNL     1       1.272   8.702  20.260  0.00  0.00    +0.000 A 
ATOM     11  C   UNL     1       0.514   9.778  19.727  0.00  0.00    +0.000 A 
ATOM     12  C   UNL     1       0.622   9.982  18.349  0.00  0.00    +0.000 A 
ATOM     13  C   UNL     1       1.502   9.194  17.565  0.00  0.00    +0.000 A 
ENDBRANCH   1  11
BRANCH   5  14
ATOM     14  C   UNL     1      -3.120  13.119  20.420  0.00  0.00    +0.000 A 
ATOM     15  C   UNL     1      -3.598  14.354  20.781  0.00  0.00    +0.000 A 
ATOM     16  C   UNL     1      -4.927  14.677  20.476  0.00  0.00    +0.000 A 
ATOM     17  C   UNL     1      -5.757  13.809  19.747  0.00  0.00    +0.000 A 
ATOM     18  C   UNL     1      -5.209  12.646  19.225  0.00  0.00    +0.000 A 
ATOM     19  C   UNL     1      -3.902  12.346  19.517  0.00  0.00    +0.000 A 
BRANCH  17  20
ATOM     20  C   UNL     1      -7.199  14.163  19.481  0.00  0.00    +0.000 C 
ATOM     21  C   UNL     1      -7.866  14.356  20.838  0.00  0.00    +0.000 C 
ATOM     22  C   UNL     1      -7.397  15.390  18.580  0.00  0.00    +0.000 C 
ENDBRANCH  17  20
ENDBRANCH   5  14
BRANCH   6  23
ATOM     23  S   UNL     1       0.787  13.062  20.388  0.00  0.00    +0.000 S 
ATOM     24  O   UNL     1       1.268  13.068  21.759  0.00  0.00    +0.000 OA
ATOM     25  O   UNL     1       1.704  12.775  19.304  0.00  0.00    +0.000 OA
BRANCH  23  26
ATOM     26  C   UNL     1       0.160  14.705  20.134  0.00  0.00    +0.000 A 
ATOM     27  C   UNL     1      -0.201  15.079  18.837  0.00  0.00    +0.000 A 
ATOM     28  C   UNL     1      -0.708  16.351  18.571  0.00  0.00    +0.000 A 
ATOM     29  C   UNL     1      -0.959  17.236  19.621  0.00  0.00    +0.000 A 
ATOM     30  C   UNL     1      -1.479  18.617  19.343  0.00  0.00    +0.000 C 
ATOM     31  C   UNL     1      -0.715  16.815  20.938  0.00  0.00    +0.000 A 
ATOM     32  C   UNL     1      -0.151  15.555  21.198  0.00  0.00    +0.000 A 
ENDBRANCH  23  26
ENDBRANCH   6  23
BRANCH   2  33
ATOM     33  C   UNL     1      -0.140   9.387  23.228  0.00  0.00    +0.000 C 
ATOM     34  O   UNL     1       0.517   9.594  24.222  0.00  0.00    +0.000 OA
BRANCH  33  35
ATOM     35  O   UNL     1      -0.831   8.222  23.065  0.00  0.00    +0.000 OA
ATOM     36  H   UNL     1      -1.452   8.382  22.322  0.00  0.00    +0.000 HD
ENDBRANCH  33  35
ENDBRANCH   2  33
TORSDOF 7
ENDMDL
MODEL 9
REMARK VINA RESULT:      -6.3      5.456      7.653
REMARK  Name = 
REMARK  11 active torsions:
REMARK  status: ('A' for Active; 'I' for Inactive)
REMARK    1  A    between atoms: C_1  and  C_2
REMARK    2  A    between atoms: C_5  and  C_6
REMARK    3  A    between atoms: C_7  and  C_8
REMARK    4  A    between atoms: C_8  and  O_10
REMARK    5  A    between atoms: C_13  and  C_14
REMARK    6  A    between atoms: C_17  and  C_18
REMARK    7  A    between atoms: C_18  and  C_19
REMARK    8  A    between atoms: C_18  and  C_20
REMARK    9  A    between atoms: N_23  and  S_24
REMARK   10  A    between atoms: S_24  and  C_27
REMARK   11  A    between atoms: C_30  and  C_31
REMARK                            x       y       z     vdW  Elec       q    Type
REMARK                         _______ _______ _______ _____ _____    ______ ____
ROOT
ATOM      1  C   UNL     1       2.897  14.810  18.768  0.00  0.00    +0.000 C 
ATOM      2  C   UNL     1       2.809  16.286  18.272  0.00  0.00    +0.000 C 
ATOM      3  C   UNL     1       3.903  17.090  18.171  0.00  0.00    +0.000 C 
ATOM      4  C   UNL     1       5.196  16.705  18.770  0.00  0.00    +0.000 C 
ATOM      5  C   UNL     1       5.302  15.185  18.640  0.00  0.00    +0.000 C 
ATOM      6  N   UNL     1       4.273  14.522  19.497  0.00  0.00    +0.000 NA
ENDROOT
BRANCH   1  11
ATOM      7  C   UNL     1      -0.754  10.218  19.247  0.00  0.00    +0.000 C 
ATOM      8  C   UNL     1       0.180  11.401  19.234  0.00  0.00    +0.000 A 
ATOM      9  C   UNL     1       1.428  11.301  18.636  0.00  0.00    +0.000 A 
ATOM     10  C   UNL     1       2.256  12.422  18.546  0.00  0.00    +0.000 A 
ATOM     11  C   UNL     1       1.889  13.700  19.046  0.00  0.00    +0.000 A 
ATOM     12  C   UNL     1       0.663  13.772  19.710  0.00  0.00    +0.000 A 
ATOM     13  C   UNL     1      -0.182  12.636  19.799  0.00  0.00    +0.000 A 
ENDBRANCH   1  11
BRANCH   5  14
ATOM     14  C   UNL     1       6.677  14.795  18.192  0.00  0.00    +0.000 A 
ATOM     15  C   UNL     1       7.113  13.621  17.631  0.00  0.00    +0.000 A 
ATOM     16  C   UNL     1       8.488  13.353  17.613  0.00  0.00    +0.000 A 
ATOM     17  C   UNL     1       9.435  14.281  18.077  0.00  0.00    +0.000 A 
ATOM     18  C   UNL     1       8.998  15.538  18.469  0.00  0.00    +0.000 A 
ATOM     19  C   UNL     1       7.650  15.796  18.469  0.00  0.00    +0.000 A 
BRANCH  17  20
ATOM     20  C   UNL     1      10.905  13.942  18.094  0.00  0.00    +0.000 C 
ATOM     21  C   UNL     1      11.289  13.700  19.548  0.00  0.00    +0.000 C 
ATOM     22  C   UNL     1      11.292  12.749  17.208  0.00  0.00    +0.000 C 
ENDBRANCH  17  20
ENDBRANCH   5  14
BRANCH   6  23
ATOM     23  S   UNL     1       4.185  14.877  21.200  0.00  0.00    +0.000 S 
ATOM     24  O   UNL     1       3.536  16.160  21.416  0.00  0.00    +0.000 OA
ATOM     25  O   UNL     1       3.710  13.702  21.900  0.00  0.00    +0.000 OA
BRANCH  23  26
ATOM     26  C   UNL     1       5.870  15.148  21.697  0.00  0.00    +0.000 A 
ATOM     27  C   UNL     1       6.751  14.065  21.650  0.00  0.00    +0.000 A 
ATOM     28  C   UNL     1       8.089  14.211  22.018  0.00  0.00    +0.000 A 
ATOM     29  C   UNL     1       8.591  15.474  22.340  0.00  0.00    +0.000 A 
ATOM     30  C   UNL     1      10.021  15.639  22.764  0.00  0.00    +0.000 C 
ATOM     31  C   UNL     1       7.735  16.584  22.264  0.00  0.00    +0.000 A 
ATOM     32  C   UNL     1       6.375  16.425  21.948  0.00  0.00    +0.000 A 
ENDBRANCH  23  26
ENDBRANCH   6  23
BRANCH   2  33
ATOM     33  C   UNL     1       1.638  17.074  17.866  0.00  0.00    +0.000 C 
ATOM     34  O   UNL     1       0.582  17.102  18.454  0.00  0.00    +0.000 OA
BRANCH  33  35
ATOM     35  O   UNL     1       1.969  18.037  16.958  0.00  0.00    +0.000 OA
ATOM     36  H   UNL     1       2.553  17.597  16.303  0.00  0.00    +0.000 HD
ENDBRANCH  33  35
ENDBRANCH   2  33
TORSDOF 7
ENDMDL
