MODEL 1
REMARK VINA RESULT:      -8.1      0.000      0.000
REMARK  Name = 
REMARK  7 active torsions:
REMARK  status: ('A' for Active; 'I' for Inactive)
REMARK    1  A    between atoms: C_4  and  C_5
REMARK    2  A    between atoms: C_5  and  C_6
REMARK    3  A    between atoms: C_6  and  C_7
REMARK    4  A    between atoms: C_7  and  C_8
REMARK    5  A    between atoms: N_10  and  C_11
REMARK    6  A    between atoms: C_11  and  C_12
REMARK    7  A    between atoms: N_14  and  C_15
REMARK                            x       y       z     vdW  Elec       q    Type
REMARK                         _______ _______ _______ _____ _____    ______ ____
ROOT
ATOM      1  C   UNL     1       7.990   7.432  18.176  0.00  0.00    +0.000 A 
ATOM      2  C   UNL     1       7.701   6.148  18.578  0.00  0.00    +0.000 A 
ATOM      3  N   UNL     1       7.195   5.559  17.460  0.00  0.00    +0.000 N 
ATOM      4  N   UNL     1       7.211   6.402  16.414  0.00  0.00    +0.000 NA
ATOM      5  N   UNL     1       7.700   7.559  16.842  0.00  0.00    +0.000 NA
ENDROOT
BRANCH   1   6
ATOM      6  C   UNL     1       8.465   8.587  18.982  0.00  0.00    +0.000 C 
BRANCH   6   7
ATOM      7  C   UNL     1       8.707   9.845  18.142  0.00  0.00    +0.000 C 
BRANCH   7   8
ATOM      8  C   UNL     1       9.284  11.000  18.967  0.00  0.00    +0.000 C 
BRANCH   8  12
ATOM      9  N   UNL     1      12.283  13.381  16.054  0.00  0.00    +0.000 N 
ATOM     10  C   UNL     1      11.238  13.060  16.829  0.00  0.00    +0.000 A 
ATOM     11  N   UNL     1      11.013  11.921  17.429  0.00  0.00    +0.000 NA
ATOM     12  C   UNL     1       9.835  12.089  18.118  0.00  0.00    +0.000 A 
ATOM     13  C   UNL     1       9.336  13.360  17.913  0.00  0.00    +0.000 A 
ATOM     14  N   UNL     1      10.246  13.965  17.088  0.00  0.00    +0.000 N 
ATOM     15  H   UNL     1      12.863  12.597  15.774  0.00  0.00    +0.000 HD
ATOM     16  H   UNL     1      12.213  14.104  15.352  0.00  0.00    +0.000 HD
ATOM     17  H   UNL     1      10.218  14.911  16.750  0.00  0.00    +0.000 HD
ENDBRANCH   8  12
ENDBRANCH   7   8
ENDBRANCH   6   7
ENDBRANCH   1   6
BRANCH   3  18
ATOM     18  C   UNL     1       6.693   4.215  17.301  0.00  0.00    +0.000 C 
BRANCH  18  19
ATOM     19  C   UNL     1       5.272   4.214  16.783  0.00  0.00    +0.000 C 
ATOM     20  O   UNL     1       5.011   4.324  15.588  0.00  0.00    +0.000 OA
ATOM     21  N   UNL     1       4.306   4.102  17.763  0.00  0.00    +0.000 N 
ATOM     22  H   UNL     1       4.605   3.732  18.659  0.00  0.00    +0.000 HD
BRANCH  21  23
ATOM     23  C   UNL     1       2.876   4.045  17.462  0.00  0.00    +0.000 C 
ATOM     24  C   UNL     1       2.283   2.678  17.828  0.00  0.00    +0.000 C 
ATOM     25  C   UNL     1       2.299   2.433  19.336  0.00  0.00    +0.000 C 
ATOM     26  C   UNL     1       1.623   3.564  20.113  0.00  0.00    +0.000 C 
ATOM     27  C   UNL     1       2.143   4.946  19.723  0.00  0.00    +0.000 C 
ATOM     28  C   UNL     1       2.125   5.155  18.208  0.00  0.00    +0.000 C 
ENDBRANCH  21  23
ENDBRANCH  18  19
ENDBRANCH   3  18
TORSDOF 7
ENDMDL
MODEL 2
REMARK VINA RESULT:      -8.0      1.338      1.795
REMARK  Name = 
REMARK  7 active torsions:
REMARK  status: ('A' for Active; 'I' for Inactive)
REMARK    1  A    between atoms: C_4  and  C_5
REMARK    2  A    between atoms: C_5  and  C_6
REMARK    3  A    between atoms: C_6  and  C_7
REMARK    4  A    between atoms: C_7  and  C_8
REMARK    5  A    between atoms: N_10  and  C_11
REMARK    6  A    between atoms: C_11  and  C_12
REMARK    7  A    between atoms: N_14  and  C_15
REMARK                            x       y       z     vdW  Elec       q    Type
REMARK                         _______ _______ _______ _____ _____    ______ ____
ROOT
ATOM      1  C   UNL     1       7.508   6.744  17.820  0.00  0.00    +0.000 A 
ATOM      2  C   UNL     1       6.531   5.894  18.285  0.00  0.00    +0.000 A 
ATOM      3  N   UNL     1       5.958   5.399  17.154  0.00  0.00    +0.000 N 
ATOM      4  N   UNL     1       6.567   5.870  16.052  0.00  0.00    +0.000 NA
ATOM      5  N   UNL     1       7.525   6.698  16.450  0.00  0.00    +0.000 NA
ENDROOT
BRANCH   1   6
ATOM      6  C   UNL     1       8.398   7.661  18.578  0.00  0.00    +0.000 C 
BRANCH   6   7
ATOM      7  C   UNL     1       8.317   9.112  18.093  0.00  0.00    +0.000 C 
BRANCH   7   8
ATOM      8  C   UNL     1       8.978  10.095  19.065  0.00  0.00    +0.000 C 
BRANCH   8  12
ATOM      9  N   UNL     1       9.835  14.450  17.210  0.00  0.00    +0.000 N 
ATOM     10  C   UNL     1       9.963  13.167  17.575  0.00  0.00    +0.000 A 
ATOM     11  N   UNL     1       9.124  12.453  18.278  0.00  0.00    +0.000 NA
ATOM     12  C   UNL     1       9.685  11.200  18.367  0.00  0.00    +0.000 A 
ATOM     13  C   UNL     1      10.899  11.170  17.711  0.00  0.00    +0.000 A 
ATOM     14  N   UNL     1      11.059  12.436  17.211  0.00  0.00    +0.000 N 
ATOM     15  H   UNL     1       9.088  14.954  17.677  0.00  0.00    +0.000 HD
ATOM     16  H   UNL     1      10.643  15.021  17.006  0.00  0.00    +0.000 HD
ATOM     17  H   UNL     1      11.824  12.770  16.651  0.00  0.00    +0.000 HD
ENDBRANCH   8  12
ENDBRANCH   7   8
ENDBRANCH   6   7
ENDBRANCH   1   6
BRANCH   3  18
ATOM     18  C   UNL     1       4.853   4.479  17.034  0.00  0.00    +0.000 C 
BRANCH  18  19
ATOM     19  C   UNL     1       3.597   5.039  17.664  0.00  0.00    +0.000 C 
ATOM     20  O   UNL     1       3.275   6.218  17.545  0.00  0.00    +0.000 OA
ATOM     21  N   UNL     1       2.867   4.124  18.396  0.00  0.00    +0.000 N 
ATOM     22  H   UNL     1       3.040   3.143  18.204  0.00  0.00    +0.000 HD
BRANCH  21  23
ATOM     23  C   UNL     1       1.603   4.462  19.051  0.00  0.00    +0.000 C 
ATOM     24  C   UNL     1       0.731   3.217  19.256  0.00  0.00    +0.000 C 
ATOM     25  C   UNL     1       1.353   2.240  20.253  0.00  0.00    +0.000 C 
ATOM     26  C   UNL     1       1.695   2.912  21.584  0.00  0.00    +0.000 C 
ATOM     27  C   UNL     1       2.506   4.195  21.412  0.00  0.00    +0.000 C 
ATOM     28  C   UNL     1       1.863   5.144  20.400  0.00  0.00    +0.000 C 
ENDBRANCH  21  23
ENDBRANCH  18  19
ENDBRANCH   3  18
TORSDOF 7
ENDMDL
MODEL 3
REMARK VINA RESULT:      -7.9      1.397      1.930
REMARK  Name = 
REMARK  7 active torsions:
REMARK  status: ('A' for Active; 'I' for Inactive)
REMARK    1  A    between atoms: C_4  and  C_5
REMARK    2  A    between atoms: C_5  and  C_6
REMARK    3  A    between atoms: C_6  and  C_7
REMARK    4  A    between atoms: C_7  and  C_8
REMARK    5  A    between atoms: N_10  and  C_11
REMARK    6  A    between atoms: C_11  and  C_12
REMARK    7  A    between atoms: N_14  and  C_15
REMARK                            x       y       z     vdW  Elec       q    Type
REMARK                         _______ _______ _______ _____ _____    ______ ____
ROOT
ATOM      1  C   UNL     1       7.358   6.978  17.717  0.00  0.00    +0.000 A 
ATOM      2  C   UNL     1       6.105   6.532  18.074  0.00  0.00    +0.000 A 
ATOM      3  N   UNL     1       5.612   5.984  16.930  0.00  0.00    +0.000 N 
ATOM      4  N   UNL     1       6.513   6.038  15.934  0.00  0.00    +0.000 NA
ATOM      5  N   UNL     1       7.593   6.647  16.407  0.00  0.00    +0.000 NA
ENDROOT
BRANCH   1   6
ATOM      6  C   UNL     1       8.340   7.762  18.509  0.00  0.00    +0.000 C 
BRANCH   6   7
ATOM      7  C   UNL     1       8.382   9.243  18.115  0.00  0.00    +0.000 C 
BRANCH   7   8
ATOM      8  C   UNL     1       9.226  10.084  19.079  0.00  0.00    +0.000 C 
BRANCH   8  12
ATOM      9  N   UNL     1       9.237  14.601  17.425  0.00  0.00    +0.000 N 
ATOM     10  C   UNL     1       9.614  13.358  17.752  0.00  0.00    +0.000 A 
ATOM     11  N   UNL     1       8.912  12.454  18.384  0.00  0.00    +0.000 NA
ATOM     12  C   UNL     1       9.717  11.342  18.459  0.00  0.00    +0.000 A 
ATOM     13  C   UNL     1      10.939  11.594  17.869  0.00  0.00    +0.000 A 
ATOM     14  N   UNL     1      10.854  12.886  17.423  0.00  0.00    +0.000 N 
ATOM     15  H   UNL     1       8.381  14.918  17.868  0.00  0.00    +0.000 HD
ATOM     16  H   UNL     1       9.917  15.336  17.286  0.00  0.00    +0.000 HD
ATOM     17  H   UNL     1      11.557  13.397  16.917  0.00  0.00    +0.000 HD
ENDBRANCH   8  12
ENDBRANCH   7   8
ENDBRANCH   6   7
ENDBRANCH   1   6
BRANCH   3  18
ATOM     18  C   UNL     1       4.319   5.386  16.705  0.00  0.00    +0.000 C 
BRANCH  18  19
ATOM     19  C   UNL     1       4.265   3.969  17.232  0.00  0.00    +0.000 C 
ATOM     20  O   UNL     1       4.947   3.067  16.753  0.00  0.00    +0.000 OA
ATOM     21  N   UNL     1       3.375   3.778  18.270  0.00  0.00    +0.000 N 
ATOM     22  H   UNL     1       3.083   4.605  18.779  0.00  0.00    +0.000 HD
BRANCH  21  23
ATOM     23  C   UNL     1       3.205   2.489  18.939  0.00  0.00    +0.000 C 
ATOM     24  C   UNL     1       3.539   2.587  20.433  0.00  0.00    +0.000 C 
ATOM     25  C   UNL     1       2.543   3.468  21.186  0.00  0.00    +0.000 C 
ATOM     26  C   UNL     1       1.096   3.026  20.962  0.00  0.00    +0.000 C 
ATOM     27  C   UNL     1       0.749   2.851  19.485  0.00  0.00    +0.000 C 
ATOM     28  C   UNL     1       1.771   1.975  18.759  0.00  0.00    +0.000 C 
ENDBRANCH  21  23
ENDBRANCH  18  19
ENDBRANCH   3  18
TORSDOF 7
ENDMDL
MODEL 4
REMARK VINA RESULT:      -7.9      1.594      2.138
REMARK  Name = 
REMARK  7 active torsions:
REMARK  status: ('A' for Active; 'I' for Inactive)
REMARK    1  A    between atoms: C_4  and  C_5
REMARK    2  A    between atoms: C_5  and  C_6
REMARK    3  A    between atoms: C_6  and  C_7
REMARK    4  A    between atoms: C_7  and  C_8
REMARK    5  A    between atoms: N_10  and  C_11
REMARK    6  A    between atoms: C_11  and  C_12
REMARK    7  A    between atoms: N_14  and  C_15
REMARK                            x       y       z     vdW  Elec       q    Type
REMARK                         _______ _______ _______ _____ _____    ______ ____
ROOT
ATOM      1  C   UNL     1       8.372   8.562  18.338  0.00  0.00    +0.000 A 
ATOM      2  C   UNL     1       8.341   7.224  18.664  0.00  0.00    +0.000 A 
ATOM      3  N   UNL     1       7.489   6.683  17.750  0.00  0.00    +0.000 N 
ATOM      4  N   UNL     1       7.052   7.610  16.880  0.00  0.00    +0.000 NA
ATOM      5  N   UNL     1       7.590   8.770  17.232  0.00  0.00    +0.000 NA
ENDROOT
BRANCH   1   6
ATOM      6  C   UNL     1       9.040   9.687  19.042  0.00  0.00    +0.000 C 
BRANCH   6   7
ATOM      7  C   UNL     1       9.180  10.940  18.172  0.00  0.00    +0.000 C 
BRANCH   7   8
ATOM      8  C   UNL     1      10.580  11.559  18.254  0.00  0.00    +0.000 C 
BRANCH   8  12
ATOM      9  N   UNL     1      11.069  15.885  16.209  0.00  0.00    +0.000 N 
ATOM     10  C   UNL     1      10.818  14.908  17.091  0.00  0.00    +0.000 A 
ATOM     11  N   UNL     1      10.883  13.619  16.888  0.00  0.00    +0.000 NA
ATOM     12  C   UNL     1      10.562  13.036  18.092  0.00  0.00    +0.000 A 
ATOM     13  C   UNL     1      10.283  14.004  19.035  0.00  0.00    +0.000 A 
ATOM     14  N   UNL     1      10.452  15.194  18.377  0.00  0.00    +0.000 N 
ATOM     15  H   UNL     1      11.150  15.580  15.245  0.00  0.00    +0.000 HD
ATOM     16  H   UNL     1      10.655  16.802  16.310  0.00  0.00    +0.000 HD
ATOM     17  H   UNL     1      10.358  16.116  18.765  0.00  0.00    +0.000 HD
ENDBRANCH   8  12
ENDBRANCH   7   8
ENDBRANCH   6   7
ENDBRANCH   1   6
BRANCH   3  18
ATOM     18  C   UNL     1       7.053   5.313  17.630  0.00  0.00    +0.000 C 
BRANCH  18  19
ATOM     19  C   UNL     1       6.153   4.915  18.779  0.00  0.00    +0.000 C 
ATOM     20  O   UNL     1       6.551   4.882  19.940  0.00  0.00    +0.000 OA
ATOM     21  N   UNL     1       4.868   4.575  18.407  0.00  0.00    +0.000 N 
ATOM     22  H   UNL     1       4.552   4.902  17.501  0.00  0.00    +0.000 HD
BRANCH  21  23
ATOM     23  C   UNL     1       3.838   4.198  19.375  0.00  0.00    +0.000 C 
ATOM     24  C   UNL     1       2.438   4.586  18.881  0.00  0.00    +0.000 C 
ATOM     25  C   UNL     1       2.024   3.782  17.649  0.00  0.00    +0.000 C 
ATOM     26  C   UNL     1       2.141   2.274  17.876  0.00  0.00    +0.000 C 
ATOM     27  C   UNL     1       3.501   1.861  18.434  0.00  0.00    +0.000 C 
ATOM     28  C   UNL     1       3.892   2.691  19.658  0.00  0.00    +0.000 C 
ENDBRANCH  21  23
ENDBRANCH  18  19
ENDBRANCH   3  18
TORSDOF 7
ENDMDL
MODEL 5
REMARK VINA RESULT:      -7.7      1.714      2.172
REMARK  Name = 
REMARK  7 active torsions:
REMARK  status: ('A' for Active; 'I' for Inactive)
REMARK    1  A    between atoms: C_4  and  C_5
REMARK    2  A    between atoms: C_5  and  C_6
REMARK    3  A    between atoms: C_6  and  C_7
REMARK    4  A    between atoms: C_7  and  C_8
REMARK    5  A    between atoms: N_10  and  C_11
REMARK    6  A    between atoms: C_11  and  C_12
REMARK    7  A    between atoms: N_14  and  C_15
REMARK                            x       y       z     vdW  Elec       q    Type
REMARK                         _______ _______ _______ _____ _____    ______ ____
ROOT
ATOM      1  C   UNL     1       7.321   6.191  18.609  0.00  0.00    +0.000 A 
ATOM      2  C   UNL     1       6.674   5.684  17.505  0.00  0.00    +0.000 A 
ATOM      3  N   UNL     1       6.025   4.585  17.979  0.00  0.00    +0.000 N 
ATOM      4  N   UNL     1       6.212   4.440  19.303  0.00  0.00    +0.000 NA
ATOM      5  N   UNL     1       7.008   5.425  19.702  0.00  0.00    +0.000 NA
ENDROOT
BRANCH   1   6
ATOM      6  C   UNL     1       8.280   7.322  18.702  0.00  0.00    +0.000 C 
BRANCH   6   7
ATOM      7  C   UNL     1       8.120   8.338  17.566  0.00  0.00    +0.000 C 
BRANCH   7   8
ATOM      8  C   UNL     1       7.868   9.760  18.079  0.00  0.00    +0.000 C 
BRANCH   8  12
ATOM      9  N   UNL     1      12.096  12.024  17.708  0.00  0.00    +0.000 N 
ATOM     10  C   UNL     1      10.993  11.447  18.203  0.00  0.00    +0.000 A 
ATOM     11  N   UNL     1       9.987  10.948  17.535  0.00  0.00    +0.000 NA
ATOM     12  C   UNL     1       9.120  10.453  18.480  0.00  0.00    +0.000 A 
ATOM     13  C   UNL     1       9.616  10.674  19.749  0.00  0.00    +0.000 A 
ATOM     14  N   UNL     1      10.813  11.310  19.552  0.00  0.00    +0.000 N 
ATOM     15  H   UNL     1      12.054  12.244  16.718  0.00  0.00    +0.000 HD
ATOM     16  H   UNL     1      12.627  12.693  18.249  0.00  0.00    +0.000 HD
ATOM     17  H   UNL     1      11.465  11.600  20.260  0.00  0.00    +0.000 HD
ENDBRANCH   8  12
ENDBRANCH   7   8
ENDBRANCH   6   7
ENDBRANCH   1   6
BRANCH   3  18
ATOM     18  C   UNL     1       5.208   3.642  17.256  0.00  0.00    +0.000 C 
BRANCH  18  19
ATOM     19  C   UNL     1       3.735   3.946  17.418  0.00  0.00    +0.000 C 
ATOM     20  O   UNL     1       2.957   3.933  16.469  0.00  0.00    +0.000 OA
ATOM     21  N   UNL     1       3.355   4.259  18.708  0.00  0.00    +0.000 N 
ATOM     22  H   UNL     1       3.979   3.967  19.452  0.00  0.00    +0.000 HD
BRANCH  21  23
ATOM     23  C   UNL     1       1.968   4.547  19.076  0.00  0.00    +0.000 C 
ATOM     24  C   UNL     1       1.082   3.304  18.928  0.00  0.00    +0.000 C 
ATOM     25  C   UNL     1       1.455   2.213  19.931  0.00  0.00    +0.000 C 
ATOM     26  C   UNL     1       1.464   2.729  21.371  0.00  0.00    +0.000 C 
ATOM     27  C   UNL     1       2.282   4.008  21.540  0.00  0.00    +0.000 C 
ATOM     28  C   UNL     1       1.893   5.074  20.514  0.00  0.00    +0.000 C 
ENDBRANCH  21  23
ENDBRANCH  18  19
ENDBRANCH   3  18
TORSDOF 7
ENDMDL
MODEL 6
REMARK VINA RESULT:      -7.6      1.528      2.076
REMARK  Name = 
REMARK  7 active torsions:
REMARK  status: ('A' for Active; 'I' for Inactive)
REMARK    1  A    between atoms: C_4  and  C_5
REMARK    2  A    between atoms: C_5  and  C_6
REMARK    3  A    between atoms: C_6  and  C_7
REMARK    4  A    between atoms: C_7  and  C_8
REMARK    5  A    between atoms: N_10  and  C_11
REMARK    6  A    between atoms: C_11  and  C_12
REMARK    7  A    between atoms: N_14  and  C_15
REMARK                            x       y       z     vdW  Elec       q    Type
REMARK                         _______ _______ _______ _____ _____    ______ ____
ROOT
ATOM      1  C   UNL     1       7.149   7.884  17.386  0.00  0.00    +0.000 A 
ATOM      2  C   UNL     1       6.038   7.178  17.791  0.00  0.00    +0.000 A 
ATOM      3  N   UNL     1       6.138   5.995  17.124  0.00  0.00    +0.000 N 
ATOM      4  N   UNL     1       7.261   5.943  16.387  0.00  0.00    +0.000 NA
ATOM      5  N   UNL     1       7.892   7.100  16.541  0.00  0.00    +0.000 NA
ENDROOT
BRANCH   1   6
ATOM      6  C   UNL     1       7.534   9.287  17.686  0.00  0.00    +0.000 C 
BRANCH   6   7
ATOM      7  C   UNL     1       8.903   9.400  18.367  0.00  0.00    +0.000 C 
BRANCH   7   8
ATOM      8  C   UNL     1       9.125  10.770  19.015  0.00  0.00    +0.000 C 
BRANCH   8  12
ATOM      9  N   UNL     1      11.452  13.822  16.115  0.00  0.00    +0.000 N 
ATOM     10  C   UNL     1      11.180  12.904  17.052  0.00  0.00    +0.000 A 
ATOM     11  N   UNL     1      10.004  12.470  17.422  0.00  0.00    +0.000 NA
ATOM     12  C   UNL     1      10.244  11.523  18.390  0.00  0.00    +0.000 A 
ATOM     13  C   UNL     1      11.600  11.399  18.614  0.00  0.00    +0.000 A 
ATOM     14  N   UNL     1      12.181  12.289  17.750  0.00  0.00    +0.000 N 
ATOM     15  H   UNL     1      10.650  14.349  15.787  0.00  0.00    +0.000 HD
ATOM     16  H   UNL     1      12.307  14.361  16.141  0.00  0.00    +0.000 HD
ATOM     17  H   UNL     1      13.165  12.448  17.621  0.00  0.00    +0.000 HD
ENDBRANCH   8  12
ENDBRANCH   7   8
ENDBRANCH   6   7
ENDBRANCH   1   6
BRANCH   3  18
ATOM     18  C   UNL     1       5.230   4.875  17.141  0.00  0.00    +0.000 C 
BRANCH  18  19
ATOM     19  C   UNL     1       5.014   4.358  18.547  0.00  0.00    +0.000 C 
ATOM     20  O   UNL     1       5.902   3.789  19.177  0.00  0.00    +0.000 OA
ATOM     21  N   UNL     1       3.741   4.560  19.042  0.00  0.00    +0.000 N 
ATOM     22  H   UNL     1       3.182   5.272  18.587  0.00  0.00    +0.000 HD
BRANCH  21  23
ATOM     23  C   UNL     1       3.346   4.165  20.394  0.00  0.00    +0.000 C 
ATOM     24  C   UNL     1       2.065   4.884  20.833  0.00  0.00    +0.000 C 
ATOM     25  C   UNL     1       0.853   4.448  20.010  0.00  0.00    +0.000 C 
ATOM     26  C   UNL     1       0.672   2.930  20.006  0.00  0.00    +0.000 C 
ATOM     27  C   UNL     1       1.951   2.179  19.640  0.00  0.00    +0.000 C 
ATOM     28  C   UNL     1       3.145   2.647  20.473  0.00  0.00    +0.000 C 
ENDBRANCH  21  23
ENDBRANCH  18  19
ENDBRANCH   3  18
TORSDOF 7
ENDMDL
MODEL 7
REMARK VINA RESULT:      -7.6      4.867      8.205
REMARK  Name = 
REMARK  7 active torsions:
REMARK  status: ('A' for Active; 'I' for Inactive)
REMARK    1  A    between atoms: C_4  and  C_5
REMARK    2  A    between atoms: C_5  and  C_6
REMARK    3  A    between atoms: C_6  and  C_7
REMARK    4  A    between atoms: C_7  and  C_8
REMARK    5  A    between atoms: N_10  and  C_11
REMARK    6  A    between atoms: C_11  and  C_12
REMARK    7  A    between atoms: N_14  and  C_15
REMARK                            x       y       z     vdW  Elec       q    Type
REMARK                         _______ _______ _______ _____ _____    ______ ____
ROOT
ATOM      1  C   UNL     1       1.891   7.665  19.809  0.00  0.00    +0.000 A 
ATOM      2  C   UNL     1       2.128   6.415  20.336  0.00  0.00    +0.000 A 
ATOM      3  N   UNL     1       2.567   5.688  19.272  0.00  0.00    +0.000 N 
ATOM      4  N   UNL     1       2.647   6.443  18.163  0.00  0.00    +0.000 NA
ATOM      5  N   UNL     1       2.235   7.663  18.482  0.00  0.00    +0.000 NA
ENDROOT
BRANCH   1   6
ATOM      6  C   UNL     1       1.294   8.862  20.456  0.00  0.00    +0.000 C 
BRANCH   6   7
ATOM      7  C   UNL     1       0.736   9.873  19.448  0.00  0.00    +0.000 C 
BRANCH   7   8
ATOM      8  C   UNL     1      -0.782  10.043  19.566  0.00  0.00    +0.000 C 
BRANCH   8  12
ATOM      9  N   UNL     1      -2.835  10.374  15.228  0.00  0.00    +0.000 N 
ATOM     10  C   UNL     1      -2.291  10.683  16.413  0.00  0.00    +0.000 A 
ATOM     11  N   UNL     1      -1.884   9.858  17.341  0.00  0.00    +0.000 NA
ATOM     12  C   UNL     1      -1.385  10.648  18.349  0.00  0.00    +0.000 A 
ATOM     13  C   UNL     1      -1.511  11.982  18.021  0.00  0.00    +0.000 A 
ATOM     14  N   UNL     1      -2.091  11.985  16.780  0.00  0.00    +0.000 N 
ATOM     15  H   UNL     1      -3.109   9.403  15.125  0.00  0.00    +0.000 HD
ATOM     16  H   UNL     1      -3.444  11.020  14.745  0.00  0.00    +0.000 HD
ATOM     17  H   UNL     1      -2.309  12.790  16.218  0.00  0.00    +0.000 HD
ENDBRANCH   8  12
ENDBRANCH   7   8
ENDBRANCH   6   7
ENDBRANCH   1   6
BRANCH   3  18
ATOM     18  C   UNL     1       2.938   4.294  19.229  0.00  0.00    +0.000 C 
BRANCH  18  19
ATOM     19  C   UNL     1       4.019   4.041  18.202  0.00  0.00    +0.000 C 
ATOM     20  O   UNL     1       3.938   3.134  17.377  0.00  0.00    +0.000 OA
ATOM     21  N   UNL     1       5.102   4.893  18.289  0.00  0.00    +0.000 N 
ATOM     22  H   UNL     1       4.958   5.765  18.786  0.00  0.00    +0.000 HD
BRANCH  21  23
ATOM     23  C   UNL     1       6.233   4.833  17.362  0.00  0.00    +0.000 C 
ATOM     24  C   UNL     1       6.280   6.072  16.459  0.00  0.00    +0.000 C 
ATOM     25  C   UNL     1       6.586   7.345  17.249  0.00  0.00    +0.000 C 
ATOM     26  C   UNL     1       7.857   7.213  18.090  0.00  0.00    +0.000 C 
ATOM     27  C   UNL     1       7.872   5.951  18.950  0.00  0.00    +0.000 C 
ATOM     28  C   UNL     1       7.552   4.699  18.133  0.00  0.00    +0.000 C 
ENDBRANCH  21  23
ENDBRANCH  18  19
ENDBRANCH   3  18
TORSDOF 7
ENDMDL
MODEL 8
REMARK VINA RESULT:      -7.5      5.412      7.728
REMARK  Name = 
REMARK  7 active torsions:
REMARK  status: ('A' for Active; 'I' for Inactive)
REMARK    1  A    between atoms: C_4  and  C_5
REMARK    2  A    between atoms: C_5  and  C_6
REMARK    3  A    between atoms: C_6  and  C_7
REMARK    4  A    between atoms: C_7  and  C_8
REMARK    5  A    between atoms: N_10  and  C_11
REMARK    6  A    between atoms: C_11  and  C_12
REMARK    7  A    between atoms: N_14  and  C_15
REMARK                            x       y       z     vdW  Elec       q    Type
REMARK                         _______ _______ _______ _____ _____    ______ ____
ROOT
ATOM      1  C   UNL     1       2.280   8.348  18.230  0.00  0.00    +0.000 A 
ATOM      2  C   UNL     1       3.299   7.857  17.445  0.00  0.00    +0.000 A 
ATOM      3  N   UNL     1       3.862   6.880  18.207  0.00  0.00    +0.000 N 
ATOM      4  N   UNL     1       3.209   6.733  19.373  0.00  0.00    +0.000 NA
ATOM      5  N   UNL     1       2.232   7.631  19.398  0.00  0.00    +0.000 NA
ENDROOT
BRANCH   1   6
ATOM      6  C   UNL     1       1.377   9.502  17.987  0.00  0.00    +0.000 C 
BRANCH   6   7
ATOM      7  C   UNL     1       0.809  10.100  19.279  0.00  0.00    +0.000 C 
BRANCH   7   8
ATOM      8  C   UNL     1      -0.718   9.990  19.356  0.00  0.00    +0.000 C 
BRANCH   8  12
ATOM      9  N   UNL     1      -2.905  10.316  15.085  0.00  0.00    +0.000 N 
ATOM     10  C   UNL     1      -2.353  10.624  16.266  0.00  0.00    +0.000 A 
ATOM     11  N   UNL     1      -1.863   9.800  17.154  0.00  0.00    +0.000 NA
ATOM     12  C   UNL     1      -1.395  10.590  18.177  0.00  0.00    +0.000 A 
ATOM     13  C   UNL     1      -1.624  11.922  17.899  0.00  0.00    +0.000 A 
ATOM     14  N   UNL     1      -2.237  11.924  16.674  0.00  0.00    +0.000 N 
ATOM     15  H   UNL     1      -3.113   9.332  14.955  0.00  0.00    +0.000 HD
ATOM     16  H   UNL     1      -3.572  10.932  14.640  0.00  0.00    +0.000 HD
ATOM     17  H   UNL     1      -2.525  12.729  16.145  0.00  0.00    +0.000 HD
ENDBRANCH   8  12
ENDBRANCH   7   8
ENDBRANCH   6   7
ENDBRANCH   1   6
BRANCH   3  18
ATOM     18  C   UNL     1       4.996   6.043  17.902  0.00  0.00    +0.000 C 
BRANCH  18  19
ATOM     19  C   UNL     1       4.973   4.763  18.708  0.00  0.00    +0.000 C 
ATOM     20  O   UNL     1       6.002   4.181  19.040  0.00  0.00    +0.000 OA
ATOM     21  N   UNL     1       3.708   4.302  19.013  0.00  0.00    +0.000 N 
ATOM     22  H   UNL     1       2.951   4.974  18.958  0.00  0.00    +0.000 HD
BRANCH  21  23
ATOM     23  C   UNL     1       3.476   3.101  19.816  0.00  0.00    +0.000 C 
ATOM     24  C   UNL     1       2.339   3.315  20.824  0.00  0.00    +0.000 C 
ATOM     25  C   UNL     1       0.989   3.499  20.131  0.00  0.00    +0.000 C 
ATOM     26  C   UNL     1       0.675   2.357  19.163  0.00  0.00    +0.000 C 
ATOM     27  C   UNL     1       1.816   2.071  18.190  0.00  0.00    +0.000 C 
ATOM     28  C   UNL     1       3.154   1.905  18.913  0.00  0.00    +0.000 C 
ENDBRANCH  21  23
ENDBRANCH  18  19
ENDBRANCH   3  18
TORSDOF 7
ENDMDL
MODEL 9
REMARK VINA RESULT:      -7.5      5.520      7.598
REMARK  Name = 
REMARK  7 active torsions:
REMARK  status: ('A' for Active; 'I' for Inactive)
REMARK    1  A    between atoms: C_4  and  C_5
REMARK    2  A    between atoms: C_5  and  C_6
REMARK    3  A    between atoms: C_6  and  C_7
REMARK    4  A    between atoms: C_7  and  C_8
REMARK    5  A    between atoms: N_10  and  C_11
REMARK    6  A    between atoms: C_11  and  C_12
REMARK    7  A    between atoms: N_14  and  C_15
REMARK                            x       y       z     vdW  Elec       q    Type
REMARK                         _______ _______ _______ _____ _____    ______ ____
ROOT
ATOM      1  C   UNL     1       2.205   8.331  18.297  0.00  0.00    +0.000 A 
ATOM      2  C   UNL     1       3.075   7.798  17.374  0.00  0.00    +0.000 A 
ATOM      3  N   UNL     1       3.667   6.766  18.036  0.00  0.00    +0.000 N 
ATOM      4  N   UNL     1       3.167   6.631  19.276  0.00  0.00    +0.000 NA
ATOM      5  N   UNL     1       2.264   7.588  19.448  0.00  0.00    +0.000 NA
ENDROOT
BRANCH   1   6
ATOM      6  C   UNL     1       1.356   9.546  18.199  0.00  0.00    +0.000 C 
BRANCH   6   7
ATOM      7  C   UNL     1       0.801  10.001  19.553  0.00  0.00    +0.000 C 
BRANCH   7   8
ATOM      8  C   UNL     1      -0.731   9.999  19.592  0.00  0.00    +0.000 C 
BRANCH   8  12
ATOM      9  N   UNL     1      -2.956  10.543  15.362  0.00  0.00    +0.000 N 
ATOM     10  C   UNL     1      -2.327  10.794  16.518  0.00  0.00    +0.000 A 
ATOM     11  N   UNL     1      -1.954   9.929  17.425  0.00  0.00    +0.000 NA
ATOM     12  C   UNL     1      -1.333  10.664  18.407  0.00  0.00    +0.000 A 
ATOM     13  C   UNL     1      -1.348  12.006  18.085  0.00  0.00    +0.000 A 
ATOM     14  N   UNL     1      -1.986  12.069  16.875  0.00  0.00    +0.000 N 
ATOM     15  H   UNL     1      -3.327   9.603  15.273  0.00  0.00    +0.000 HD
ATOM     16  H   UNL     1      -3.524  11.246  14.910  0.00  0.00    +0.000 HD
ATOM     17  H   UNL     1      -2.154  12.893  16.324  0.00  0.00    +0.000 HD
ENDBRANCH   8  12
ENDBRANCH   7   8
ENDBRANCH   6   7
ENDBRANCH   1   6
BRANCH   3  18
ATOM     18  C   UNL     1       4.693   5.867  17.566  0.00  0.00    +0.000 C 
BRANCH  18  19
ATOM     19  C   UNL     1       4.208   4.434  17.551  0.00  0.00    +0.000 C 
ATOM     20  O   UNL     1       4.786   3.555  16.917  0.00  0.00    +0.000 OA
ATOM     21  N   UNL     1       3.059   4.211  18.283  0.00  0.00    +0.000 N 
ATOM     22  H   UNL     1       2.825   4.902  18.987  0.00  0.00    +0.000 HD
BRANCH  21  23
ATOM     23  C   UNL     1       2.454   2.886  18.422  0.00  0.00    +0.000 C 
ATOM     24  C   UNL     1       3.143   2.071  19.523  0.00  0.00    +0.000 C 
ATOM     25  C   UNL     1       2.912   2.671  20.909  0.00  0.00    +0.000 C 
ATOM     26  C   UNL     1       1.427   2.878  21.210  0.00  0.00    +0.000 C 
ATOM     27  C   UNL     1       0.694   3.628  20.099  0.00  0.00    +0.000 C 
ATOM     28  C   UNL     1       0.955   3.009  18.725  0.00  0.00    +0.000 C 
ENDBRANCH  21  23
ENDBRANCH  18  19
ENDBRANCH   3  18
TORSDOF 7
ENDMDL
