MODEL 1
REMARK VINA RESULT:      -7.3      0.000      0.000
REMARK  Name = 
REMARK  13 active torsions:
REMARK  status: ('A' for Active; 'I' for Inactive)
REMARK    1  A    between atoms: C_1  and  C_2
REMARK    2  A    between atoms: C_2  and  C_3
REMARK    3  A    between atoms: C_3  and  C_4
REMARK    4  A    between atoms: C_9  and  C_10
REMARK    5  A    between atoms: C_13  and  O_14
REMARK    6  A    between atoms: O_14  and  C_15
REMARK    7  A    between atoms: C_17  and  O_18
REMARK    8  A    between atoms: O_18  and  C_19
REMARK    9  A    between atoms: C_21  and  C_22
REMARK   10  A    between atoms: C_25  and  O_26
REMARK   11  A    between atoms: O_26  and  C_27
REMARK   12  A    between atoms: C_29  and  O_30
REMARK   13  A    between atoms: O_30  and  C_31
REMARK                            x       y       z     vdW  Elec       q    Type
REMARK                         _______ _______ _______ _____ _____    ______ ____
ROOT
ATOM      1  C   UNL     1       1.412  14.856  19.718  0.00  0.00    +0.000 C 
ATOM      2  O   UNL     1       0.476  14.929  20.507  0.00  0.00    +0.000 OA
ATOM      3  N   UNL     1       1.689  13.775  18.913  0.00  0.00    +0.000 N 
ATOM      4  C   UNL     1       0.873  12.650  18.835  0.00  0.00    +0.000 A 
ATOM      5  C   UNL     1      -0.503  12.750  18.797  0.00  0.00    +0.000 A 
ATOM      6  C   UNL     1      -1.203  11.575  18.602  0.00  0.00    +0.000 A 
ATOM      7  N   UNL     1      -0.569  10.394  18.612  0.00  0.00    +0.000 NA
ATOM      8  C   UNL     1       0.774  10.390  18.742  0.00  0.00    +0.000 A 
ATOM      9  N   UNL     1       1.528  11.493  18.737  0.00  0.00    +0.000 NA
ATOM     10  H   UNL     1       2.652  13.591  18.664  0.00  0.00    +0.000 HD
ENDROOT
BRANCH   6  11
ATOM     11  C   UNL     1      -2.634  11.558  18.221  0.00  0.00    +0.000 A 
ATOM     12  C   UNL     1      -3.550  12.107  19.154  0.00  0.00    +0.000 A 
ATOM     13  C   UNL     1      -4.911  12.252  18.877  0.00  0.00    +0.000 A 
ATOM     14  C   UNL     1      -5.421  11.852  17.652  0.00  0.00    +0.000 A 
ATOM     15  C   UNL     1      -4.550  11.306  16.711  0.00  0.00    +0.000 A 
ATOM     16  C   UNL     1      -3.169  11.157  16.977  0.00  0.00    +0.000 A 
BRANCH  14  17
ATOM     17  O   UNL     1      -6.757  12.081  17.494  0.00  0.00    +0.000 OA
ATOM     18  C   UNL     1      -7.469  12.560  18.626  0.00  0.00    +0.000 C 
ENDBRANCH  14  17
BRANCH  16  19
ATOM     19  O   UNL     1      -2.483  10.723  15.870  0.00  0.00    +0.000 OA
ATOM     20  C   UNL     1      -3.243  10.398  14.713  0.00  0.00    +0.000 C 
ENDBRANCH  16  19
ENDBRANCH   6  11
BRANCH   8  21
ATOM     21  C   UNL     1       1.406   9.079  18.951  0.00  0.00    +0.000 A 
ATOM     22  C   UNL     1       1.999   8.458  17.829  0.00  0.00    +0.000 A 
ATOM     23  C   UNL     1       2.654   7.231  17.912  0.00  0.00    +0.000 A 
ATOM     24  C   UNL     1       2.735   6.562  19.129  0.00  0.00    +0.000 A 
ATOM     25  C   UNL     1       2.141   7.137  20.252  0.00  0.00    +0.000 A 
ATOM     26  C   UNL     1       1.475   8.381  20.180  0.00  0.00    +0.000 A 
BRANCH  24  27
ATOM     27  O   UNL     1       3.426   5.387  19.074  0.00  0.00    +0.000 OA
ATOM     28  C   UNL     1       4.821   5.444  19.333  0.00  0.00    +0.000 C 
ENDBRANCH  24  27
BRANCH  26  29
ATOM     29  O   UNL     1       1.050   8.850  21.401  0.00  0.00    +0.000 OA
ATOM     30  C   UNL     1      -0.310   8.583  21.731  0.00  0.00    +0.000 C 
ENDBRANCH  26  29
ENDBRANCH   8  21
BRANCH   1  31
ATOM     31  C   UNL     1       2.385  15.998  19.532  0.00  0.00    +0.000 C 
BRANCH  31  33
ATOM     32  C   UNL     1       0.950  17.405  18.008  0.00  0.00    +0.000 C 
ATOM     33  C   UNL     1       1.606  17.300  19.370  0.00  0.00    +0.000 C 
ENDBRANCH  31  33
ENDBRANCH   1  31
TORSDOF 8
ENDMDL
MODEL 2
REMARK VINA RESULT:      -7.2      1.068      7.303
REMARK  Name = 
REMARK  13 active torsions:
REMARK  status: ('A' for Active; 'I' for Inactive)
REMARK    1  A    between atoms: C_1  and  C_2
REMARK    2  A    between atoms: C_2  and  C_3
REMARK    3  A    between atoms: C_3  and  C_4
REMARK    4  A    between atoms: C_9  and  C_10
REMARK    5  A    between atoms: C_13  and  O_14
REMARK    6  A    between atoms: O_14  and  C_15
REMARK    7  A    between atoms: C_17  and  O_18
REMARK    8  A    between atoms: O_18  and  C_19
REMARK    9  A    between atoms: C_21  and  C_22
REMARK   10  A    between atoms: C_25  and  O_26
REMARK   11  A    between atoms: O_26  and  C_27
REMARK   12  A    between atoms: C_29  and  O_30
REMARK   13  A    between atoms: O_30  and  C_31
REMARK                            x       y       z     vdW  Elec       q    Type
REMARK                         _______ _______ _______ _____ _____    ______ ____
ROOT
ATOM      1  C   UNL     1       2.357  14.516  18.719  0.00  0.00    +0.000 C 
ATOM      2  O   UNL     1       2.971  13.930  17.833  0.00  0.00    +0.000 OA
ATOM      3  N   UNL     1       1.200  14.067  19.313  0.00  0.00    +0.000 N 
ATOM      4  C   UNL     1       0.628  12.830  19.035  0.00  0.00    +0.000 A 
ATOM      5  C   UNL     1       1.392  11.689  18.891  0.00  0.00    +0.000 A 
ATOM      6  C   UNL     1       0.705  10.501  18.733  0.00  0.00    +0.000 A 
ATOM      7  N   UNL     1      -0.625  10.498  18.571  0.00  0.00    +0.000 NA
ATOM      8  C   UNL     1      -1.280  11.676  18.642  0.00  0.00    +0.000 A 
ATOM      9  N   UNL     1      -0.705  12.832  18.986  0.00  0.00    +0.000 NA
ATOM     10  H   UNL     1       0.537  14.749  19.658  0.00  0.00    +0.000 HD
ENDROOT
BRANCH   6  11
ATOM     11  C   UNL     1       1.359   9.181  18.888  0.00  0.00    +0.000 A 
ATOM     12  C   UNL     1       2.228   8.772  17.845  0.00  0.00    +0.000 A 
ATOM     13  C   UNL     1       2.990   7.604  17.914  0.00  0.00    +0.000 A 
ATOM     14  C   UNL     1       2.915   6.786  19.031  0.00  0.00    +0.000 A 
ATOM     15  C   UNL     1       2.069   7.155  20.074  0.00  0.00    +0.000 A 
ATOM     16  C   UNL     1       1.295   8.338  20.019  0.00  0.00    +0.000 A 
BRANCH  14  17
ATOM     17  O   UNL     1       3.735   5.696  18.989  0.00  0.00    +0.000 OA
ATOM     18  C   UNL     1       4.714   5.663  17.960  0.00  0.00    +0.000 C 
ENDBRANCH  14  17
BRANCH  16  19
ATOM     19  O   UNL     1       0.640   8.572  21.203  0.00  0.00    +0.000 OA
ATOM     20  C   UNL     1       1.347   9.276  22.216  0.00  0.00    +0.000 C 
ENDBRANCH  16  19
ENDBRANCH   6  11
BRANCH   8  21
ATOM     21  C   UNL     1      -2.700  11.657  18.260  0.00  0.00    +0.000 A 
ATOM     22  C   UNL     1      -3.646  11.964  19.264  0.00  0.00    +0.000 A 
ATOM     23  C   UNL     1      -5.016  12.008  19.012  0.00  0.00    +0.000 A 
ATOM     24  C   UNL     1      -5.503  11.734  17.739  0.00  0.00    +0.000 A 
ATOM     25  C   UNL     1      -4.597  11.405  16.730  0.00  0.00    +0.000 A 
ATOM     26  C   UNL     1      -3.206  11.359  16.973  0.00  0.00    +0.000 A 
BRANCH  24  27
ATOM     27  O   UNL     1      -6.858  11.839  17.626  0.00  0.00    +0.000 OA
ATOM     28  C   UNL     1      -7.460  13.019  18.139  0.00  0.00    +0.000 C 
ENDBRANCH  24  27
BRANCH  26  29
ATOM     29  O   UNL     1      -2.457  11.131  15.843  0.00  0.00    +0.000 OA
ATOM     30  C   UNL     1      -3.003  10.200  14.911  0.00  0.00    +0.000 C 
ENDBRANCH  26  29
ENDBRANCH   8  21
BRANCH   1  31
ATOM     31  C   UNL     1       2.838  15.835  19.278  0.00  0.00    +0.000 C 
BRANCH  31  33
ATOM     32  C   UNL     1       1.405  17.812  19.912  0.00  0.00    +0.000 C 
ATOM     33  C   UNL     1       1.791  16.383  20.242  0.00  0.00    +0.000 C 
ENDBRANCH  31  33
ENDBRANCH   1  31
TORSDOF 8
ENDMDL
MODEL 3
REMARK VINA RESULT:      -6.9      1.411      1.722
REMARK  Name = 
REMARK  13 active torsions:
REMARK  status: ('A' for Active; 'I' for Inactive)
REMARK    1  A    between atoms: C_1  and  C_2
REMARK    2  A    between atoms: C_2  and  C_3
REMARK    3  A    between atoms: C_3  and  C_4
REMARK    4  A    between atoms: C_9  and  C_10
REMARK    5  A    between atoms: C_13  and  O_14
REMARK    6  A    between atoms: O_14  and  C_15
REMARK    7  A    between atoms: C_17  and  O_18
REMARK    8  A    between atoms: O_18  and  C_19
REMARK    9  A    between atoms: C_21  and  C_22
REMARK   10  A    between atoms: C_25  and  O_26
REMARK   11  A    between atoms: O_26  and  C_27
REMARK   12  A    between atoms: C_29  and  O_30
REMARK   13  A    between atoms: O_30  and  C_31
REMARK                            x       y       z     vdW  Elec       q    Type
REMARK                         _______ _______ _______ _____ _____    ______ ____
ROOT
ATOM      1  C   UNL     1       2.589  14.501  18.344  0.00  0.00    +0.000 C 
ATOM      2  O   UNL     1       1.973  14.892  19.329  0.00  0.00    +0.000 OA
ATOM      3  N   UNL     1       2.458  13.258  17.769  0.00  0.00    +0.000 N 
ATOM      4  C   UNL     1       1.531  12.312  18.193  0.00  0.00    +0.000 A 
ATOM      5  C   UNL     1       0.237  12.660  18.530  0.00  0.00    +0.000 A 
ATOM      6  C   UNL     1      -0.625  11.622  18.825  0.00  0.00    +0.000 A 
ATOM      7  N   UNL     1      -0.171  10.365  18.927  0.00  0.00    +0.000 NA
ATOM      8  C   UNL     1       1.132  10.133  18.662  0.00  0.00    +0.000 A 
ATOM      9  N   UNL     1       1.973  11.054  18.184  0.00  0.00    +0.000 NA
ATOM     10  H   UNL     1       3.260  12.854  17.303  0.00  0.00    +0.000 HD
ENDROOT
BRANCH   6  11
ATOM     11  C   UNL     1      -2.094  11.805  18.887  0.00  0.00    +0.000 A 
ATOM     12  C   UNL     1      -2.618  12.365  20.079  0.00  0.00    +0.000 A 
ATOM     13  C   UNL     1      -3.967  12.690  20.228  0.00  0.00    +0.000 A 
ATOM     14  C   UNL     1      -4.859  12.468  19.190  0.00  0.00    +0.000 A 
ATOM     15  C   UNL     1      -4.379  11.916  18.004  0.00  0.00    +0.000 A 
ATOM     16  C   UNL     1      -3.014  11.586  17.838  0.00  0.00    +0.000 A 
BRANCH  14  17
ATOM     17  O   UNL     1      -6.139  12.862  19.450  0.00  0.00    +0.000 OA
ATOM     18  C   UNL     1      -7.068  11.848  19.806  0.00  0.00    +0.000 C 
ENDBRANCH  14  17
BRANCH  16  19
ATOM     19  O   UNL     1      -2.742  11.183  16.554  0.00  0.00    +0.000 OA
ATOM     20  C   UNL     1      -2.539   9.793  16.333  0.00  0.00    +0.000 C 
ENDBRANCH  16  19
ENDBRANCH   6  11
BRANCH   8  21
ATOM     21  C   UNL     1       1.633   8.787  18.980  0.00  0.00    +0.000 A 
ATOM     22  C   UNL     1       2.216   8.047  17.927  0.00  0.00    +0.000 A 
ATOM     23  C   UNL     1       2.753   6.774  18.116  0.00  0.00    +0.000 A 
ATOM     24  C   UNL     1       2.720   6.180  19.373  0.00  0.00    +0.000 A 
ATOM     25  C   UNL     1       2.131   6.876  20.429  0.00  0.00    +0.000 A 
ATOM     26  C   UNL     1       1.585   8.166  20.250  0.00  0.00    +0.000 A 
BRANCH  24  27
ATOM     27  O   UNL     1       3.302   4.948  19.422  0.00  0.00    +0.000 OA
ATOM     28  C   UNL     1       2.778   4.022  20.364  0.00  0.00    +0.000 C 
ENDBRANCH  24  27
BRANCH  26  29
ATOM     29  O   UNL     1       1.150   8.747  21.418  0.00  0.00    +0.000 OA
ATOM     30  C   UNL     1      -0.219   8.532  21.749  0.00  0.00    +0.000 C 
ENDBRANCH  26  29
ENDBRANCH   8  21
BRANCH   1  31
ATOM     31  C   UNL     1       3.582  15.385  17.626  0.00  0.00    +0.000 C 
BRANCH  31  33
ATOM     32  C   UNL     1       5.580  15.502  19.161  0.00  0.00    +0.000 C 
ATOM     33  C   UNL     1       4.995  14.884  17.906  0.00  0.00    +0.000 C 
ENDBRANCH  31  33
ENDBRANCH   1  31
TORSDOF 8
ENDMDL
MODEL 4
REMARK VINA RESULT:      -6.9      1.664      2.465
REMARK  Name = 
REMARK  13 active torsions:
REMARK  status: ('A' for Active; 'I' for Inactive)
REMARK    1  A    between atoms: C_1  and  C_2
REMARK    2  A    between atoms: C_2  and  C_3
REMARK    3  A    between atoms: C_3  and  C_4
REMARK    4  A    between atoms: C_9  and  C_10
REMARK    5  A    between atoms: C_13  and  O_14
REMARK    6  A    between atoms: O_14  and  C_15
REMARK    7  A    between atoms: C_17  and  O_18
REMARK    8  A    between atoms: O_18  and  C_19
REMARK    9  A    between atoms: C_21  and  C_22
REMARK   10  A    between atoms: C_25  and  O_26
REMARK   11  A    between atoms: O_26  and  C_27
REMARK   12  A    between atoms: C_29  and  O_30
REMARK   13  A    between atoms: O_30  and  C_31
REMARK                            x       y       z     vdW  Elec       q    Type
REMARK                         _______ _______ _______ _____ _____    ______ ____
ROOT
ATOM      1  C   UNL     1       2.745  14.508  18.604  0.00  0.00    +0.000 C 
ATOM      2  O   UNL     1       2.006  14.841  19.523  0.00  0.00    +0.000 OA
ATOM      3  N   UNL     1       2.711  13.294  17.957  0.00  0.00    +0.000 N 
ATOM      4  C   UNL     1       1.756  12.316  18.217  0.00  0.00    +0.000 A 
ATOM      5  C   UNL     1       0.425  12.629  18.408  0.00  0.00    +0.000 A 
ATOM      6  C   UNL     1      -0.447  11.566  18.543  0.00  0.00    +0.000 A 
ATOM      7  N   UNL     1       0.016  10.312  18.639  0.00  0.00    +0.000 NA
ATOM      8  C   UNL     1       1.346  10.111  18.526  0.00  0.00    +0.000 A 
ATOM      9  N   UNL     1       2.221  11.066  18.201  0.00  0.00    +0.000 NA
ATOM     10  H   UNL     1       3.571  12.925  17.574  0.00  0.00    +0.000 HD
ENDROOT
BRANCH   6  11
ATOM     11  C   UNL     1      -1.915  11.726  18.432  0.00  0.00    +0.000 A 
ATOM     12  C   UNL     1      -2.518  11.276  17.231  0.00  0.00    +0.000 A 
ATOM     13  C   UNL     1      -3.901  11.267  17.039  0.00  0.00    +0.000 A 
ATOM     14  C   UNL     1      -4.748  11.713  18.042  0.00  0.00    +0.000 A 
ATOM     15  C   UNL     1      -4.190  12.165  19.235  0.00  0.00    +0.000 A 
ATOM     16  C   UNL     1      -2.792  12.175  19.445  0.00  0.00    +0.000 A 
BRANCH  14  17
ATOM     17  O   UNL     1      -6.076  11.619  17.742  0.00  0.00    +0.000 OA
ATOM     18  C   UNL     1      -6.860  10.751  18.547  0.00  0.00    +0.000 C 
ENDBRANCH  14  17
BRANCH  16  19
ATOM     19  O   UNL     1      -2.473  12.533  20.731  0.00  0.00    +0.000 OA
ATOM     20  C   UNL     1      -2.341  13.921  21.011  0.00  0.00    +0.000 C 
ENDBRANCH  16  19
ENDBRANCH   6  11
BRANCH   8  21
ATOM     21  C   UNL     1       1.829   8.757  18.837  0.00  0.00    +0.000 A 
ATOM     22  C   UNL     1       2.681   8.140  17.894  0.00  0.00    +0.000 A 
ATOM     23  C   UNL     1       3.227   6.873  18.095  0.00  0.00    +0.000 A 
ATOM     24  C   UNL     1       2.932   6.160  19.252  0.00  0.00    +0.000 A 
ATOM     25  C   UNL     1       2.076   6.732  20.194  0.00  0.00    +0.000 A 
ATOM     26  C   UNL     1       1.519   8.016  20.001  0.00  0.00    +0.000 A 
BRANCH  24  27
ATOM     27  O   UNL     1       3.553   4.948  19.333  0.00  0.00    +0.000 OA
ATOM     28  C   UNL     1       3.243   3.996  18.325  0.00  0.00    +0.000 C 
ENDBRANCH  24  27
BRANCH  26  29
ATOM     29  O   UNL     1       0.793   8.468  21.078  0.00  0.00    +0.000 OA
ATOM     30  C   UNL     1       1.536   9.132  22.096  0.00  0.00    +0.000 C 
ENDBRANCH  26  29
ENDBRANCH   8  21
BRANCH   1  31
ATOM     31  C   UNL     1       3.801  15.441  18.057  0.00  0.00    +0.000 C 
BRANCH  31  33
ATOM     32  C   UNL     1       6.309  15.459  18.326  0.00  0.00    +0.000 C 
ATOM     33  C   UNL     1       5.102  14.668  17.862  0.00  0.00    +0.000 C 
ENDBRANCH  31  33
ENDBRANCH   1  31
TORSDOF 8
ENDMDL
MODEL 5
REMARK VINA RESULT:      -6.9      1.413      2.195
REMARK  Name = 
REMARK  13 active torsions:
REMARK  status: ('A' for Active; 'I' for Inactive)
REMARK    1  A    between atoms: C_1  and  C_2
REMARK    2  A    between atoms: C_2  and  C_3
REMARK    3  A    between atoms: C_3  and  C_4
REMARK    4  A    between atoms: C_9  and  C_10
REMARK    5  A    between atoms: C_13  and  O_14
REMARK    6  A    between atoms: O_14  and  C_15
REMARK    7  A    between atoms: C_17  and  O_18
REMARK    8  A    between atoms: O_18  and  C_19
REMARK    9  A    between atoms: C_21  and  C_22
REMARK   10  A    between atoms: C_25  and  O_26
REMARK   11  A    between atoms: O_26  and  C_27
REMARK   12  A    between atoms: C_29  and  O_30
REMARK   13  A    between atoms: O_30  and  C_31
REMARK                            x       y       z     vdW  Elec       q    Type
REMARK                         _______ _______ _______ _____ _____    ______ ____
ROOT
ATOM      1  C   UNL     1       2.236  15.019  19.405  0.00  0.00    +0.000 C 
ATOM      2  O   UNL     1       1.528  15.216  20.387  0.00  0.00    +0.000 OA
ATOM      3  N   UNL     1       2.209  13.889  18.621  0.00  0.00    +0.000 N 
ATOM      4  C   UNL     1       1.298  12.854  18.802  0.00  0.00    +0.000 A 
ATOM      5  C   UNL     1      -0.033  13.096  19.083  0.00  0.00    +0.000 A 
ATOM      6  C   UNL     1      -0.865  11.994  19.126  0.00  0.00    +0.000 A 
ATOM      7  N   UNL     1      -0.361  10.754  19.054  0.00  0.00    +0.000 NA
ATOM      8  C   UNL     1       0.968  10.614  18.864  0.00  0.00    +0.000 A 
ATOM      9  N   UNL     1       1.799  11.632  18.619  0.00  0.00    +0.000 NA
ATOM     10  H   UNL     1       3.063  13.598  18.163  0.00  0.00    +0.000 HD
ENDROOT
BRANCH   6  11
ATOM     11  C   UNL     1      -2.341  12.114  19.095  0.00  0.00    +0.000 A 
ATOM     12  C   UNL     1      -3.011  11.473  18.022  0.00  0.00    +0.000 A 
ATOM     13  C   UNL     1      -4.403  11.415  17.930  0.00  0.00    +0.000 A 
ATOM     14  C   UNL     1      -5.192  11.999  18.909  0.00  0.00    +0.000 A 
ATOM     15  C   UNL     1      -4.568  12.639  19.977  0.00  0.00    +0.000 A 
ATOM     16  C   UNL     1      -3.159  12.701  20.085  0.00  0.00    +0.000 A 
BRANCH  14  17
ATOM     17  O   UNL     1      -6.535  11.841  18.721  0.00  0.00    +0.000 OA
ATOM     18  C   UNL     1      -7.115  10.633  19.190  0.00  0.00    +0.000 C 
ENDBRANCH  14  17
BRANCH  16  19
ATOM     19  O   UNL     1      -2.765  13.260  21.275  0.00  0.00    +0.000 OA
ATOM     20  C   UNL     1      -2.511  12.378  22.361  0.00  0.00    +0.000 C 
ENDBRANCH  16  19
ENDBRANCH   6  11
BRANCH   8  21
ATOM     21  C   UNL     1       1.506   9.252  18.993  0.00  0.00    +0.000 A 
ATOM     22  C   UNL     1       2.078   8.669  17.840  0.00  0.00    +0.000 A 
ATOM     23  C   UNL     1       2.647   7.396  17.849  0.00  0.00    +0.000 A 
ATOM     24  C   UNL     1       2.660   6.644  19.019  0.00  0.00    +0.000 A 
ATOM     25  C   UNL     1       2.084   7.182  20.170  0.00  0.00    +0.000 A 
ATOM     26  C   UNL     1       1.505   8.471  20.173  0.00  0.00    +0.000 A 
BRANCH  24  27
ATOM     27  O   UNL     1       3.270   5.431  18.895  0.00  0.00    +0.000 OA
ATOM     28  C   UNL     1       4.628   5.345  19.305  0.00  0.00    +0.000 C 
ENDBRANCH  24  27
BRANCH  26  29
ATOM     29  O   UNL     1       1.088   8.885  21.416  0.00  0.00    +0.000 OA
ATOM     30  C   UNL     1      -0.246   8.535  21.774  0.00  0.00    +0.000 C 
ENDBRANCH  26  29
ENDBRANCH   8  21
BRANCH   1  31
ATOM     31  C   UNL     1       3.238  16.047  18.931  0.00  0.00    +0.000 C 
BRANCH  31  33
ATOM     32  C   UNL     1       2.655  17.196  16.762  0.00  0.00    +0.000 C 
ATOM     33  C   UNL     1       3.324  15.998  17.408  0.00  0.00    +0.000 C 
ENDBRANCH  31  33
ENDBRANCH   1  31
TORSDOF 8
ENDMDL
MODEL 6
REMARK VINA RESULT:      -6.8      1.454      7.104
REMARK  Name = 
REMARK  13 active torsions:
REMARK  status: ('A' for Active; 'I' for Inactive)
REMARK    1  A    between atoms: C_1  and  C_2
REMARK    2  A    between atoms: C_2  and  C_3
REMARK    3  A    between atoms: C_3  and  C_4
REMARK    4  A    between atoms: C_9  and  C_10
REMARK    5  A    between atoms: C_13  and  O_14
REMARK    6  A    between atoms: O_14  and  C_15
REMARK    7  A    between atoms: C_17  and  O_18
REMARK    8  A    between atoms: O_18  and  C_19
REMARK    9  A    between atoms: C_21  and  C_22
REMARK   10  A    between atoms: C_25  and  O_26
REMARK   11  A    between atoms: O_26  and  C_27
REMARK   12  A    between atoms: C_29  and  O_30
REMARK   13  A    between atoms: O_30  and  C_31
REMARK                            x       y       z     vdW  Elec       q    Type
REMARK                         _______ _______ _______ _____ _____    ______ ____
ROOT
ATOM      1  C   UNL     1       2.450  14.630  18.760  0.00  0.00    +0.000 C 
ATOM      2  O   UNL     1       2.939  14.012  17.820  0.00  0.00    +0.000 OA
ATOM      3  N   UNL     1       1.343  14.238  19.477  0.00  0.00    +0.000 N 
ATOM      4  C   UNL     1       0.689  13.027  19.273  0.00  0.00    +0.000 A 
ATOM      5  C   UNL     1       1.382  11.851  19.060  0.00  0.00    +0.000 A 
ATOM      6  C   UNL     1       0.629  10.695  18.986  0.00  0.00    +0.000 A 
ATOM      7  N   UNL     1      -0.710  10.753  18.966  0.00  0.00    +0.000 NA
ATOM      8  C   UNL     1      -1.300  11.960  19.094  0.00  0.00    +0.000 A 
ATOM      9  N   UNL     1      -0.640  13.090  19.364  0.00  0.00    +0.000 NA
ATOM     10  H   UNL     1       0.752  14.951  19.883  0.00  0.00    +0.000 HD
ENDROOT
BRANCH   6  11
ATOM     11  C   UNL     1       1.234   9.347  19.084  0.00  0.00    +0.000 A 
ATOM     12  C   UNL     1       1.831   8.828  17.908  0.00  0.00    +0.000 A 
ATOM     13  C   UNL     1       2.531   7.620  17.888  0.00  0.00    +0.000 A 
ATOM     14  C   UNL     1       2.664   6.871  19.046  0.00  0.00    +0.000 A 
ATOM     15  C   UNL     1       2.088   7.349  20.221  0.00  0.00    +0.000 A 
ATOM     16  C   UNL     1       1.381   8.574  20.257  0.00  0.00    +0.000 A 
BRANCH  14  17
ATOM     17  O   UNL     1       3.400   5.731  18.901  0.00  0.00    +0.000 OA
ATOM     18  C   UNL     1       4.045   5.533  17.651  0.00  0.00    +0.000 C 
ENDBRANCH  14  17
BRANCH  16  19
ATOM     19  O   UNL     1       1.015   8.912  21.536  0.00  0.00    +0.000 OA
ATOM     20  C   UNL     1      -0.353   8.753  21.890  0.00  0.00    +0.000 C 
ENDBRANCH  16  19
ENDBRANCH   6  11
BRANCH   8  21
ATOM     21  C   UNL     1      -2.752  12.005  18.865  0.00  0.00    +0.000 A 
ATOM     22  C   UNL     1      -3.226  11.544  17.616  0.00  0.00    +0.000 A 
ATOM     23  C   UNL     1      -4.583  11.509  17.298  0.00  0.00    +0.000 A 
ATOM     24  C   UNL     1      -5.529  11.947  18.219  0.00  0.00    +0.000 A 
ATOM     25  C   UNL     1      -5.092  12.428  19.453  0.00  0.00    +0.000 A 
ATOM     26  C   UNL     1      -3.720  12.467  19.787  0.00  0.00    +0.000 A 
BRANCH  24  27
ATOM     27  O   UNL     1      -6.819  11.833  17.789  0.00  0.00    +0.000 OA
ATOM     28  C   UNL     1      -7.711  12.882  18.138  0.00  0.00    +0.000 C 
ENDBRANCH  24  27
BRANCH  26  29
ATOM     29  O   UNL     1      -3.480  12.863  21.082  0.00  0.00    +0.000 OA
ATOM     30  C   UNL     1      -4.607  12.860  21.954  0.00  0.00    +0.000 C 
ENDBRANCH  26  29
ENDBRANCH   8  21
BRANCH   1  31
ATOM     31  C   UNL     1       3.047  15.928  19.252  0.00  0.00    +0.000 C 
BRANCH  31  33
ATOM     32  C   UNL     1       1.710  17.412  17.712  0.00  0.00    +0.000 C 
ATOM     33  C   UNL     1       1.999  17.033  19.151  0.00  0.00    +0.000 C 
ENDBRANCH  31  33
ENDBRANCH   1  31
TORSDOF 8
ENDMDL
MODEL 7
REMARK VINA RESULT:      -6.7      1.618      7.728
REMARK  Name = 
REMARK  13 active torsions:
REMARK  status: ('A' for Active; 'I' for Inactive)
REMARK    1  A    between atoms: C_1  and  C_2
REMARK    2  A    between atoms: C_2  and  C_3
REMARK    3  A    between atoms: C_3  and  C_4
REMARK    4  A    between atoms: C_9  and  C_10
REMARK    5  A    between atoms: C_13  and  O_14
REMARK    6  A    between atoms: O_14  and  C_15
REMARK    7  A    between atoms: C_17  and  O_18
REMARK    8  A    between atoms: O_18  and  C_19
REMARK    9  A    between atoms: C_21  and  C_22
REMARK   10  A    between atoms: C_25  and  O_26
REMARK   11  A    between atoms: O_26  and  C_27
REMARK   12  A    between atoms: C_29  and  O_30
REMARK   13  A    between atoms: O_30  and  C_31
REMARK                            x       y       z     vdW  Elec       q    Type
REMARK                         _______ _______ _______ _____ _____    ______ ____
ROOT
ATOM      1  C   UNL     1      -3.609  11.291  17.578  0.00  0.00    +0.000 C 
ATOM      2  O   UNL     1      -3.727  10.414  18.426  0.00  0.00    +0.000 OA
ATOM      3  N   UNL     1      -2.476  12.042  17.364  0.00  0.00    +0.000 N 
ATOM      4  C   UNL     1      -1.278  11.829  18.040  0.00  0.00    +0.000 A 
ATOM      5  C   UNL     1      -0.796  10.559  18.285  0.00  0.00    +0.000 A 
ATOM      6  C   UNL     1       0.457  10.474  18.860  0.00  0.00    +0.000 A 
ATOM      7  N   UNL     1       1.085  11.576  19.295  0.00  0.00    +0.000 NA
ATOM      8  C   UNL     1       0.494  12.771  19.089  0.00  0.00    +0.000 A 
ATOM      9  N   UNL     1      -0.619  12.941  18.368  0.00  0.00    +0.000 NA
ATOM     10  H   UNL     1      -2.579  12.986  17.016  0.00  0.00    +0.000 HD
ENDROOT
BRANCH   6  11
ATOM     11  C   UNL     1       1.234   9.213  18.887  0.00  0.00    +0.000 A 
ATOM     12  C   UNL     1       2.079   8.960  17.776  0.00  0.00    +0.000 A 
ATOM     13  C   UNL     1       2.945   7.866  17.723  0.00  0.00    +0.000 A 
ATOM     14  C   UNL     1       3.005   6.970  18.779  0.00  0.00    +0.000 A 
ATOM     15  C   UNL     1       2.187   7.187  19.886  0.00  0.00    +0.000 A 
ATOM     16  C   UNL     1       1.309   8.293  19.956  0.00  0.00    +0.000 A 
BRANCH  14  17
ATOM     17  O   UNL     1       3.916   5.967  18.618  0.00  0.00    +0.000 OA
ATOM     18  C   UNL     1       3.919   4.935  19.595  0.00  0.00    +0.000 C 
ENDBRANCH  14  17
BRANCH  16  19
ATOM     19  O   UNL     1       0.700   8.382  21.183  0.00  0.00    +0.000 OA
ATOM     20  C   UNL     1       1.357   9.147  22.186  0.00  0.00    +0.000 C 
ENDBRANCH  16  19
ENDBRANCH   6  11
BRANCH   8  21
ATOM     21  C   UNL     1       1.111  13.928  19.754  0.00  0.00    +0.000 A 
ATOM     22  C   UNL     1       1.736  14.893  18.933  0.00  0.00    +0.000 A 
ATOM     23  C   UNL     1       2.325  16.046  19.449  0.00  0.00    +0.000 A 
ATOM     24  C   UNL     1       2.324  16.279  20.820  0.00  0.00    +0.000 A 
ATOM     25  C   UNL     1       1.735  15.335  21.661  0.00  0.00    +0.000 A 
ATOM     26  C   UNL     1       1.133  14.164  21.150  0.00  0.00    +0.000 A 
BRANCH  24  27
ATOM     27  O   UNL     1       2.911  17.455  21.185  0.00  0.00    +0.000 OA
ATOM     28  C   UNL     1       4.189  17.738  20.634  0.00  0.00    +0.000 C 
ENDBRANCH  24  27
BRANCH  26  29
ATOM     29  O   UNL     1       0.504  13.405  22.108  0.00  0.00    +0.000 OA
ATOM     30  C   UNL     1      -0.822  13.804  22.447  0.00  0.00    +0.000 C 
ENDBRANCH  26  29
ENDBRANCH   8  21
BRANCH   1  31
ATOM     31  C   UNL     1      -4.737  11.640  16.635  0.00  0.00    +0.000 C 
BRANCH  31  33
ATOM     32  C   UNL     1      -6.878  11.675  17.970  0.00  0.00    +0.000 C 
ATOM     33  C   UNL     1      -5.758  12.503  17.370  0.00  0.00    +0.000 C 
ENDBRANCH  31  33
ENDBRANCH   1  31
TORSDOF 8
ENDMDL
MODEL 8
REMARK VINA RESULT:      -6.6      1.252      7.357
REMARK  Name = 
REMARK  13 active torsions:
REMARK  status: ('A' for Active; 'I' for Inactive)
REMARK    1  A    between atoms: C_1  and  C_2
REMARK    2  A    between atoms: C_2  and  C_3
REMARK    3  A    between atoms: C_3  and  C_4
REMARK    4  A    between atoms: C_9  and  C_10
REMARK    5  A    between atoms: C_13  and  O_14
REMARK    6  A    between atoms: O_14  and  C_15
REMARK    7  A    between atoms: C_17  and  O_18
REMARK    8  A    between atoms: O_18  and  C_19
REMARK    9  A    between atoms: C_21  and  C_22
REMARK   10  A    between atoms: C_25  and  O_26
REMARK   11  A    between atoms: O_26  and  C_27
REMARK   12  A    between atoms: C_29  and  O_30
REMARK   13  A    between atoms: O_30  and  C_31
REMARK                            x       y       z     vdW  Elec       q    Type
REMARK                         _______ _______ _______ _____ _____    ______ ____
ROOT
ATOM      1  C   UNL     1       1.982  14.690  19.615  0.00  0.00    +0.000 C 
ATOM      2  O   UNL     1       2.607  14.284  18.642  0.00  0.00    +0.000 OA
ATOM      3  N   UNL     1       0.857  14.097  20.140  0.00  0.00    +0.000 N 
ATOM      4  C   UNL     1       0.338  12.894  19.674  0.00  0.00    +0.000 A 
ATOM      5  C   UNL     1       1.152  11.829  19.341  0.00  0.00    +0.000 A 
ATOM      6  C   UNL     1       0.519  10.649  19.001  0.00  0.00    +0.000 A 
ATOM      7  N   UNL     1      -0.813  10.608  18.853  0.00  0.00    +0.000 NA
ATOM      8  C   UNL     1      -1.521  11.726  19.117  0.00  0.00    +0.000 A 
ATOM      9  N   UNL     1      -0.994  12.838  19.637  0.00  0.00    +0.000 NA
ATOM     10  H   UNL     1       0.169  14.682  20.596  0.00  0.00    +0.000 HD
ENDROOT
BRANCH   6  11
ATOM     11  C   UNL     1       1.235   9.355  18.936  0.00  0.00    +0.000 A 
ATOM     12  C   UNL     1       2.033   9.123  17.787  0.00  0.00    +0.000 A 
ATOM     13  C   UNL     1       2.844   7.995  17.648  0.00  0.00    +0.000 A 
ATOM     14  C   UNL     1       2.893   7.042  18.653  0.00  0.00    +0.000 A 
ATOM     15  C   UNL     1       2.120   7.236  19.796  0.00  0.00    +0.000 A 
ATOM     16  C   UNL     1       1.298   8.376  19.952  0.00  0.00    +0.000 A 
BRANCH  14  17
ATOM     17  O   UNL     1       3.750   6.008  18.410  0.00  0.00    +0.000 OA
ATOM     18  C   UNL     1       4.348   5.386  19.539  0.00  0.00    +0.000 C 
ENDBRANCH  14  17
BRANCH  16  19
ATOM     19  O   UNL     1       0.732   8.427  21.202  0.00  0.00    +0.000 OA
ATOM     20  C   UNL     1       1.402   9.194  22.194  0.00  0.00    +0.000 C 
ENDBRANCH  16  19
ENDBRANCH   6  11
BRANCH   8  21
ATOM     21  C   UNL     1      -2.944  11.699  18.751  0.00  0.00    +0.000 A 
ATOM     22  C   UNL     1      -3.841  12.414  19.578  0.00  0.00    +0.000 A 
ATOM     23  C   UNL     1      -5.207  12.486  19.312  0.00  0.00    +0.000 A 
ATOM     24  C   UNL     1      -5.741  11.833  18.205  0.00  0.00    +0.000 A 
ATOM     25  C   UNL     1      -4.886  11.100  17.382  0.00  0.00    +0.000 A 
ATOM     26  C   UNL     1      -3.500  11.021  17.640  0.00  0.00    +0.000 A 
BRANCH  24  27
ATOM     27  O   UNL     1      -7.084  12.009  18.050  0.00  0.00    +0.000 OA
ATOM     28  C   UNL     1      -7.553  13.346  17.944  0.00  0.00    +0.000 C 
ENDBRANCH  24  27
BRANCH  26  29
ATOM     29  O   UNL     1      -2.795  10.354  16.666  0.00  0.00    +0.000 OA
ATOM     30  C   UNL     1      -2.999  10.805  15.330  0.00  0.00    +0.000 C 
ENDBRANCH  26  29
ENDBRANCH   8  21
BRANCH   1  31
ATOM     31  C   UNL     1       2.410  15.925  20.374  0.00  0.00    +0.000 C 
BRANCH  31  33
ATOM     32  C   UNL     1       3.986  14.779  21.976  0.00  0.00    +0.000 C 
ATOM     33  C   UNL     1       2.689  15.550  21.826  0.00  0.00    +0.000 C 
ENDBRANCH  31  33
ENDBRANCH   1  31
TORSDOF 8
ENDMDL
MODEL 9
REMARK VINA RESULT:      -6.6      1.945      2.748
REMARK  Name = 
REMARK  13 active torsions:
REMARK  status: ('A' for Active; 'I' for Inactive)
REMARK    1  A    between atoms: C_1  and  C_2
REMARK    2  A    between atoms: C_2  and  C_3
REMARK    3  A    between atoms: C_3  and  C_4
REMARK    4  A    between atoms: C_9  and  C_10
REMARK    5  A    between atoms: C_13  and  O_14
REMARK    6  A    between atoms: O_14  and  C_15
REMARK    7  A    between atoms: C_17  and  O_18
REMARK    8  A    between atoms: O_18  and  C_19
REMARK    9  A    between atoms: C_21  and  C_22
REMARK   10  A    between atoms: C_25  and  O_26
REMARK   11  A    between atoms: O_26  and  C_27
REMARK   12  A    between atoms: C_29  and  O_30
REMARK   13  A    between atoms: O_30  and  C_31
REMARK                            x       y       z     vdW  Elec       q    Type
REMARK                         _______ _______ _______ _____ _____    ______ ____
ROOT
ATOM      1  C   UNL     1       3.132  14.457  18.411  0.00  0.00    +0.000 C 
ATOM      2  O   UNL     1       2.661  14.857  19.470  0.00  0.00    +0.000 OA
ATOM      3  N   UNL     1       2.830  13.256  17.811  0.00  0.00    +0.000 N 
ATOM      4  C   UNL     1       1.870  12.377  18.300  0.00  0.00    +0.000 A 
ATOM      5  C   UNL     1       0.656  12.821  18.787  0.00  0.00    +0.000 A 
ATOM      6  C   UNL     1      -0.262  11.850  19.136  0.00  0.00    +0.000 A 
ATOM      7  N   UNL     1       0.084  10.555  19.145  0.00  0.00    +0.000 NA
ATOM      8  C   UNL     1       1.326  10.222  18.734  0.00  0.00    +0.000 A 
ATOM      9  N   UNL     1       2.192  11.087  18.199  0.00  0.00    +0.000 NA
ATOM     10  H   UNL     1       3.539  12.805  17.247  0.00  0.00    +0.000 HD
ENDROOT
BRANCH   6  11
ATOM     11  C   UNL     1      -1.694  12.156  19.363  0.00  0.00    +0.000 A 
ATOM     12  C   UNL     1      -2.608  11.695  18.382  0.00  0.00    +0.000 A 
ATOM     13  C   UNL     1      -3.991  11.820  18.525  0.00  0.00    +0.000 A 
ATOM     14  C   UNL     1      -4.526  12.417  19.656  0.00  0.00    +0.000 A 
ATOM     15  C   UNL     1      -3.656  12.884  20.639  0.00  0.00    +0.000 A 
ATOM     16  C   UNL     1      -2.254  12.760  20.510  0.00  0.00    +0.000 A 
BRANCH  14  17
ATOM     17  O   UNL     1      -5.890  12.445  19.689  0.00  0.00    +0.000 OA
ATOM     18  C   UNL     1      -6.511  12.212  20.946  0.00  0.00    +0.000 C 
ENDBRANCH  14  17
BRANCH  16  19
ATOM     19  O   UNL     1      -1.601  13.165  21.648  0.00  0.00    +0.000 OA
ATOM     20  C   UNL     1      -1.427  12.204  22.681  0.00  0.00    +0.000 C 
ENDBRANCH  16  19
ENDBRANCH   6  11
BRANCH   8  21
ATOM     21  C   UNL     1       1.732   8.826  18.949  0.00  0.00    +0.000 A 
ATOM     22  C   UNL     1       2.318   8.145  17.858  0.00  0.00    +0.000 A 
ATOM     23  C   UNL     1       2.771   6.830  17.953  0.00  0.00    +0.000 A 
ATOM     24  C   UNL     1       2.647   6.131  19.150  0.00  0.00    +0.000 A 
ATOM     25  C   UNL     1       2.052   6.768  20.240  0.00  0.00    +0.000 A 
ATOM     26  C   UNL     1       1.590   8.100  20.155  0.00  0.00    +0.000 A 
BRANCH  24  27
ATOM     27  O   UNL     1       3.154   4.866  19.111  0.00  0.00    +0.000 OA
ATOM     28  C   UNL     1       3.102   4.112  20.314  0.00  0.00    +0.000 C 
ENDBRANCH  24  27
BRANCH  26  29
ATOM     29  O   UNL     1       1.138   8.603  21.353  0.00  0.00    +0.000 OA
ATOM     30  C   UNL     1      -0.226   8.332  21.666  0.00  0.00    +0.000 C 
ENDBRANCH  26  29
ENDBRANCH   8  21
BRANCH   1  31
ATOM     31  C   UNL     1       4.121  15.283  17.621  0.00  0.00    +0.000 C 
BRANCH  31  33
ATOM     32  C   UNL     1       5.541  16.914  18.919  0.00  0.00    +0.000 C 
ATOM     33  C   UNL     1       5.386  15.481  18.450  0.00  0.00    +0.000 C 
ENDBRANCH  31  33
ENDBRANCH   1  31
TORSDOF 8
ENDMDL
