MODEL 1
REMARK VINA RESULT:      -8.5      0.000      0.000
REMARK  Name = 
REMARK  9 active torsions:
REMARK  status: ('A' for Active; 'I' for Inactive)
REMARK    1  A    between atoms: C_1  and  N_2
REMARK    2  A    between atoms: C_3  and  C_5
REMARK    3  A    between atoms: C_10  and  N_11
REMARK    4  A    between atoms: N_11  and  C_12
REMARK    5  A    between atoms: C_15  and  N_16
REMARK    6  A    between atoms: N_16  and  S_17
REMARK    7  A    between atoms: S_17  and  C_18
REMARK    8  A    between atoms: C_22  and  O_23
REMARK    9  A    between atoms: O_23  and  C_24
REMARK                            x       y       z     vdW  Elec       q    Type
REMARK                         _______ _______ _______ _____ _____    ______ ____
ROOT
ATOM      1  C   UNL     1       5.480   5.224  16.055  0.00  0.00    +0.000 A 
ATOM      2  C   UNL     1       6.192   6.438  16.028  0.00  0.00    +0.000 A 
ATOM      3  C   UNL     1       5.916   7.447  16.940  0.00  0.00    +0.000 A 
ATOM      4  C   UNL     1       4.923   7.281  17.897  0.00  0.00    +0.000 A 
ATOM      5  C   UNL     1       4.132   6.107  17.933  0.00  0.00    +0.000 A 
ATOM      6  C   UNL     1       3.055   5.924  18.869  0.00  0.00    +0.000 A 
ATOM      7  C   UNL     1       2.381   4.663  18.879  0.00  0.00    +0.000 A 
ATOM      8  C   UNL     1       1.292   4.372  19.735  0.00  0.00    +0.000 A 
ATOM      9  C   UNL     1       0.659   3.121  19.683  0.00  0.00    +0.000 A 
ATOM     10  C   UNL     1       1.097   2.140  18.790  0.00  0.00    +0.000 A 
ATOM     11  C   UNL     1       2.159   2.410  17.933  0.00  0.00    +0.000 A 
ATOM     12  C   UNL     1       2.784   3.661  17.963  0.00  0.00    +0.000 A 
ATOM     13  N   UNL     1       3.777   3.898  17.086  0.00  0.00    +0.000 NA
ATOM     14  C   UNL     1       4.450   5.069  17.019  0.00  0.00    +0.000 A 
ENDROOT
BRANCH   1  17
ATOM     15  C   UNL     1       5.915   3.227  12.805  0.00  0.00    +0.000 C 
ATOM     16  N   UNL     1       5.599   4.280  13.746  0.00  0.00    +0.000 N 
ATOM     17  C   UNL     1       5.805   4.128  15.083  0.00  0.00    +0.000 C 
ATOM     18  O   UNL     1       6.286   3.081  15.497  0.00  0.00    +0.000 OA
ATOM     19  H   UNL     1       5.257   5.169  13.360  0.00  0.00    +0.000 HD
ENDBRANCH   1  17
BRANCH   6  20
ATOM     20  N   UNL     1       2.653   6.968  19.782  0.00  0.00    +0.000 N 
ATOM     21  H   UNL     1       2.882   6.860  20.781  0.00  0.00    +0.000 HD
BRANCH  20  22
ATOM     22  C   UNL     1       1.811   8.080  19.424  0.00  0.00    +0.000 A 
ATOM     23  C   UNL     1       1.660   8.450  18.069  0.00  0.00    +0.000 A 
ATOM     24  C   UNL     1       0.865   9.526  17.692  0.00  0.00    +0.000 A 
ATOM     25  C   UNL     1       0.162  10.246  18.654  0.00  0.00    +0.000 A 
ATOM     26  C   UNL     1       0.276   9.893  20.004  0.00  0.00    +0.000 A 
ATOM     27  C   UNL     1       1.103   8.817  20.411  0.00  0.00    +0.000 A 
BRANCH  25  28
ATOM     28  N   UNL     1      -0.712  11.291  18.261  0.00  0.00    +0.000 N 
ATOM     29  H   UNL     1      -0.287  12.043  17.703  0.00  0.00    +0.000 HD
BRANCH  28  30
ATOM     30  S   UNL     1      -2.325  10.906  17.685  0.00  0.00    +0.000 S 
ATOM     31  C   UNL     1      -2.649  11.154  15.914  0.00  0.00    +0.000 C 
ATOM     32  O   UNL     1      -2.647   9.500  18.215  0.00  0.00    +0.000 OA
ATOM     33  O   UNL     1      -3.236  11.788  18.552  0.00  0.00    +0.000 OA
ENDBRANCH  28  30
ENDBRANCH  25  28
BRANCH  27  34
ATOM     34  O   UNL     1       1.235   8.485  21.727  0.00  0.00    +0.000 OA
ATOM     35  C   UNL     1       0.809   9.253  22.799  0.00  0.00    +0.000 C 
ENDBRANCH  27  34
ENDBRANCH  20  22
ENDBRANCH   6  20
TORSDOF 6
ENDMDL
MODEL 2
REMARK VINA RESULT:      -8.5      3.423      9.130
REMARK  Name = 
REMARK  9 active torsions:
REMARK  status: ('A' for Active; 'I' for Inactive)
REMARK    1  A    between atoms: C_1  and  N_2
REMARK    2  A    between atoms: C_3  and  C_5
REMARK    3  A    between atoms: C_10  and  N_11
REMARK    4  A    between atoms: N_11  and  C_12
REMARK    5  A    between atoms: C_15  and  N_16
REMARK    6  A    between atoms: N_16  and  S_17
REMARK    7  A    between atoms: S_17  and  C_18
REMARK    8  A    between atoms: C_22  and  O_23
REMARK    9  A    between atoms: O_23  and  C_24
REMARK                            x       y       z     vdW  Elec       q    Type
REMARK                         _______ _______ _______ _____ _____    ______ ____
ROOT
ATOM      1  C   UNL     1      -3.931  11.051  17.631  0.00  0.00    +0.000 A 
ATOM      2  C   UNL     1      -3.532  10.295  16.511  0.00  0.00    +0.000 A 
ATOM      3  C   UNL     1      -2.218   9.874  16.367  0.00  0.00    +0.000 A 
ATOM      4  C   UNL     1      -1.264  10.197  17.323  0.00  0.00    +0.000 A 
ATOM      5  C   UNL     1      -1.591  11.008  18.436  0.00  0.00    +0.000 A 
ATOM      6  C   UNL     1      -0.618  11.414  19.415  0.00  0.00    +0.000 A 
ATOM      7  C   UNL     1      -1.075  12.156  20.549  0.00  0.00    +0.000 A 
ATOM      8  C   UNL     1      -0.212  12.633  21.564  0.00  0.00    +0.000 A 
ATOM      9  C   UNL     1      -0.719  13.372  22.643  0.00  0.00    +0.000 A 
ATOM     10  C   UNL     1      -2.086  13.645  22.736  0.00  0.00    +0.000 A 
ATOM     11  C   UNL     1      -2.950  13.194  21.743  0.00  0.00    +0.000 A 
ATOM     12  C   UNL     1      -2.451  12.473  20.653  0.00  0.00    +0.000 A 
ATOM     13  N   UNL     1      -3.314  12.096  19.692  0.00  0.00    +0.000 NA
ATOM     14  C   UNL     1      -2.946  11.400  18.592  0.00  0.00    +0.000 A 
ENDROOT
BRANCH   1  17
ATOM     15  C   UNL     1      -7.156  13.133  17.574  0.00  0.00    +0.000 C 
ATOM     16  N   UNL     1      -5.778  12.720  17.424  0.00  0.00    +0.000 N 
ATOM     17  C   UNL     1      -5.361  11.478  17.793  0.00  0.00    +0.000 C 
ATOM     18  O   UNL     1      -6.176  10.685  18.247  0.00  0.00    +0.000 OA
ATOM     19  H   UNL     1      -5.133  13.386  16.980  0.00  0.00    +0.000 HD
ENDBRANCH   1  17
BRANCH   6  20
ATOM     20  N   UNL     1       0.782  11.092  19.277  0.00  0.00    +0.000 N 
ATOM     21  H   UNL     1       1.448  11.861  19.111  0.00  0.00    +0.000 HD
BRANCH  20  22
ATOM     22  C   UNL     1       1.303   9.751  19.196  0.00  0.00    +0.000 A 
ATOM     23  C   UNL     1       1.846   9.272  17.983  0.00  0.00    +0.000 A 
ATOM     24  C   UNL     1       2.345   7.980  17.870  0.00  0.00    +0.000 A 
ATOM     25  C   UNL     1       2.355   7.134  18.975  0.00  0.00    +0.000 A 
ATOM     26  C   UNL     1       1.840   7.586  20.196  0.00  0.00    +0.000 A 
ATOM     27  C   UNL     1       1.302   8.890  20.326  0.00  0.00    +0.000 A 
BRANCH  25  28
ATOM     28  N   UNL     1       2.938   5.846  18.879  0.00  0.00    +0.000 N 
ATOM     29  H   UNL     1       3.756   5.680  19.481  0.00  0.00    +0.000 HD
BRANCH  28  30
ATOM     30  S   UNL     1       1.907   4.427  18.800  0.00  0.00    +0.000 S 
ATOM     31  C   UNL     1       0.859   4.090  20.246  0.00  0.00    +0.000 C 
ATOM     32  O   UNL     1       1.160   4.512  17.460  0.00  0.00    +0.000 OA
ATOM     33  O   UNL     1       2.894   3.279  18.542  0.00  0.00    +0.000 OA
ENDBRANCH  28  30
ENDBRANCH  25  28
BRANCH  27  34
ATOM     34  O   UNL     1       0.779   9.325  21.508  0.00  0.00    +0.000 OA
ATOM     35  C   UNL     1      -0.388   8.861  22.093  0.00  0.00    +0.000 C 
ENDBRANCH  27  34
ENDBRANCH  20  22
ENDBRANCH   6  20
TORSDOF 6
ENDMDL
MODEL 3
REMARK VINA RESULT:      -8.2      3.391      9.300
REMARK  Name = 
REMARK  9 active torsions:
REMARK  status: ('A' for Active; 'I' for Inactive)
REMARK    1  A    between atoms: C_1  and  N_2
REMARK    2  A    between atoms: C_3  and  C_5
REMARK    3  A    between atoms: C_10  and  N_11
REMARK    4  A    between atoms: N_11  and  C_12
REMARK    5  A    between atoms: C_15  and  N_16
REMARK    6  A    between atoms: N_16  and  S_17
REMARK    7  A    between atoms: S_17  and  C_18
REMARK    8  A    between atoms: C_22  and  O_23
REMARK    9  A    between atoms: O_23  and  C_24
REMARK                            x       y       z     vdW  Elec       q    Type
REMARK                         _______ _______ _______ _____ _____    ______ ____
ROOT
ATOM      1  C   UNL     1      -4.093  11.211  17.608  0.00  0.00    +0.000 A 
ATOM      2  C   UNL     1      -3.674  10.402  16.534  0.00  0.00    +0.000 A 
ATOM      3  C   UNL     1      -2.362   9.956  16.448  0.00  0.00    +0.000 A 
ATOM      4  C   UNL     1      -1.432  10.307  17.418  0.00  0.00    +0.000 A 
ATOM      5  C   UNL     1      -1.780  11.170  18.485  0.00  0.00    +0.000 A 
ATOM      6  C   UNL     1      -0.830  11.604  19.475  0.00  0.00    +0.000 A 
ATOM      7  C   UNL     1      -1.309  12.400  20.562  0.00  0.00    +0.000 A 
ATOM      8  C   UNL     1      -0.469  12.908  21.581  0.00  0.00    +0.000 A 
ATOM      9  C   UNL     1      -0.996  13.700  22.611  0.00  0.00    +0.000 A 
ATOM     10  C   UNL     1      -2.361  13.996  22.651  0.00  0.00    +0.000 A 
ATOM     11  C   UNL     1      -3.203  13.515  21.653  0.00  0.00    +0.000 A 
ATOM     12  C   UNL     1      -2.682  12.741  20.611  0.00  0.00    +0.000 A 
ATOM     13  N   UNL     1      -3.522  12.335  19.641  0.00  0.00    +0.000 NA
ATOM     14  C   UNL     1      -3.133  11.587  18.583  0.00  0.00    +0.000 A 
ENDROOT
BRANCH   1  17
ATOM     15  C   UNL     1      -7.254  13.388  17.526  0.00  0.00    +0.000 C 
ATOM     16  N   UNL     1      -5.879  12.949  17.435  0.00  0.00    +0.000 N 
ATOM     17  C   UNL     1      -5.521  11.664  17.708  0.00  0.00    +0.000 C 
ATOM     18  O   UNL     1      -6.386  10.857  18.022  0.00  0.00    +0.000 OA
ATOM     19  H   UNL     1      -5.187  13.634  17.107  0.00  0.00    +0.000 HD
ENDBRANCH   1  17
BRANCH   6  20
ATOM     20  N   UNL     1       0.569  11.256  19.393  0.00  0.00    +0.000 N 
ATOM     21  H   UNL     1       1.237  11.982  19.096  0.00  0.00    +0.000 HD
BRANCH  20  22
ATOM     22  C   UNL     1       1.084   9.919  19.544  0.00  0.00    +0.000 A 
ATOM     23  C   UNL     1       1.701   9.268  18.453  0.00  0.00    +0.000 A 
ATOM     24  C   UNL     1       2.197   7.974  18.564  0.00  0.00    +0.000 A 
ATOM     25  C   UNL     1       2.128   7.300  19.780  0.00  0.00    +0.000 A 
ATOM     26  C   UNL     1       1.538   7.926  20.885  0.00  0.00    +0.000 A 
ATOM     27  C   UNL     1       1.002   9.234  20.786  0.00  0.00    +0.000 A 
BRANCH  25  28
ATOM     28  N   UNL     1       2.706   6.013  19.913  0.00  0.00    +0.000 N 
ATOM     29  H   UNL     1       2.298   5.413  20.641  0.00  0.00    +0.000 HD
BRANCH  28  30
ATOM     30  S   UNL     1       3.108   5.087  18.476  0.00  0.00    +0.000 S 
ATOM     31  C   UNL     1       4.326   5.816  17.341  0.00  0.00    +0.000 C 
ATOM     32  O   UNL     1       3.437   3.666  18.959  0.00  0.00    +0.000 OA
ATOM     33  O   UNL     1       1.750   4.882  17.789  0.00  0.00    +0.000 OA
ENDBRANCH  28  30
ENDBRANCH  25  28
BRANCH  27  34
ATOM     34  O   UNL     1       0.407   9.836  21.854  0.00  0.00    +0.000 OA
ATOM     35  C   UNL     1      -0.500   9.240  22.716  0.00  0.00    +0.000 C 
ENDBRANCH  27  34
ENDBRANCH  20  22
ENDBRANCH   6  20
TORSDOF 6
ENDMDL
MODEL 4
REMARK VINA RESULT:      -8.1      1.492      1.658
REMARK  Name = 
REMARK  9 active torsions:
REMARK  status: ('A' for Active; 'I' for Inactive)
REMARK    1  A    between atoms: C_1  and  N_2
REMARK    2  A    between atoms: C_3  and  C_5
REMARK    3  A    between atoms: C_10  and  N_11
REMARK    4  A    between atoms: N_11  and  C_12
REMARK    5  A    between atoms: C_15  and  N_16
REMARK    6  A    between atoms: N_16  and  S_17
REMARK    7  A    between atoms: S_17  and  C_18
REMARK    8  A    between atoms: C_22  and  O_23
REMARK    9  A    between atoms: O_23  and  C_24
REMARK                            x       y       z     vdW  Elec       q    Type
REMARK                         _______ _______ _______ _____ _____    ______ ____
ROOT
ATOM      1  C   UNL     1       5.429   5.203  16.081  0.00  0.00    +0.000 A 
ATOM      2  C   UNL     1       6.148   6.414  16.076  0.00  0.00    +0.000 A 
ATOM      3  C   UNL     1       5.887   7.401  17.016  0.00  0.00    +0.000 A 
ATOM      4  C   UNL     1       4.903   7.218  17.978  0.00  0.00    +0.000 A 
ATOM      5  C   UNL     1       4.104   6.048  17.993  0.00  0.00    +0.000 A 
ATOM      6  C   UNL     1       3.036   5.848  18.935  0.00  0.00    +0.000 A 
ATOM      7  C   UNL     1       2.354   4.591  18.920  0.00  0.00    +0.000 A 
ATOM      8  C   UNL     1       1.271   4.286  19.779  0.00  0.00    +0.000 A 
ATOM      9  C   UNL     1       0.630   3.041  19.703  0.00  0.00    +0.000 A 
ATOM     10  C   UNL     1       1.054   2.079  18.781  0.00  0.00    +0.000 A 
ATOM     11  C   UNL     1       2.109   2.364  17.921  0.00  0.00    +0.000 A 
ATOM     12  C   UNL     1       2.743   3.610  17.976  0.00  0.00    +0.000 A 
ATOM     13  N   UNL     1       3.728   3.862  17.095  0.00  0.00    +0.000 NA
ATOM     14  C   UNL     1       4.407   5.031  17.051  0.00  0.00    +0.000 A 
ENDROOT
BRANCH   1  17
ATOM     15  C   UNL     1       5.821   3.285  12.779  0.00  0.00    +0.000 C 
ATOM     16  N   UNL     1       5.521   4.316  13.748  0.00  0.00    +0.000 N 
ATOM     17  C   UNL     1       5.738   4.129  15.079  0.00  0.00    +0.000 C 
ATOM     18  O   UNL     1       6.217   3.070  15.462  0.00  0.00    +0.000 OA
ATOM     19  H   UNL     1       5.181   5.216  13.387  0.00  0.00    +0.000 HD
ENDBRANCH   1  17
BRANCH   6  20
ATOM     20  N   UNL     1       2.649   6.871  19.877  0.00  0.00    +0.000 N 
ATOM     21  H   UNL     1       2.794   6.692  20.882  0.00  0.00    +0.000 HD
BRANCH  20  22
ATOM     22  C   UNL     1       1.925   8.066  19.527  0.00  0.00    +0.000 A 
ATOM     23  C   UNL     1       1.867   8.493  18.181  0.00  0.00    +0.000 A 
ATOM     24  C   UNL     1       1.187   9.648  17.813  0.00  0.00    +0.000 A 
ATOM     25  C   UNL     1       0.508  10.396  18.771  0.00  0.00    +0.000 A 
ATOM     26  C   UNL     1       0.532   9.989  20.110  0.00  0.00    +0.000 A 
ATOM     27  C   UNL     1       1.242   8.830  20.511  0.00  0.00    +0.000 A 
BRANCH  25  28
ATOM     28  N   UNL     1      -0.252  11.527  18.382  0.00  0.00    +0.000 N 
ATOM     29  H   UNL     1      -1.228  11.340  18.116  0.00  0.00    +0.000 HD
BRANCH  28  30
ATOM     30  S   UNL     1      -0.116  13.022  19.293  0.00  0.00    +0.000 S 
ATOM     31  C   UNL     1      -1.186  13.197  20.752  0.00  0.00    +0.000 C 
ATOM     32  O   UNL     1       1.383  13.231  19.556  0.00  0.00    +0.000 OA
ATOM     33  O   UNL     1      -0.410  14.108  18.247  0.00  0.00    +0.000 OA
ENDBRANCH  28  30
ENDBRANCH  25  28
BRANCH  27  34
ATOM     34  O   UNL     1       1.285   8.444  21.818  0.00  0.00    +0.000 OA
ATOM     35  C   UNL     1       0.773   9.159  22.888  0.00  0.00    +0.000 C 
ENDBRANCH  27  34
ENDBRANCH  20  22
ENDBRANCH   6  20
TORSDOF 6
ENDMDL
MODEL 5
REMARK VINA RESULT:      -8.1      3.379      9.320
REMARK  Name = 
REMARK  9 active torsions:
REMARK  status: ('A' for Active; 'I' for Inactive)
REMARK    1  A    between atoms: C_1  and  N_2
REMARK    2  A    between atoms: C_3  and  C_5
REMARK    3  A    between atoms: C_10  and  N_11
REMARK    4  A    between atoms: N_11  and  C_12
REMARK    5  A    between atoms: C_15  and  N_16
REMARK    6  A    between atoms: N_16  and  S_17
REMARK    7  A    between atoms: S_17  and  C_18
REMARK    8  A    between atoms: C_22  and  O_23
REMARK    9  A    between atoms: O_23  and  C_24
REMARK                            x       y       z     vdW  Elec       q    Type
REMARK                         _______ _______ _______ _____ _____    ______ ____
ROOT
ATOM      1  C   UNL     1      -4.072  11.300  18.136  0.00  0.00    +0.000 A 
ATOM      2  C   UNL     1      -4.067  10.314  17.130  0.00  0.00    +0.000 A 
ATOM      3  C   UNL     1      -2.887   9.691  16.749  0.00  0.00    +0.000 A 
ATOM      4  C   UNL     1      -1.682  10.035  17.347  0.00  0.00    +0.000 A 
ATOM      5  C   UNL     1      -1.616  11.063  18.318  0.00  0.00    +0.000 A 
ATOM      6  C   UNL     1      -0.378  11.488  18.917  0.00  0.00    +0.000 A 
ATOM      7  C   UNL     1      -0.437  12.471  19.954  0.00  0.00    +0.000 A 
ATOM      8  C   UNL     1       0.712  12.988  20.599  0.00  0.00    +0.000 A 
ATOM      9  C   UNL     1       0.590  13.965  21.597  0.00  0.00    +0.000 A 
ATOM     10  C   UNL     1      -0.668  14.443  21.974  0.00  0.00    +0.000 A 
ATOM     11  C   UNL     1      -1.809  13.956  21.344  0.00  0.00    +0.000 A 
ATOM     12  C   UNL     1      -1.696  12.994  20.334  0.00  0.00    +0.000 A 
ATOM     13  N   UNL     1      -2.820  12.584  19.718  0.00  0.00    +0.000 NA
ATOM     14  C   UNL     1      -2.834  11.665  18.727  0.00  0.00    +0.000 A 
ENDROOT
BRANCH   1  17
ATOM     15  C   UNL     1      -6.892  13.857  18.628  0.00  0.00    +0.000 C 
ATOM     16  N   UNL     1      -5.653  13.232  18.222  0.00  0.00    +0.000 N 
ATOM     17  C   UNL     1      -5.357  11.947  18.562  0.00  0.00    +0.000 C 
ATOM     18  O   UNL     1      -6.169  11.301  19.213  0.00  0.00    +0.000 OA
ATOM     19  H   UNL     1      -5.023  13.780  17.623  0.00  0.00    +0.000 HD
ENDBRANCH   1  17
BRANCH   6  20
ATOM     20  N   UNL     1       0.895  10.951  18.499  0.00  0.00    +0.000 N 
ATOM     21  H   UNL     1       1.444  11.476  17.802  0.00  0.00    +0.000 HD
BRANCH  20  22
ATOM     22  C   UNL     1       1.386   9.648  18.866  0.00  0.00    +0.000 A 
ATOM     23  C   UNL     1       2.140   8.887  17.944  0.00  0.00    +0.000 A 
ATOM     24  C   UNL     1       2.618   7.621  18.265  0.00  0.00    +0.000 A 
ATOM     25  C   UNL     1       2.392   7.088  19.531  0.00  0.00    +0.000 A 
ATOM     26  C   UNL     1       1.664   7.825  20.472  0.00  0.00    +0.000 A 
ATOM     27  C   UNL     1       1.145   9.106  20.157  0.00  0.00    +0.000 A 
BRANCH  25  28
ATOM     28  N   UNL     1       2.949   5.833  19.883  0.00  0.00    +0.000 N 
ATOM     29  H   UNL     1       3.367   5.777  20.821  0.00  0.00    +0.000 HD
BRANCH  28  30
ATOM     30  S   UNL     1       2.091   4.356  19.479  0.00  0.00    +0.000 S 
ATOM     31  C   UNL     1       1.569   4.153  17.750  0.00  0.00    +0.000 C 
ATOM     32  O   UNL     1       2.931   3.201  20.045  0.00  0.00    +0.000 OA
ATOM     33  O   UNL     1       0.886   4.369  20.432  0.00  0.00    +0.000 OA
ENDBRANCH  28  30
ENDBRANCH  25  28
BRANCH  27  34
ATOM     34  O   UNL     1       0.416   9.816  21.064  0.00  0.00    +0.000 OA
ATOM     35  C   UNL     1      -0.211   9.292  22.183  0.00  0.00    +0.000 C 
ENDBRANCH  27  34
ENDBRANCH  20  22
ENDBRANCH   6  20
TORSDOF 6
ENDMDL
MODEL 6
REMARK VINA RESULT:      -8.1      3.685      9.498
REMARK  Name = 
REMARK  9 active torsions:
REMARK  status: ('A' for Active; 'I' for Inactive)
REMARK    1  A    between atoms: C_1  and  N_2
REMARK    2  A    between atoms: C_3  and  C_5
REMARK    3  A    between atoms: C_10  and  N_11
REMARK    4  A    between atoms: N_11  and  C_12
REMARK    5  A    between atoms: C_15  and  N_16
REMARK    6  A    between atoms: N_16  and  S_17
REMARK    7  A    between atoms: S_17  and  C_18
REMARK    8  A    between atoms: C_22  and  O_23
REMARK    9  A    between atoms: O_23  and  C_24
REMARK                            x       y       z     vdW  Elec       q    Type
REMARK                         _______ _______ _______ _____ _____    ______ ____
ROOT
ATOM      1  C   UNL     1      -3.134  13.226  21.635  0.00  0.00    +0.000 A 
ATOM      2  C   UNL     1      -2.213  13.667  22.605  0.00  0.00    +0.000 A 
ATOM      3  C   UNL     1      -0.854  13.427  22.457  0.00  0.00    +0.000 A 
ATOM      4  C   UNL     1      -0.374  12.738  21.351  0.00  0.00    +0.000 A 
ATOM      5  C   UNL     1      -1.258  12.214  20.377  0.00  0.00    +0.000 A 
ATOM      6  C   UNL     1      -0.805  11.444  19.250  0.00  0.00    +0.000 A 
ATOM      7  C   UNL     1      -1.774  11.043  18.277  0.00  0.00    +0.000 A 
ATOM      8  C   UNL     1      -1.455  10.261  17.141  0.00  0.00    +0.000 A 
ATOM      9  C   UNL     1      -2.454   9.883  16.232  0.00  0.00    +0.000 A 
ATOM     10  C   UNL     1      -3.780  10.276  16.431  0.00  0.00    +0.000 A 
ATOM     11  C   UNL     1      -4.116  11.036  17.548  0.00  0.00    +0.000 A 
ATOM     12  C   UNL     1      -3.130  11.402  18.470  0.00  0.00    +0.000 A 
ATOM     13  N   UNL     1      -3.504  12.096  19.559  0.00  0.00    +0.000 NA
ATOM     14  C   UNL     1      -2.641  12.500  20.520  0.00  0.00    +0.000 A 
ENDROOT
BRANCH   1  17
ATOM     15  C   UNL     1      -6.878  12.844  22.395  0.00  0.00    +0.000 C 
ATOM     16  N   UNL     1      -5.466  12.568  22.242  0.00  0.00    +0.000 N 
ATOM     17  C   UNL     1      -4.599  13.514  21.789  0.00  0.00    +0.000 C 
ATOM     18  O   UNL     1      -5.022  14.632  21.522  0.00  0.00    +0.000 OA
ATOM     19  H   UNL     1      -5.133  11.641  22.535  0.00  0.00    +0.000 HD
ENDBRANCH   1  17
BRANCH   6  20
ATOM     20  N   UNL     1       0.581  11.077  19.085  0.00  0.00    +0.000 N 
ATOM     21  H   UNL     1       1.218  11.755  18.640  0.00  0.00    +0.000 HD
BRANCH  20  22
ATOM     22  C   UNL     1       1.112   9.765  19.354  0.00  0.00    +0.000 A 
ATOM     23  C   UNL     1       1.804   9.058  18.345  0.00  0.00    +0.000 A 
ATOM     24  C   UNL     1       2.317   7.786  18.571  0.00  0.00    +0.000 A 
ATOM     25  C   UNL     1       2.191   7.192  19.824  0.00  0.00    +0.000 A 
ATOM     26  C   UNL     1       1.527   7.876  20.849  0.00  0.00    +0.000 A 
ATOM     27  C   UNL     1       0.973   9.162  20.633  0.00  0.00    +0.000 A 
BRANCH  25  28
ATOM     28  N   UNL     1       2.786   5.931  20.075  0.00  0.00    +0.000 N 
ATOM     29  H   UNL     1       3.159   5.793  21.024  0.00  0.00    +0.000 HD
BRANCH  28  30
ATOM     30  S   UNL     1       2.015   4.471  19.477  0.00  0.00    +0.000 S 
ATOM     31  C   UNL     1       1.532   4.453  17.725  0.00  0.00    +0.000 C 
ATOM     32  O   UNL     1       2.909   3.301  19.917  0.00  0.00    +0.000 OA
ATOM     33  O   UNL     1       0.797   4.304  20.398  0.00  0.00    +0.000 OA
ENDBRANCH  28  30
ENDBRANCH  25  28
BRANCH  27  34
ATOM     34  O   UNL     1       0.306   9.820  21.623  0.00  0.00    +0.000 OA
ATOM     35  C   UNL     1      -0.276   9.231  22.734  0.00  0.00    +0.000 C 
ENDBRANCH  27  34
ENDBRANCH  20  22
ENDBRANCH   6  20
TORSDOF 6
ENDMDL
MODEL 7
REMARK VINA RESULT:      -7.9      3.545      9.182
REMARK  Name = 
REMARK  9 active torsions:
REMARK  status: ('A' for Active; 'I' for Inactive)
REMARK    1  A    between atoms: C_1  and  N_2
REMARK    2  A    between atoms: C_3  and  C_5
REMARK    3  A    between atoms: C_10  and  N_11
REMARK    4  A    between atoms: N_11  and  C_12
REMARK    5  A    between atoms: C_15  and  N_16
REMARK    6  A    between atoms: N_16  and  S_17
REMARK    7  A    between atoms: S_17  and  C_18
REMARK    8  A    between atoms: C_22  and  O_23
REMARK    9  A    between atoms: O_23  and  C_24
REMARK                            x       y       z     vdW  Elec       q    Type
REMARK                         _______ _______ _______ _____ _____    ______ ____
ROOT
ATOM      1  C   UNL     1      -3.943  11.056  17.754  0.00  0.00    +0.000 A 
ATOM      2  C   UNL     1      -3.647  10.211  16.668  0.00  0.00    +0.000 A 
ATOM      3  C   UNL     1      -2.358   9.739  16.464  0.00  0.00    +0.000 A 
ATOM      4  C   UNL     1      -1.329  10.098  17.325  0.00  0.00    +0.000 A 
ATOM      5  C   UNL     1      -1.554  10.996  18.396  0.00  0.00    +0.000 A 
ATOM      6  C   UNL     1      -0.503  11.439  19.273  0.00  0.00    +0.000 A 
ATOM      7  C   UNL     1      -0.858  12.274  20.379  0.00  0.00    +0.000 A 
ATOM      8  C   UNL     1       0.089  12.793  21.294  0.00  0.00    +0.000 A 
ATOM      9  C   UNL     1      -0.319  13.623  22.348  0.00  0.00    +0.000 A 
ATOM     10  C   UNL     1      -1.668  13.945  22.516  0.00  0.00    +0.000 A 
ATOM     11  C   UNL     1      -2.614  13.453  21.622  0.00  0.00    +0.000 A 
ATOM     12  C   UNL     1      -2.214  12.641  20.555  0.00  0.00    +0.000 A 
ATOM     13  N   UNL     1      -3.152  12.224  19.686  0.00  0.00    +0.000 NA
ATOM     14  C   UNL     1      -2.884  11.441  18.617  0.00  0.00    +0.000 A 
ENDROOT
BRANCH   1  17
ATOM     15  C   UNL     1      -7.357  11.742  19.371  0.00  0.00    +0.000 C 
ATOM     16  N   UNL     1      -6.007  11.275  19.145  0.00  0.00    +0.000 N 
ATOM     17  C   UNL     1      -5.346  11.539  17.984  0.00  0.00    +0.000 C 
ATOM     18  O   UNL     1      -5.902  12.202  17.118  0.00  0.00    +0.000 OA
ATOM     19  H   UNL     1      -5.546  10.777  19.916  0.00  0.00    +0.000 HD
ENDBRANCH   1  17
BRANCH   6  20
ATOM     20  N   UNL     1       0.875  11.063  19.061  0.00  0.00    +0.000 N 
ATOM     21  H   UNL     1       1.529  11.778  18.711  0.00  0.00    +0.000 HD
BRANCH  20  22
ATOM     22  C   UNL     1       1.372   9.715  19.154  0.00  0.00    +0.000 A 
ATOM     23  C   UNL     1       1.920   9.080  18.017  0.00  0.00    +0.000 A 
ATOM     24  C   UNL     1       2.397   7.776  18.072  0.00  0.00    +0.000 A 
ATOM     25  C   UNL     1       2.380   7.074  19.274  0.00  0.00    +0.000 A 
ATOM     26  C   UNL     1       1.859   7.682  20.422  0.00  0.00    +0.000 A 
ATOM     27  C   UNL     1       1.343   9.001  20.382  0.00  0.00    +0.000 A 
BRANCH  25  28
ATOM     28  N   UNL     1       2.941   5.774  19.346  0.00  0.00    +0.000 N 
ATOM     29  H   UNL     1       3.824   5.697  19.867  0.00  0.00    +0.000 HD
BRANCH  28  30
ATOM     30  S   UNL     1       1.900   4.393  19.649  0.00  0.00    +0.000 S 
ATOM     31  C   UNL     1       2.689   2.900  20.322  0.00  0.00    +0.000 C 
ATOM     32  O   UNL     1       0.708   4.921  20.461  0.00  0.00    +0.000 OA
ATOM     33  O   UNL     1       1.257   4.120  18.280  0.00  0.00    +0.000 OA
ENDBRANCH  28  30
ENDBRANCH  25  28
BRANCH  27  34
ATOM     34  O   UNL     1       0.815   9.588  21.494  0.00  0.00    +0.000 OA
ATOM     35  C   UNL     1      -0.282   9.128  22.205  0.00  0.00    +0.000 C 
ENDBRANCH  27  34
ENDBRANCH  20  22
ENDBRANCH   6  20
TORSDOF 6
ENDMDL
MODEL 8
REMARK VINA RESULT:      -7.7      4.262      6.763
REMARK  Name = 
REMARK  9 active torsions:
REMARK  status: ('A' for Active; 'I' for Inactive)
REMARK    1  A    between atoms: C_1  and  N_2
REMARK    2  A    between atoms: C_3  and  C_5
REMARK    3  A    between atoms: C_10  and  N_11
REMARK    4  A    between atoms: N_11  and  C_12
REMARK    5  A    between atoms: C_15  and  N_16
REMARK    6  A    between atoms: N_16  and  S_17
REMARK    7  A    between atoms: S_17  and  C_18
REMARK    8  A    between atoms: C_22  and  O_23
REMARK    9  A    between atoms: O_23  and  C_24
REMARK                            x       y       z     vdW  Elec       q    Type
REMARK                         _______ _______ _______ _____ _____    ______ ____
ROOT
ATOM      1  C   UNL     1       2.535   6.973  19.141  0.00  0.00    +0.000 A 
ATOM      2  C   UNL     1       3.043   7.037  17.829  0.00  0.00    +0.000 A 
ATOM      3  C   UNL     1       2.851   8.167  17.047  0.00  0.00    +0.000 A 
ATOM      4  C   UNL     1       2.146   9.257  17.539  0.00  0.00    +0.000 A 
ATOM      5  C   UNL     1       1.558   9.224  18.827  0.00  0.00    +0.000 A 
ATOM      6  C   UNL     1       0.769  10.308  19.350  0.00  0.00    +0.000 A 
ATOM      7  C   UNL     1       0.300  10.209  20.697  0.00  0.00    +0.000 A 
ATOM      8  C   UNL     1      -0.504  11.197  21.313  0.00  0.00    +0.000 A 
ATOM      9  C   UNL     1      -0.949  11.033  22.633  0.00  0.00    +0.000 A 
ATOM     10  C   UNL     1      -0.601   9.894  23.363  0.00  0.00    +0.000 A 
ATOM     11  C   UNL     1       0.180   8.906  22.772  0.00  0.00    +0.000 A 
ATOM     12  C   UNL     1       0.613   9.052  21.450  0.00  0.00    +0.000 A 
ATOM     13  N   UNL     1       1.327   8.052  20.901  0.00  0.00    +0.000 NA
ATOM     14  C   UNL     1       1.794   8.079  19.632  0.00  0.00    +0.000 A 
ENDROOT
BRANCH   1  17
ATOM     15  C   UNL     1       1.978   3.972  21.470  0.00  0.00    +0.000 C 
ATOM     16  N   UNL     1       1.753   5.145  20.654  0.00  0.00    +0.000 N 
ATOM     17  C   UNL     1       2.772   5.758  19.991  0.00  0.00    +0.000 C 
ATOM     18  O   UNL     1       3.903   5.294  20.074  0.00  0.00    +0.000 OA
ATOM     19  H   UNL     1       0.784   5.470  20.554  0.00  0.00    +0.000 HD
ENDBRANCH   1  17
BRANCH   6  20
ATOM     20  N   UNL     1       0.451  11.471  18.555  0.00  0.00    +0.000 N 
ATOM     21  H   UNL     1      -0.306  11.397  17.860  0.00  0.00    +0.000 HD
BRANCH  20  22
ATOM     22  C   UNL     1       1.222  12.688  18.551  0.00  0.00    +0.000 A 
ATOM     23  C   UNL     1       2.598  12.657  18.229  0.00  0.00    +0.000 A 
ATOM     24  C   UNL     1       3.370  13.812  18.228  0.00  0.00    +0.000 A 
ATOM     25  C   UNL     1       2.788  15.044  18.511  0.00  0.00    +0.000 A 
ATOM     26  C   UNL     1       1.424  15.110  18.816  0.00  0.00    +0.000 A 
ATOM     27  C   UNL     1       0.623  13.941  18.849  0.00  0.00    +0.000 A 
BRANCH  25  28
ATOM     28  N   UNL     1       3.560  16.230  18.430  0.00  0.00    +0.000 N 
ATOM     29  H   UNL     1       3.028  17.102  18.305  0.00  0.00    +0.000 HD
BRANCH  28  30
ATOM     30  S   UNL     1       4.915  16.463  19.521  0.00  0.00    +0.000 S 
ATOM     31  C   UNL     1       6.445  15.559  19.138  0.00  0.00    +0.000 C 
ATOM     32  O   UNL     1       5.080  17.981  19.684  0.00  0.00    +0.000 OA
ATOM     33  O   UNL     1       4.349  16.055  20.889  0.00  0.00    +0.000 OA
ENDBRANCH  28  30
ENDBRANCH  25  28
BRANCH  27  34
ATOM     34  O   UNL     1      -0.701  14.000  19.169  0.00  0.00    +0.000 OA
ATOM     35  C   UNL     1      -1.238  14.653  20.266  0.00  0.00    +0.000 C 
ENDBRANCH  27  34
ENDBRANCH  20  22
ENDBRANCH   6  20
TORSDOF 6
ENDMDL
MODEL 9
REMARK VINA RESULT:      -7.7      3.580      9.535
REMARK  Name = 
REMARK  9 active torsions:
REMARK  status: ('A' for Active; 'I' for Inactive)
REMARK    1  A    between atoms: C_1  and  N_2
REMARK    2  A    between atoms: C_3  and  C_5
REMARK    3  A    between atoms: C_10  and  N_11
REMARK    4  A    between atoms: N_11  and  C_12
REMARK    5  A    between atoms: C_15  and  N_16
REMARK    6  A    between atoms: N_16  and  S_17
REMARK    7  A    between atoms: S_17  and  C_18
REMARK    8  A    between atoms: C_22  and  O_23
REMARK    9  A    between atoms: O_23  and  C_24
REMARK                            x       y       z     vdW  Elec       q    Type
REMARK                         _______ _______ _______ _____ _____    ______ ____
ROOT
ATOM      1  C   UNL     1      -4.252  11.464  17.677  0.00  0.00    +0.000 A 
ATOM      2  C   UNL     1      -3.770  10.806  16.530  0.00  0.00    +0.000 A 
ATOM      3  C   UNL     1      -2.453  10.374  16.457  0.00  0.00    +0.000 A 
ATOM      4  C   UNL     1      -1.579  10.591  17.514  0.00  0.00    +0.000 A 
ATOM      5  C   UNL     1      -1.989  11.304  18.666  0.00  0.00    +0.000 A 
ATOM      6  C   UNL     1      -1.098  11.601  19.756  0.00  0.00    +0.000 A 
ATOM      7  C   UNL     1      -1.640  12.245  20.912  0.00  0.00    +0.000 A 
ATOM      8  C   UNL     1      -0.859  12.612  22.033  0.00  0.00    +0.000 A 
ATOM      9  C   UNL     1      -1.447  13.259  23.130  0.00  0.00    +0.000 A 
ATOM     10  C   UNL     1      -2.814  13.548  23.135  0.00  0.00    +0.000 A 
ATOM     11  C   UNL     1      -3.597  13.206  22.037  0.00  0.00    +0.000 A 
ATOM     12  C   UNL     1      -3.016  12.577  20.930  0.00  0.00    +0.000 A 
ATOM     13  N   UNL     1      -3.799  12.305  19.870  0.00  0.00    +0.000 NA
ATOM     14  C   UNL     1      -3.348  11.705  18.745  0.00  0.00    +0.000 A 
ENDROOT
BRANCH   1  17
ATOM     15  C   UNL     1      -7.426  13.623  17.638  0.00  0.00    +0.000 C 
ATOM     16  N   UNL     1      -6.045  13.200  17.564  0.00  0.00    +0.000 N 
ATOM     17  C   UNL     1      -5.686  11.901  17.759  0.00  0.00    +0.000 C 
ATOM     18  O   UNL     1      -6.555  11.069  17.986  0.00  0.00    +0.000 OA
ATOM     19  H   UNL     1      -5.348  13.910  17.309  0.00  0.00    +0.000 HD
ENDBRANCH   1  17
BRANCH   6  20
ATOM     20  N   UNL     1       0.306  11.266  19.704  0.00  0.00    +0.000 N 
ATOM     21  H   UNL     1       0.974  11.997  19.416  0.00  0.00    +0.000 HD
BRANCH  20  22
ATOM     22  C   UNL     1       0.830   9.935  19.874  0.00  0.00    +0.000 A 
ATOM     23  C   UNL     1       0.531   9.197  21.041  0.00  0.00    +0.000 A 
ATOM     24  C   UNL     1       1.032   7.916  21.239  0.00  0.00    +0.000 A 
ATOM     25  C   UNL     1       1.817   7.312  20.260  0.00  0.00    +0.000 A 
ATOM     26  C   UNL     1       2.116   8.011  19.085  0.00  0.00    +0.000 A 
ATOM     27  C   UNL     1       1.638   9.329  18.875  0.00  0.00    +0.000 A 
BRANCH  25  28
ATOM     28  N   UNL     1       2.259   5.976  20.428  0.00  0.00    +0.000 N 
ATOM     29  H   UNL     1       1.628   5.360  20.958  0.00  0.00    +0.000 HD
BRANCH  28  30
ATOM     30  S   UNL     1       2.994   5.126  19.078  0.00  0.00    +0.000 S 
ATOM     31  C   UNL     1       4.378   5.952  18.241  0.00  0.00    +0.000 C 
ATOM     32  O   UNL     1       3.289   3.703  19.576  0.00  0.00    +0.000 OA
ATOM     33  O   UNL     1       1.817   4.889  18.119  0.00  0.00    +0.000 OA
ENDBRANCH  28  30
ENDBRANCH  25  28
BRANCH  27  34
ATOM     34  O   UNL     1       1.946  10.020  17.741  0.00  0.00    +0.000 OA
ATOM     35  C   UNL     1       2.574  11.255  17.694  0.00  0.00    +0.000 C 
ENDBRANCH  27  34
ENDBRANCH  20  22
ENDBRANCH   6  20
TORSDOF 6
ENDMDL
