MODEL 1
REMARK VINA RESULT:      -7.9      0.000      0.000
REMARK  Name = 
REMARK  8 active torsions:
REMARK  status: ('A' for Active; 'I' for Inactive)
REMARK    1  A    between atoms: C_1  and  O_2
REMARK    2  A    between atoms: O_2  and  C_3
REMARK    3  A    between atoms: C_6  and  N_7
REMARK    4  A    between atoms: C_8  and  C_10
REMARK    5  A    between atoms: C_15  and  N_16
REMARK    6  A    between atoms: C_17  and  C_19
REMARK    7  A    between atoms: C_19  and  S_20
REMARK    8  A    between atoms: S_20  and  C_21
REMARK                            x       y       z     vdW  Elec       q    Type
REMARK                         _______ _______ _______ _____ _____    ______ ____
ROOT
ATOM      1  C   UNL     1       2.877   4.226  19.898  0.00  0.00    +0.000 A 
ATOM      2  C   UNL     1       2.010   3.764  20.911  0.00  0.00    +0.000 A 
ATOM      3  C   UNL     1       2.310   2.616  21.644  0.00  0.00    +0.000 A 
ATOM      4  C   UNL     1       3.467   1.904  21.371  0.00  0.00    +0.000 A 
ATOM      5  C   UNL     1       4.313   2.323  20.343  0.00  0.00    +0.000 A 
ATOM      6  C   UNL     1       4.029   3.461  19.573  0.00  0.00    +0.000 A 
ENDROOT
BRANCH   1   8
ATOM      7  N   UNL     1       2.215   6.601  19.949  0.00  0.00    +0.000 N 
ATOM      8  C   UNL     1       2.550   5.499  19.164  0.00  0.00    +0.000 C 
ATOM      9  O   UNL     1       2.645   5.494  17.939  0.00  0.00    +0.000 OA
ATOM     10  H   UNL     1       2.310   6.513  20.951  0.00  0.00    +0.000 HD
BRANCH   7  14
ATOM     11  C   UNL     1       1.375  10.590  18.779  0.00  0.00    +0.000 A 
ATOM     12  C   UNL     1       2.083   9.745  17.923  0.00  0.00    +0.000 A 
ATOM     13  C   UNL     1       2.333   8.414  18.268  0.00  0.00    +0.000 A 
ATOM     14  C   UNL     1       1.912   7.911  19.496  0.00  0.00    +0.000 A 
ATOM     15  C   UNL     1       1.172   8.751  20.344  0.00  0.00    +0.000 A 
ATOM     16  C   UNL     1       0.905  10.083  19.988  0.00  0.00    +0.000 A 
BRANCH  11  18
ATOM     17  C   UNL     1       1.921  12.877  19.098  0.00  0.00    +0.000 C 
ATOM     18  O   UNL     1       1.263  11.876  18.336  0.00  0.00    +0.000 OA
ENDBRANCH  11  18
ENDBRANCH   7  14
ENDBRANCH   1   8
BRANCH   6  19
ATOM     19  N   UNL     1       4.899   3.848  18.514  0.00  0.00    +0.000 N 
ATOM     20  C   UNL     1       6.012   4.669  18.611  0.00  0.00    +0.000 C 
ATOM     21  O   UNL     1       6.522   5.047  19.667  0.00  0.00    +0.000 OA
ATOM     22  H   UNL     1       4.743   3.377  17.619  0.00  0.00    +0.000 HD
BRANCH  20  23
ATOM     23  C   UNL     1       6.695   5.034  17.303  0.00  0.00    +0.000 C 
BRANCH  23  24
ATOM     24  S   UNL     1       5.558   5.780  16.098  0.00  0.00    +0.000 S 
BRANCH  24  25
ATOM     25  C   UNL     1       6.138   5.056  14.569  0.00  0.00    +0.000 A 
ATOM     26  C   UNL     1       5.335   4.076  13.973  0.00  0.00    +0.000 A 
ATOM     27  C   UNL     1       5.730   3.455  12.786  0.00  0.00    +0.000 A 
ATOM     28  C   UNL     1       6.930   3.814  12.177  0.00  0.00    +0.000 A 
ATOM     29  C   UNL     1       7.724   4.807  12.744  0.00  0.00    +0.000 A 
ATOM     30  C   UNL     1       7.326   5.432  13.930  0.00  0.00    +0.000 A 
ENDBRANCH  24  25
ENDBRANCH  23  24
ENDBRANCH  20  23
ENDBRANCH   6  19
TORSDOF 7
ENDMDL
MODEL 2
REMARK VINA RESULT:      -7.8      2.482      6.397
REMARK  Name = 
REMARK  8 active torsions:
REMARK  status: ('A' for Active; 'I' for Inactive)
REMARK    1  A    between atoms: C_1  and  O_2
REMARK    2  A    between atoms: O_2  and  C_3
REMARK    3  A    between atoms: C_6  and  N_7
REMARK    4  A    between atoms: C_8  and  C_10
REMARK    5  A    between atoms: C_15  and  N_16
REMARK    6  A    between atoms: C_17  and  C_19
REMARK    7  A    between atoms: C_19  and  S_20
REMARK    8  A    between atoms: S_20  and  C_21
REMARK                            x       y       z     vdW  Elec       q    Type
REMARK                         _______ _______ _______ _____ _____    ______ ____
ROOT
ATOM      1  C   UNL     1       1.962   7.922  19.115  0.00  0.00    +0.000 A 
ATOM      2  C   UNL     1       1.404   9.121  18.621  0.00  0.00    +0.000 A 
ATOM      3  C   UNL     1       0.681   9.974  19.454  0.00  0.00    +0.000 A 
ATOM      4  C   UNL     1       0.489   9.640  20.786  0.00  0.00    +0.000 A 
ATOM      5  C   UNL     1       0.996   8.437  21.279  0.00  0.00    +0.000 A 
ATOM      6  C   UNL     1       1.710   7.548  20.462  0.00  0.00    +0.000 A 
ENDROOT
BRANCH   1   8
ATOM      7  N   UNL     1       4.035   7.545  17.834  0.00  0.00    +0.000 N 
ATOM      8  C   UNL     1       2.784   7.054  18.201  0.00  0.00    +0.000 C 
ATOM      9  O   UNL     1       2.321   5.961  17.882  0.00  0.00    +0.000 OA
ATOM     10  H   UNL     1       4.358   8.394  18.278  0.00  0.00    +0.000 HD
BRANCH   7  14
ATOM     11  C   UNL     1       6.958   5.472  15.566  0.00  0.00    +0.000 A 
ATOM     12  C   UNL     1       5.736   5.814  14.985  0.00  0.00    +0.000 A 
ATOM     13  C   UNL     1       4.775   6.535  15.700  0.00  0.00    +0.000 A 
ATOM     14  C   UNL     1       5.003   6.897  17.024  0.00  0.00    +0.000 A 
ATOM     15  C   UNL     1       6.245   6.582  17.599  0.00  0.00    +0.000 A 
ATOM     16  C   UNL     1       7.217   5.872  16.874  0.00  0.00    +0.000 A 
BRANCH  11  18
ATOM     17  C   UNL     1       7.577   4.829  13.368  0.00  0.00    +0.000 C 
ATOM     18  O   UNL     1       7.768   4.715  14.771  0.00  0.00    +0.000 OA
ENDBRANCH  11  18
ENDBRANCH   7  14
ENDBRANCH   1   8
BRANCH   6  19
ATOM     19  N   UNL     1       2.193   6.317  20.989  0.00  0.00    +0.000 N 
ATOM     20  C   UNL     1       1.531   5.100  21.000  0.00  0.00    +0.000 C 
ATOM     21  O   UNL     1       0.486   4.858  20.392  0.00  0.00    +0.000 OA
ATOM     22  H   UNL     1       3.173   6.317  21.286  0.00  0.00    +0.000 HD
BRANCH  20  23
ATOM     23  C   UNL     1       2.217   3.965  21.745  0.00  0.00    +0.000 C 
BRANCH  23  24
ATOM     24  S   UNL     1       2.002   2.356  20.928  0.00  0.00    +0.000 S 
BRANCH  24  25
ATOM     25  C   UNL     1       2.782   2.654  19.347  0.00  0.00    +0.000 A 
ATOM     26  C   UNL     1       4.092   3.147  19.356  0.00  0.00    +0.000 A 
ATOM     27  C   UNL     1       4.761   3.419  18.159  0.00  0.00    +0.000 A 
ATOM     28  C   UNL     1       4.128   3.192  16.940  0.00  0.00    +0.000 A 
ATOM     29  C   UNL     1       2.834   2.677  16.917  0.00  0.00    +0.000 A 
ATOM     30  C   UNL     1       2.167   2.400  18.114  0.00  0.00    +0.000 A 
ENDBRANCH  24  25
ENDBRANCH  23  24
ENDBRANCH  20  23
ENDBRANCH   6  19
TORSDOF 7
ENDMDL
MODEL 3
REMARK VINA RESULT:      -7.7      0.708      1.149
REMARK  Name = 
REMARK  8 active torsions:
REMARK  status: ('A' for Active; 'I' for Inactive)
REMARK    1  A    between atoms: C_1  and  O_2
REMARK    2  A    between atoms: O_2  and  C_3
REMARK    3  A    between atoms: C_6  and  N_7
REMARK    4  A    between atoms: C_8  and  C_10
REMARK    5  A    between atoms: C_15  and  N_16
REMARK    6  A    between atoms: C_17  and  C_19
REMARK    7  A    between atoms: C_19  and  S_20
REMARK    8  A    between atoms: S_20  and  C_21
REMARK                            x       y       z     vdW  Elec       q    Type
REMARK                         _______ _______ _______ _____ _____    ______ ____
ROOT
ATOM      1  C   UNL     1       2.530   4.488  19.992  0.00  0.00    +0.000 A 
ATOM      2  C   UNL     1       1.774   4.155  21.137  0.00  0.00    +0.000 A 
ATOM      3  C   UNL     1       2.064   3.011  21.880  0.00  0.00    +0.000 A 
ATOM      4  C   UNL     1       3.098   2.175  21.488  0.00  0.00    +0.000 A 
ATOM      5  C   UNL     1       3.825   2.467  20.333  0.00  0.00    +0.000 A 
ATOM      6  C   UNL     1       3.545   3.598  19.552  0.00  0.00    +0.000 A 
ENDROOT
BRANCH   1   8
ATOM      7  N   UNL     1       2.029   6.902  20.017  0.00  0.00    +0.000 N 
ATOM      8  C   UNL     1       2.225   5.758  19.246  0.00  0.00    +0.000 C 
ATOM      9  O   UNL     1       2.216   5.713  18.017  0.00  0.00    +0.000 OA
ATOM     10  H   UNL     1       2.202   6.836  21.011  0.00  0.00    +0.000 HD
BRANCH   7  14
ATOM     11  C   UNL     1       1.334  10.904  18.797  0.00  0.00    +0.000 A 
ATOM     12  C   UNL     1       2.020  10.026  17.956  0.00  0.00    +0.000 A 
ATOM     13  C   UNL     1       2.222   8.691  18.318  0.00  0.00    +0.000 A 
ATOM     14  C   UNL     1       1.774   8.216  19.548  0.00  0.00    +0.000 A 
ATOM     15  C   UNL     1       1.055   9.091  20.380  0.00  0.00    +0.000 A 
ATOM     16  C   UNL     1       0.837  10.427  20.007  0.00  0.00    +0.000 A 
BRANCH  11  18
ATOM     17  C   UNL     1       2.494  12.898  18.245  0.00  0.00    +0.000 C 
ATOM     18  O   UNL     1       1.269  12.187  18.339  0.00  0.00    +0.000 OA
ENDBRANCH  11  18
ENDBRANCH   7  14
ENDBRANCH   1   8
BRANCH   6  19
ATOM     19  N   UNL     1       4.289   3.854  18.365  0.00  0.00    +0.000 N 
ATOM     20  C   UNL     1       5.536   4.452  18.279  0.00  0.00    +0.000 C 
ATOM     21  O   UNL     1       6.272   4.695  19.238  0.00  0.00    +0.000 OA
ATOM     22  H   UNL     1       3.906   3.450  17.506  0.00  0.00    +0.000 HD
BRANCH  20  23
ATOM     23  C   UNL     1       6.055   4.730  16.877  0.00  0.00    +0.000 C 
BRANCH  23  24
ATOM     24  S   UNL     1       5.385   3.582  15.638  0.00  0.00    +0.000 S 
BRANCH  24  25
ATOM     25  C   UNL     1       6.281   4.080  14.172  0.00  0.00    +0.000 A 
ATOM     26  C   UNL     1       7.254   5.075  14.318  0.00  0.00    +0.000 A 
ATOM     27  C   UNL     1       7.984   5.527  13.216  0.00  0.00    +0.000 A 
ATOM     28  C   UNL     1       7.753   4.981  11.956  0.00  0.00    +0.000 A 
ATOM     29  C   UNL     1       6.806   3.972  11.802  0.00  0.00    +0.000 A 
ATOM     30  C   UNL     1       6.079   3.516  12.906  0.00  0.00    +0.000 A 
ENDBRANCH  24  25
ENDBRANCH  23  24
ENDBRANCH  20  23
ENDBRANCH   6  19
TORSDOF 7
ENDMDL
MODEL 4
REMARK VINA RESULT:      -7.7      1.013      1.373
REMARK  Name = 
REMARK  8 active torsions:
REMARK  status: ('A' for Active; 'I' for Inactive)
REMARK    1  A    between atoms: C_1  and  O_2
REMARK    2  A    between atoms: O_2  and  C_3
REMARK    3  A    between atoms: C_6  and  N_7
REMARK    4  A    between atoms: C_8  and  C_10
REMARK    5  A    between atoms: C_15  and  N_16
REMARK    6  A    between atoms: C_17  and  C_19
REMARK    7  A    between atoms: C_19  and  S_20
REMARK    8  A    between atoms: S_20  and  C_21
REMARK                            x       y       z     vdW  Elec       q    Type
REMARK                         _______ _______ _______ _____ _____    ______ ____
ROOT
ATOM      1  C   UNL     1       2.365   4.680  19.986  0.00  0.00    +0.000 A 
ATOM      2  C   UNL     1       1.303   4.172  20.765  0.00  0.00    +0.000 A 
ATOM      3  C   UNL     1       1.453   3.000  21.507  0.00  0.00    +0.000 A 
ATOM      4  C   UNL     1       2.655   2.310  21.473  0.00  0.00    +0.000 A 
ATOM      5  C   UNL     1       3.700   2.776  20.673  0.00  0.00    +0.000 A 
ATOM      6  C   UNL     1       3.573   3.939  19.899  0.00  0.00    +0.000 A 
ENDROOT
BRANCH   1   8
ATOM      7  N   UNL     1       1.807   7.082  20.002  0.00  0.00    +0.000 N 
ATOM      8  C   UNL     1       2.186   5.976  19.243  0.00  0.00    +0.000 C 
ATOM      9  O   UNL     1       2.428   5.983  18.038  0.00  0.00    +0.000 OA
ATOM     10  H   UNL     1       1.776   6.977  21.007  0.00  0.00    +0.000 HD
BRANCH   7  14
ATOM     11  C   UNL     1       1.315  11.122  18.808  0.00  0.00    +0.000 A 
ATOM     12  C   UNL     1       1.964  10.218  17.965  0.00  0.00    +0.000 A 
ATOM     13  C   UNL     1       2.100   8.873  18.318  0.00  0.00    +0.000 A 
ATOM     14  C   UNL     1       1.620   8.411  19.541  0.00  0.00    +0.000 A 
ATOM     15  C   UNL     1       0.937   9.312  20.375  0.00  0.00    +0.000 A 
ATOM     16  C   UNL     1       0.787  10.660  20.010  0.00  0.00    +0.000 A 
BRANCH  11  18
ATOM     17  C   UNL     1       0.157  13.185  18.633  0.00  0.00    +0.000 C 
ATOM     18  O   UNL     1       1.315  12.410  18.359  0.00  0.00    +0.000 OA
ENDBRANCH  11  18
ENDBRANCH   7  14
ENDBRANCH   1   8
BRANCH   6  19
ATOM     19  N   UNL     1       4.649   4.374  19.074  0.00  0.00    +0.000 N 
ATOM     20  C   UNL     1       4.997   3.875  17.829  0.00  0.00    +0.000 C 
ATOM     21  O   UNL     1       4.314   3.092  17.165  0.00  0.00    +0.000 OA
ATOM     22  H   UNL     1       5.139   5.215  19.392  0.00  0.00    +0.000 HD
BRANCH  20  23
ATOM     23  C   UNL     1       6.273   4.427  17.213  0.00  0.00    +0.000 C 
BRANCH  23  24
ATOM     24  S   UNL     1       5.961   5.782  16.043  0.00  0.00    +0.000 S 
BRANCH  24  25
ATOM     25  C   UNL     1       6.300   4.983  14.479  0.00  0.00    +0.000 A 
ATOM     26  C   UNL     1       7.447   5.383  13.785  0.00  0.00    +0.000 A 
ATOM     27  C   UNL     1       7.769   4.815  12.549  0.00  0.00    +0.000 A 
ATOM     28  C   UNL     1       6.948   3.834  11.999  0.00  0.00    +0.000 A 
ATOM     29  C   UNL     1       5.818   3.408  12.692  0.00  0.00    +0.000 A 
ATOM     30  C   UNL     1       5.500   3.973  13.931  0.00  0.00    +0.000 A 
ENDBRANCH  24  25
ENDBRANCH  23  24
ENDBRANCH  20  23
ENDBRANCH   6  19
TORSDOF 7
ENDMDL
MODEL 5
REMARK VINA RESULT:      -7.7      4.131      5.905
REMARK  Name = 
REMARK  8 active torsions:
REMARK  status: ('A' for Active; 'I' for Inactive)
REMARK    1  A    between atoms: C_1  and  O_2
REMARK    2  A    between atoms: O_2  and  C_3
REMARK    3  A    between atoms: C_6  and  N_7
REMARK    4  A    between atoms: C_8  and  C_10
REMARK    5  A    between atoms: C_15  and  N_16
REMARK    6  A    between atoms: C_17  and  C_19
REMARK    7  A    between atoms: C_19  and  S_20
REMARK    8  A    between atoms: S_20  and  C_21
REMARK                            x       y       z     vdW  Elec       q    Type
REMARK                         _______ _______ _______ _____ _____    ______ ____
ROOT
ATOM      1  C   UNL     1       5.185   5.453  16.811  0.00  0.00    +0.000 A 
ATOM      2  C   UNL     1       4.518   4.468  16.051  0.00  0.00    +0.000 A 
ATOM      3  C   UNL     1       5.174   3.784  15.028  0.00  0.00    +0.000 A 
ATOM      4  C   UNL     1       6.497   4.079  14.737  0.00  0.00    +0.000 A 
ATOM      5  C   UNL     1       7.157   5.081  15.450  0.00  0.00    +0.000 A 
ATOM      6  C   UNL     1       6.519   5.802  16.470  0.00  0.00    +0.000 A 
ENDROOT
BRANCH   1   8
ATOM      7  N   UNL     1       3.407   6.971  17.595  0.00  0.00    +0.000 N 
ATOM      8  C   UNL     1       4.463   6.132  17.944  0.00  0.00    +0.000 C 
ATOM      9  O   UNL     1       4.819   5.867  19.090  0.00  0.00    +0.000 OA
ATOM     10  H   UNL     1       3.124   6.995  16.624  0.00  0.00    +0.000 HD
BRANCH   7  14
ATOM     11  C   UNL     1       0.996   9.069  20.382  0.00  0.00    +0.000 A 
ATOM     12  C   UNL     1       1.234   9.610  19.118  0.00  0.00    +0.000 A 
ATOM     13  C   UNL     1       1.990   8.917  18.168  0.00  0.00    +0.000 A 
ATOM     14  C   UNL     1       2.554   7.682  18.477  0.00  0.00    +0.000 A 
ATOM     15  C   UNL     1       2.287   7.122  19.737  0.00  0.00    +0.000 A 
ATOM     16  C   UNL     1       1.513   7.812  20.684  0.00  0.00    +0.000 A 
BRANCH  11  18
ATOM     17  C   UNL     1       0.094   9.420  22.548  0.00  0.00    +0.000 C 
ATOM     18  O   UNL     1       0.297   9.886  21.222  0.00  0.00    +0.000 OA
ENDBRANCH  11  18
ENDBRANCH   7  14
ENDBRANCH   1   8
BRANCH   6  19
ATOM     19  N   UNL     1       7.213   6.835  17.162  0.00  0.00    +0.000 N 
ATOM     20  C   UNL     1       7.909   6.715  18.354  0.00  0.00    +0.000 C 
ATOM     21  O   UNL     1       8.184   5.648  18.908  0.00  0.00    +0.000 OA
ATOM     22  H   UNL     1       7.293   7.725  16.663  0.00  0.00    +0.000 HD
BRANCH  20  23
ATOM     23  C   UNL     1       8.451   8.003  18.951  0.00  0.00    +0.000 C 
BRANCH  23  24
ATOM     24  S   UNL     1       8.233   9.435  17.853  0.00  0.00    +0.000 S 
BRANCH  24  25
ATOM     25  C   UNL     1       9.367  10.613  18.578  0.00  0.00    +0.000 A 
ATOM     26  C   UNL     1       9.376  10.727  19.973  0.00  0.00    +0.000 A 
ATOM     27  C   UNL     1      10.224  11.636  20.610  0.00  0.00    +0.000 A 
ATOM     28  C   UNL     1      11.079  12.437  19.857  0.00  0.00    +0.000 A 
ATOM     29  C   UNL     1      11.099  12.314  18.470  0.00  0.00    +0.000 A 
ATOM     30  C   UNL     1      10.254  11.400  17.833  0.00  0.00    +0.000 A 
ENDBRANCH  24  25
ENDBRANCH  23  24
ENDBRANCH  20  23
ENDBRANCH   6  19
TORSDOF 7
ENDMDL
MODEL 6
REMARK VINA RESULT:      -7.6      1.987      3.083
REMARK  Name = 
REMARK  8 active torsions:
REMARK  status: ('A' for Active; 'I' for Inactive)
REMARK    1  A    between atoms: C_1  and  O_2
REMARK    2  A    between atoms: O_2  and  C_3
REMARK    3  A    between atoms: C_6  and  N_7
REMARK    4  A    between atoms: C_8  and  C_10
REMARK    5  A    between atoms: C_15  and  N_16
REMARK    6  A    between atoms: C_17  and  C_19
REMARK    7  A    between atoms: C_19  and  S_20
REMARK    8  A    between atoms: S_20  and  C_21
REMARK                            x       y       z     vdW  Elec       q    Type
REMARK                         _______ _______ _______ _____ _____    ______ ____
ROOT
ATOM      1  C   UNL     1       2.540   4.612  20.008  0.00  0.00    +0.000 A 
ATOM      2  C   UNL     1       1.940   4.078  21.169  0.00  0.00    +0.000 A 
ATOM      3  C   UNL     1       2.405   2.892  21.737  0.00  0.00    +0.000 A 
ATOM      4  C   UNL     1       3.462   2.213  21.151  0.00  0.00    +0.000 A 
ATOM      5  C   UNL     1       4.036   2.704  19.978  0.00  0.00    +0.000 A 
ATOM      6  C   UNL     1       3.578   3.882  19.370  0.00  0.00    +0.000 A 
ENDROOT
BRANCH   1   8
ATOM      7  N   UNL     1       1.989   6.991  20.345  0.00  0.00    +0.000 N 
ATOM      8  C   UNL     1       2.048   5.922  19.454  0.00  0.00    +0.000 C 
ATOM      9  O   UNL     1       1.780   5.972  18.256  0.00  0.00    +0.000 OA
ATOM     10  H   UNL     1       2.372   6.856  21.272  0.00  0.00    +0.000 HD
BRANCH   7  14
ATOM     11  C   UNL     1       0.750  10.911  19.301  0.00  0.00    +0.000 A 
ATOM     12  C   UNL     1       0.531  10.430  20.593  0.00  0.00    +0.000 A 
ATOM     13  C   UNL     1       0.970   9.158  20.972  0.00  0.00    +0.000 A 
ATOM     14  C   UNL     1       1.605   8.325  20.054  0.00  0.00    +0.000 A 
ATOM     15  C   UNL     1       1.854   8.822  18.764  0.00  0.00    +0.000 A 
ATOM     16  C   UNL     1       1.429  10.107  18.390  0.00  0.00    +0.000 A 
BRANCH  11  18
ATOM     17  C   UNL     1      -1.129  12.173  18.592  0.00  0.00    +0.000 C 
ATOM     18  O   UNL     1       0.211  12.140  19.059  0.00  0.00    +0.000 OA
ENDBRANCH  11  18
ENDBRANCH   7  14
ENDBRANCH   1   8
BRANCH   6  19
ATOM     19  N   UNL     1       4.169   4.344  18.160  0.00  0.00    +0.000 N 
ATOM     20  C   UNL     1       3.883   3.908  16.876  0.00  0.00    +0.000 C 
ATOM     21  O   UNL     1       2.941   3.174  16.572  0.00  0.00    +0.000 OA
ATOM     22  H   UNL     1       4.784   5.158  18.249  0.00  0.00    +0.000 HD
BRANCH  20  23
ATOM     23  C   UNL     1       4.753   4.471  15.763  0.00  0.00    +0.000 C 
BRANCH  23  24
ATOM     24  S   UNL     1       6.497   3.983  15.917  0.00  0.00    +0.000 S 
BRANCH  24  25
ATOM     25  C   UNL     1       7.131   5.268  16.987  0.00  0.00    +0.000 A 
ATOM     26  C   UNL     1       7.640   4.878  18.231  0.00  0.00    +0.000 A 
ATOM     27  C   UNL     1       8.139   5.828  19.127  0.00  0.00    +0.000 A 
ATOM     28  C   UNL     1       8.141   7.177  18.784  0.00  0.00    +0.000 A 
ATOM     29  C   UNL     1       7.661   7.574  17.538  0.00  0.00    +0.000 A 
ATOM     30  C   UNL     1       7.167   6.624  16.640  0.00  0.00    +0.000 A 
ENDBRANCH  24  25
ENDBRANCH  23  24
ENDBRANCH  20  23
ENDBRANCH   6  19
TORSDOF 7
ENDMDL
MODEL 7
REMARK VINA RESULT:      -7.6      1.902      2.924
REMARK  Name = 
REMARK  8 active torsions:
REMARK  status: ('A' for Active; 'I' for Inactive)
REMARK    1  A    between atoms: C_1  and  O_2
REMARK    2  A    between atoms: O_2  and  C_3
REMARK    3  A    between atoms: C_6  and  N_7
REMARK    4  A    between atoms: C_8  and  C_10
REMARK    5  A    between atoms: C_15  and  N_16
REMARK    6  A    between atoms: C_17  and  C_19
REMARK    7  A    between atoms: C_19  and  S_20
REMARK    8  A    between atoms: S_20  and  C_21
REMARK                            x       y       z     vdW  Elec       q    Type
REMARK                         _______ _______ _______ _____ _____    ______ ____
ROOT
ATOM      1  C   UNL     1       2.671   4.391  19.846  0.00  0.00    +0.000 A 
ATOM      2  C   UNL     1       2.103   3.823  21.007  0.00  0.00    +0.000 A 
ATOM      3  C   UNL     1       2.669   2.697  21.605  0.00  0.00    +0.000 A 
ATOM      4  C   UNL     1       3.796   2.112  21.050  0.00  0.00    +0.000 A 
ATOM      5  C   UNL     1       4.343   2.636  19.878  0.00  0.00    +0.000 A 
ATOM      6  C   UNL     1       3.786   3.754  19.240  0.00  0.00    +0.000 A 
ENDROOT
BRANCH   1   8
ATOM      7  N   UNL     1       2.249   6.817  19.981  0.00  0.00    +0.000 N 
ATOM      8  C   UNL     1       2.067   5.638  19.259  0.00  0.00    +0.000 C 
ATOM      9  O   UNL     1       1.502   5.543  18.172  0.00  0.00    +0.000 OA
ATOM     10  H   UNL     1       2.854   6.787  20.790  0.00  0.00    +0.000 HD
BRANCH   7  14
ATOM     11  C   UNL     1       1.027  10.775  19.069  0.00  0.00    +0.000 A 
ATOM     12  C   UNL     1       1.729  10.025  18.124  0.00  0.00    +0.000 A 
ATOM     13  C   UNL     1       2.103   8.704  18.386  0.00  0.00    +0.000 A 
ATOM     14  C   UNL     1       1.816   8.117  19.615  0.00  0.00    +0.000 A 
ATOM     15  C   UNL     1       1.081   8.861  20.555  0.00  0.00    +0.000 A 
ATOM     16  C   UNL     1       0.690  10.182  20.283  0.00  0.00    +0.000 A 
BRANCH  11  18
ATOM     17  C   UNL     1      -0.572  12.478  18.656  0.00  0.00    +0.000 C 
ATOM     18  O   UNL     1       0.786  12.065  18.698  0.00  0.00    +0.000 OA
ENDBRANCH  11  18
ENDBRANCH   7  14
ENDBRANCH   1   8
BRANCH   6  19
ATOM     19  N   UNL     1       4.353   4.249  18.032  0.00  0.00    +0.000 N 
ATOM     20  C   UNL     1       4.039   3.852  16.742  0.00  0.00    +0.000 C 
ATOM     21  O   UNL     1       3.088   3.130  16.436  0.00  0.00    +0.000 OA
ATOM     22  H   UNL     1       4.972   5.058  18.132  0.00  0.00    +0.000 HD
BRANCH  20  23
ATOM     23  C   UNL     1       4.887   4.445  15.628  0.00  0.00    +0.000 C 
BRANCH  23  24
ATOM     24  S   UNL     1       6.642   3.990  15.761  0.00  0.00    +0.000 S 
BRANCH  24  25
ATOM     25  C   UNL     1       7.220   5.163  16.981  0.00  0.00    +0.000 A 
ATOM     26  C   UNL     1       7.155   6.522  16.652  0.00  0.00    +0.000 A 
ATOM     27  C   UNL     1       7.603   7.496  17.548  0.00  0.00    +0.000 A 
ATOM     28  C   UNL     1       8.112   7.121  18.789  0.00  0.00    +0.000 A 
ATOM     29  C   UNL     1       8.156   5.774  19.140  0.00  0.00    +0.000 A 
ATOM     30  C   UNL     1       7.704   4.800  18.244  0.00  0.00    +0.000 A 
ENDBRANCH  24  25
ENDBRANCH  23  24
ENDBRANCH  20  23
ENDBRANCH   6  19
TORSDOF 7
ENDMDL
MODEL 8
REMARK VINA RESULT:      -7.6      1.637      2.054
REMARK  Name = 
REMARK  8 active torsions:
REMARK  status: ('A' for Active; 'I' for Inactive)
REMARK    1  A    between atoms: C_1  and  O_2
REMARK    2  A    between atoms: O_2  and  C_3
REMARK    3  A    between atoms: C_6  and  N_7
REMARK    4  A    between atoms: C_8  and  C_10
REMARK    5  A    between atoms: C_15  and  N_16
REMARK    6  A    between atoms: C_17  and  C_19
REMARK    7  A    between atoms: C_19  and  S_20
REMARK    8  A    between atoms: S_20  and  C_21
REMARK                            x       y       z     vdW  Elec       q    Type
REMARK                         _______ _______ _______ _____ _____    ______ ____
ROOT
ATOM      1  C   UNL     1       2.523   4.927  20.251  0.00  0.00    +0.000 A 
ATOM      2  C   UNL     1       1.875   4.072  21.169  0.00  0.00    +0.000 A 
ATOM      3  C   UNL     1       2.397   2.814  21.469  0.00  0.00    +0.000 A 
ATOM      4  C   UNL     1       3.560   2.382  20.850  0.00  0.00    +0.000 A 
ATOM      5  C   UNL     1       4.188   3.198  19.908  0.00  0.00    +0.000 A 
ATOM      6  C   UNL     1       3.677   4.460  19.568  0.00  0.00    +0.000 A 
ENDROOT
BRANCH   1   8
ATOM      7  N   UNL     1       1.582   7.037  21.113  0.00  0.00    +0.000 N 
ATOM      8  C   UNL     1       1.962   6.300  19.994  0.00  0.00    +0.000 C 
ATOM      9  O   UNL     1       1.922   6.692  18.829  0.00  0.00    +0.000 OA
ATOM     10  H   UNL     1       1.797   6.657  22.025  0.00  0.00    +0.000 HD
BRANCH   7  14
ATOM     11  C   UNL     1       0.125  11.012  21.362  0.00  0.00    +0.000 A 
ATOM     12  C   UNL     1       0.877  10.612  20.257  0.00  0.00    +0.000 A 
ATOM     13  C   UNL     1       1.331   9.296  20.133  0.00  0.00    +0.000 A 
ATOM     14  C   UNL     1       1.072   8.361  21.131  0.00  0.00    +0.000 A 
ATOM     15  C   UNL     1       0.287   8.755  22.228  0.00  0.00    +0.000 A 
ATOM     16  C   UNL     1      -0.183  10.073  22.343  0.00  0.00    +0.000 A 
BRANCH  11  18
ATOM     17  C   UNL     1       0.838  13.250  21.029  0.00  0.00    +0.000 C 
ATOM     18  O   UNL     1      -0.193  12.339  21.377  0.00  0.00    +0.000 OA
ENDBRANCH  11  18
ENDBRANCH   7  14
ENDBRANCH   1   8
BRANCH   6  19
ATOM     19  N   UNL     1       4.327   5.258  18.585  0.00  0.00    +0.000 N 
ATOM     20  C   UNL     1       4.381   5.016  17.221  0.00  0.00    +0.000 C 
ATOM     21  O   UNL     1       3.720   4.161  16.628  0.00  0.00    +0.000 OA
ATOM     22  H   UNL     1       4.691   6.156  18.913  0.00  0.00    +0.000 HD
BRANCH  20  23
ATOM     23  C   UNL     1       5.255   5.955  16.404  0.00  0.00    +0.000 C 
BRANCH  23  24
ATOM     24  S   UNL     1       6.941   5.320  16.167  0.00  0.00    +0.000 S 
BRANCH  24  25
ATOM     25  C   UNL     1       6.876   4.766  14.468  0.00  0.00    +0.000 A 
ATOM     26  C   UNL     1       7.741   5.380  13.555  0.00  0.00    +0.000 A 
ATOM     27  C   UNL     1       7.736   5.010  12.208  0.00  0.00    +0.000 A 
ATOM     28  C   UNL     1       6.869   4.015  11.761  0.00  0.00    +0.000 A 
ATOM     29  C   UNL     1       6.023   3.378  12.665  0.00  0.00    +0.000 A 
ATOM     30  C   UNL     1       6.032   3.745  14.014  0.00  0.00    +0.000 A 
ENDBRANCH  24  25
ENDBRANCH  23  24
ENDBRANCH  20  23
ENDBRANCH   6  19
TORSDOF 7
ENDMDL
MODEL 9
REMARK VINA RESULT:      -7.6      4.240      5.919
REMARK  Name = 
REMARK  8 active torsions:
REMARK  status: ('A' for Active; 'I' for Inactive)
REMARK    1  A    between atoms: C_1  and  O_2
REMARK    2  A    between atoms: O_2  and  C_3
REMARK    3  A    between atoms: C_6  and  N_7
REMARK    4  A    between atoms: C_8  and  C_10
REMARK    5  A    between atoms: C_15  and  N_16
REMARK    6  A    between atoms: C_17  and  C_19
REMARK    7  A    between atoms: C_19  and  S_20
REMARK    8  A    between atoms: S_20  and  C_21
REMARK                            x       y       z     vdW  Elec       q    Type
REMARK                         _______ _______ _______ _____ _____    ______ ____
ROOT
ATOM      1  C   UNL     1       5.189   5.443  17.107  0.00  0.00    +0.000 A 
ATOM      2  C   UNL     1       4.735   4.146  16.784  0.00  0.00    +0.000 A 
ATOM      3  C   UNL     1       5.410   3.361  15.850  0.00  0.00    +0.000 A 
ATOM      4  C   UNL     1       6.536   3.860  15.213  0.00  0.00    +0.000 A 
ATOM      5  C   UNL     1       6.972   5.157  15.489  0.00  0.00    +0.000 A 
ATOM      6  C   UNL     1       6.302   5.979  16.408  0.00  0.00    +0.000 A 
ENDROOT
BRANCH   1   8
ATOM      7  N   UNL     1       3.403   7.027  17.726  0.00  0.00    +0.000 N 
ATOM      8  C   UNL     1       4.468   6.240  18.161  0.00  0.00    +0.000 C 
ATOM      9  O   UNL     1       4.832   6.108  19.327  0.00  0.00    +0.000 OA
ATOM     10  H   UNL     1       3.114   6.940  16.761  0.00  0.00    +0.000 HD
BRANCH   7  14
ATOM     11  C   UNL     1       0.720   9.434  19.961  0.00  0.00    +0.000 A 
ATOM     12  C   UNL     1       1.229   8.258  20.514  0.00  0.00    +0.000 A 
ATOM     13  C   UNL     1       2.149   7.471  19.813  0.00  0.00    +0.000 A 
ATOM     14  C   UNL     1       2.549   7.828  18.528  0.00  0.00    +0.000 A 
ATOM     15  C   UNL     1       2.062   9.028  17.985  0.00  0.00    +0.000 A 
ATOM     16  C   UNL     1       1.152   9.826  18.698  0.00  0.00    +0.000 A 
BRANCH  11  18
ATOM     17  C   UNL     1      -0.690  11.316  20.273  0.00  0.00    +0.000 C 
ATOM     18  O   UNL     1      -0.213  10.061  20.734  0.00  0.00    +0.000 OA
ENDBRANCH  11  18
ENDBRANCH   7  14
ENDBRANCH   1   8
BRANCH   6  19
ATOM     19  N   UNL     1       6.757   7.307  16.649  0.00  0.00    +0.000 N 
ATOM     20  C   UNL     1       7.579   7.729  17.682  0.00  0.00    +0.000 C 
ATOM     21  O   UNL     1       8.187   6.983  18.452  0.00  0.00    +0.000 OA
ATOM     22  H   UNL     1       6.541   7.988  15.916  0.00  0.00    +0.000 HD
BRANCH  20  23
ATOM     23  C   UNL     1       7.809   9.228  17.790  0.00  0.00    +0.000 C 
BRANCH  23  24
ATOM     24  S   UNL     1       9.069   9.659  19.027  0.00  0.00    +0.000 S 
BRANCH  24  25
ATOM     25  C   UNL     1       9.552  11.294  18.484  0.00  0.00    +0.000 A 
ATOM     26  C   UNL     1      10.721  11.402  17.722  0.00  0.00    +0.000 A 
ATOM     27  C   UNL     1      11.170  12.647  17.275  0.00  0.00    +0.000 A 
ATOM     28  C   UNL     1      10.448  13.798  17.581  0.00  0.00    +0.000 A 
ATOM     29  C   UNL     1       9.269  13.702  18.316  0.00  0.00    +0.000 A 
ATOM     30  C   UNL     1       8.818  12.455  18.758  0.00  0.00    +0.000 A 
ENDBRANCH  24  25
ENDBRANCH  23  24
ENDBRANCH  20  23
ENDBRANCH   6  19
TORSDOF 7
ENDMDL
