MODEL 1
REMARK VINA RESULT:      -7.8      0.000      0.000
REMARK  Name = 
REMARK  8 active torsions:
REMARK  status: ('A' for Active; 'I' for Inactive)
REMARK    1  A    between atoms: N_1  and  N_2
REMARK    2  A    between atoms: C_4  and  C_5
REMARK    3  A    between atoms: C_12  and  S_13
REMARK    4  A    between atoms: S_13  and  C_14
REMARK    5  A    between atoms: C_14  and  C_15
REMARK    6  A    between atoms: N_17  and  C_18
REMARK    7  A    between atoms: C_18  and  C_19
REMARK    8  A    between atoms: C_19  and  C_20
REMARK                            x       y       z     vdW  Elec       q    Type
REMARK                         _______ _______ _______ _____ _____    ______ ____
ROOT
ATOM      1  N   UNL     1       1.764   3.834  20.762  0.00  0.00    +0.000 N 
ATOM      2  C   UNL     1       1.203   5.063  20.580  0.00  0.00    +0.000 A 
ATOM      3  C   UNL     1       2.138   5.793  19.873  0.00  0.00    +0.000 A 
ATOM      4  N   UNL     1       3.250   5.015  19.600  0.00  0.00    +0.000 NA
ATOM      5  C   UNL     1       2.999   3.848  20.154  0.00  0.00    +0.000 A 
ENDROOT
BRANCH   3   6
ATOM      6  C   UNL     1       2.008   7.191  19.480  0.00  0.00    +0.000 A 
ATOM      7  C   UNL     1       2.378   7.642  18.203  0.00  0.00    +0.000 A 
ATOM      8  C   UNL     1       2.220   8.983  17.841  0.00  0.00    +0.000 A 
ATOM      9  C   UNL     1       1.692   9.893  18.752  0.00  0.00    +0.000 A 
ATOM     10  C   UNL     1       1.324   9.464  20.025  0.00  0.00    +0.000 A 
ATOM     11  C   UNL     1       1.481   8.122  20.386  0.00  0.00    +0.000 A 
ENDBRANCH   3   6
BRANCH   1  12
ATOM     12  N   UNL     1       1.134   2.778  21.478  0.00  0.00    +0.000 N 
ATOM     13  H   UNL     1       1.501   1.867  21.207  0.00  0.00    +0.000 HD
ATOM     14  H   UNL     1       1.314   2.866  22.477  0.00  0.00    +0.000 HD
ENDBRANCH   1  12
BRANCH   5  15
ATOM     15  S   UNL     1       4.051   2.466  20.167  0.00  0.00    +0.000 S 
BRANCH  15  16
ATOM     16  C   UNL     1       3.540   1.627  18.638  0.00  0.00    +0.000 C 
BRANCH  16  17
ATOM     17  C   UNL     1       3.558   2.600  17.467  0.00  0.00    +0.000 C 
ATOM     18  O   UNL     1       2.540   2.875  16.834  0.00  0.00    +0.000 OA
ATOM     19  N   UNL     1       4.780   3.189  17.199  0.00  0.00    +0.000 N 
ATOM     20  H   UNL     1       5.605   2.810  17.651  0.00  0.00    +0.000 HD
BRANCH  19  21
ATOM     21  C   UNL     1       4.930   4.092  16.066  0.00  0.00    +0.000 C 
BRANCH  21  22
ATOM     22  C   UNL     1       6.386   4.420  15.736  0.00  0.00    +0.000 C 
BRANCH  22  23
ATOM     23  C   UNL     1       7.005   5.327  16.773  0.00  0.00    +0.000 A 
ATOM     24  C   UNL     1       7.519   4.797  17.965  0.00  0.00    +0.000 A 
ATOM     25  C   UNL     1       8.060   5.637  18.941  0.00  0.00    +0.000 A 
ATOM     26  C   UNL     1       8.094   7.014  18.740  0.00  0.00    +0.000 A 
ATOM     27  C   UNL     1       7.586   7.554  17.560  0.00  0.00    +0.000 A 
ATOM     28  C   UNL     1       7.044   6.716  16.581  0.00  0.00    +0.000 A 
ENDBRANCH  22  23
ENDBRANCH  21  22
ENDBRANCH  19  21
ENDBRANCH  16  17
ENDBRANCH  15  16
ENDBRANCH   5  15
TORSDOF 8
ENDMDL
MODEL 2
REMARK VINA RESULT:      -7.3      3.515      6.829
REMARK  Name = 
REMARK  8 active torsions:
REMARK  status: ('A' for Active; 'I' for Inactive)
REMARK    1  A    between atoms: N_1  and  N_2
REMARK    2  A    between atoms: C_4  and  C_5
REMARK    3  A    between atoms: C_12  and  S_13
REMARK    4  A    between atoms: S_13  and  C_14
REMARK    5  A    between atoms: C_14  and  C_15
REMARK    6  A    between atoms: N_17  and  C_18
REMARK    7  A    between atoms: C_18  and  C_19
REMARK    8  A    between atoms: C_19  and  C_20
REMARK                            x       y       z     vdW  Elec       q    Type
REMARK                         _______ _______ _______ _____ _____    ______ ____
ROOT
ATOM      1  N   UNL     1       7.167   7.766  17.321  0.00  0.00    +0.000 N 
ATOM      2  C   UNL     1       7.525   9.080  17.374  0.00  0.00    +0.000 A 
ATOM      3  C   UNL     1       8.476   9.162  18.371  0.00  0.00    +0.000 A 
ATOM      4  N   UNL     1       8.720   7.909  18.907  0.00  0.00    +0.000 NA
ATOM      5  C   UNL     1       7.914   7.094  18.262  0.00  0.00    +0.000 A 
ENDROOT
BRANCH   3   6
ATOM      6  C   UNL     1       9.126  10.384  18.831  0.00  0.00    +0.000 A 
ATOM      7  C   UNL     1       9.365  11.467  17.970  0.00  0.00    +0.000 A 
ATOM      8  C   UNL     1       9.968  12.638  18.440  0.00  0.00    +0.000 A 
ATOM      9  C   UNL     1      10.340  12.741  19.777  0.00  0.00    +0.000 A 
ATOM     10  C   UNL     1      10.115  11.675  20.643  0.00  0.00    +0.000 A 
ATOM     11  C   UNL     1       9.511  10.505  20.173  0.00  0.00    +0.000 A 
ENDBRANCH   3   6
BRANCH   1  12
ATOM     12  N   UNL     1       6.179   7.253  16.434  0.00  0.00    +0.000 N 
ATOM     13  H   UNL     1       6.496   6.407  15.964  0.00  0.00    +0.000 HD
ATOM     14  H   UNL     1       5.340   6.989  16.949  0.00  0.00    +0.000 HD
ENDBRANCH   1  12
BRANCH   5  15
ATOM     15  S   UNL     1       7.750   5.385  18.524  0.00  0.00    +0.000 S 
BRANCH  15  16
ATOM     16  C   UNL     1       6.257   5.334  19.559  0.00  0.00    +0.000 C 
BRANCH  16  17
ATOM     17  C   UNL     1       5.050   4.924  18.727  0.00  0.00    +0.000 C 
ATOM     18  O   UNL     1       4.015   5.588  18.711  0.00  0.00    +0.000 OA
ATOM     19  N   UNL     1       5.214   3.788  17.956  0.00  0.00    +0.000 N 
ATOM     20  H   UNL     1       6.025   3.204  18.128  0.00  0.00    +0.000 HD
BRANCH  19  21
ATOM     21  C   UNL     1       4.107   3.268  17.165  0.00  0.00    +0.000 C 
BRANCH  21  22
ATOM     22  C   UNL     1       3.414   2.064  17.804  0.00  0.00    +0.000 C 
BRANCH  22  23
ATOM     23  C   UNL     1       2.668   2.448  19.059  0.00  0.00    +0.000 A 
ATOM     24  C   UNL     1       1.399   3.038  18.979  0.00  0.00    +0.000 A 
ATOM     25  C   UNL     1       0.721   3.426  20.138  0.00  0.00    +0.000 A 
ATOM     26  C   UNL     1       1.303   3.232  21.387  0.00  0.00    +0.000 A 
ATOM     27  C   UNL     1       2.564   2.647  21.481  0.00  0.00    +0.000 A 
ATOM     28  C   UNL     1       3.244   2.257  20.324  0.00  0.00    +0.000 A 
ENDBRANCH  22  23
ENDBRANCH  21  22
ENDBRANCH  19  21
ENDBRANCH  16  17
ENDBRANCH  15  16
ENDBRANCH   5  15
TORSDOF 8
ENDMDL
MODEL 3
REMARK VINA RESULT:      -7.3      2.700      5.858
REMARK  Name = 
REMARK  8 active torsions:
REMARK  status: ('A' for Active; 'I' for Inactive)
REMARK    1  A    between atoms: N_1  and  N_2
REMARK    2  A    between atoms: C_4  and  C_5
REMARK    3  A    between atoms: C_12  and  S_13
REMARK    4  A    between atoms: S_13  and  C_14
REMARK    5  A    between atoms: C_14  and  C_15
REMARK    6  A    between atoms: N_17  and  C_18
REMARK    7  A    between atoms: C_18  and  C_19
REMARK    8  A    between atoms: C_19  and  C_20
REMARK                            x       y       z     vdW  Elec       q    Type
REMARK                         _______ _______ _______ _____ _____    ______ ____
ROOT
ATOM      1  N   UNL     1       6.324   4.139  17.991  0.00  0.00    +0.000 N 
ATOM      2  C   UNL     1       5.602   3.994  19.138  0.00  0.00    +0.000 A 
ATOM      3  C   UNL     1       4.313   3.719  18.729  0.00  0.00    +0.000 A 
ATOM      4  N   UNL     1       4.246   3.669  17.347  0.00  0.00    +0.000 NA
ATOM      5  C   UNL     1       5.467   3.934  16.933  0.00  0.00    +0.000 A 
ENDROOT
BRANCH   3   6
ATOM      6  C   UNL     1       3.162   3.529  19.605  0.00  0.00    +0.000 A 
ATOM      7  C   UNL     1       1.911   4.100  19.322  0.00  0.00    +0.000 A 
ATOM      8  C   UNL     1       0.816   3.883  20.165  0.00  0.00    +0.000 A 
ATOM      9  C   UNL     1       0.958   3.094  21.302  0.00  0.00    +0.000 A 
ATOM     10  C   UNL     1       2.193   2.525  21.600  0.00  0.00    +0.000 A 
ATOM     11  C   UNL     1       3.287   2.740  20.757  0.00  0.00    +0.000 A 
ENDBRANCH   3   6
BRANCH   1  12
ATOM     12  N   UNL     1       7.710   4.461  17.967  0.00  0.00    +0.000 N 
ATOM     13  H   UNL     1       8.205   3.944  17.243  0.00  0.00    +0.000 HD
ATOM     14  H   UNL     1       7.844   5.447  17.747  0.00  0.00    +0.000 HD
ENDBRANCH   1  12
BRANCH   5  15
ATOM     15  S   UNL     1       5.994   4.041  15.282  0.00  0.00    +0.000 S 
BRANCH  15  16
ATOM     16  C   UNL     1       5.635   5.784  14.916  0.00  0.00    +0.000 C 
BRANCH  16  17
ATOM     17  C   UNL     1       5.339   6.546  16.200  0.00  0.00    +0.000 C 
ATOM     18  O   UNL     1       6.208   7.183  16.794  0.00  0.00    +0.000 OA
ATOM     19  N   UNL     1       4.022   6.516  16.622  0.00  0.00    +0.000 N 
ATOM     20  H   UNL     1       3.392   5.855  16.181  0.00  0.00    +0.000 HD
BRANCH  19  21
ATOM     21  C   UNL     1       3.634   7.160  17.869  0.00  0.00    +0.000 C 
BRANCH  21  22
ATOM     22  C   UNL     1       2.743   8.386  17.670  0.00  0.00    +0.000 C 
BRANCH  22  23
ATOM     23  C   UNL     1       1.848   8.629  18.862  0.00  0.00    +0.000 A 
ATOM     24  C   UNL     1       1.966   7.837  20.013  0.00  0.00    +0.000 A 
ATOM     25  C   UNL     1       1.116   8.036  21.103  0.00  0.00    +0.000 A 
ATOM     26  C   UNL     1       0.138   9.026  21.057  0.00  0.00    +0.000 A 
ATOM     27  C   UNL     1       0.009   9.819  19.919  0.00  0.00    +0.000 A 
ATOM     28  C   UNL     1       0.858   9.623  18.826  0.00  0.00    +0.000 A 
ENDBRANCH  22  23
ENDBRANCH  21  22
ENDBRANCH  19  21
ENDBRANCH  16  17
ENDBRANCH  15  16
ENDBRANCH   5  15
TORSDOF 8
ENDMDL
MODEL 4
REMARK VINA RESULT:      -7.3      3.873      5.883
REMARK  Name = 
REMARK  8 active torsions:
REMARK  status: ('A' for Active; 'I' for Inactive)
REMARK    1  A    between atoms: N_1  and  N_2
REMARK    2  A    between atoms: C_4  and  C_5
REMARK    3  A    between atoms: C_12  and  S_13
REMARK    4  A    between atoms: S_13  and  C_14
REMARK    5  A    between atoms: C_14  and  C_15
REMARK    6  A    between atoms: N_17  and  C_18
REMARK    7  A    between atoms: C_18  and  C_19
REMARK    8  A    between atoms: C_19  and  C_20
REMARK                            x       y       z     vdW  Elec       q    Type
REMARK                         _______ _______ _______ _____ _____    ______ ____
ROOT
ATOM      1  N   UNL     1       3.184   7.428  17.905  0.00  0.00    +0.000 N 
ATOM      2  C   UNL     1       2.416   6.827  18.857  0.00  0.00    +0.000 A 
ATOM      3  C   UNL     1       2.853   5.518  18.909  0.00  0.00    +0.000 A 
ATOM      4  N   UNL     1       3.895   5.323  18.019  0.00  0.00    +0.000 NA
ATOM      5  C   UNL     1       4.065   6.484  17.425  0.00  0.00    +0.000 A 
ENDROOT
BRANCH   3   6
ATOM      6  C   UNL     1       2.297   4.467  19.753  0.00  0.00    +0.000 A 
ATOM      7  C   UNL     1       2.618   4.360  21.115  0.00  0.00    +0.000 A 
ATOM      8  C   UNL     1       2.052   3.358  21.910  0.00  0.00    +0.000 A 
ATOM      9  C   UNL     1       1.158   2.449  21.353  0.00  0.00    +0.000 A 
ATOM     10  C   UNL     1       0.832   2.538  20.002  0.00  0.00    +0.000 A 
ATOM     11  C   UNL     1       1.397   3.540  19.208  0.00  0.00    +0.000 A 
ENDBRANCH   3   6
BRANCH   1  12
ATOM     12  N   UNL     1       3.037   8.789  17.516  0.00  0.00    +0.000 N 
ATOM     13  H   UNL     1       3.838   9.118  16.980  0.00  0.00    +0.000 HD
ATOM     14  H   UNL     1       2.228   8.901  16.906  0.00  0.00    +0.000 HD
ENDBRANCH   1  12
BRANCH   5  15
ATOM     15  S   UNL     1       5.219   6.846  16.179  0.00  0.00    +0.000 S 
BRANCH  15  16
ATOM     16  C   UNL     1       6.674   5.938  16.781  0.00  0.00    +0.000 C 
BRANCH  16  17
ATOM     17  C   UNL     1       7.437   6.774  17.800  0.00  0.00    +0.000 C 
ATOM     18  O   UNL     1       7.779   6.318  18.890  0.00  0.00    +0.000 OA
ATOM     19  N   UNL     1       7.762   8.056  17.397  0.00  0.00    +0.000 N 
ATOM     20  H   UNL     1       7.323   8.422  16.559  0.00  0.00    +0.000 HD
BRANCH  19  21
ATOM     21  C   UNL     1       8.439   8.966  18.311  0.00  0.00    +0.000 C 
BRANCH  21  22
ATOM     22  C   UNL     1       8.521  10.401  17.793  0.00  0.00    +0.000 C 
BRANCH  22  23
ATOM     23  C   UNL     1       9.566  11.205  18.530  0.00  0.00    +0.000 A 
ATOM     24  C   UNL     1      10.349  12.147  17.849  0.00  0.00    +0.000 A 
ATOM     25  C   UNL     1      11.340  12.867  18.521  0.00  0.00    +0.000 A 
ATOM     26  C   UNL     1      11.563  12.652  19.878  0.00  0.00    +0.000 A 
ATOM     27  C   UNL     1      10.792  11.718  20.567  0.00  0.00    +0.000 A 
ATOM     28  C   UNL     1       9.799  10.997  19.898  0.00  0.00    +0.000 A 
ENDBRANCH  22  23
ENDBRANCH  21  22
ENDBRANCH  19  21
ENDBRANCH  16  17
ENDBRANCH  15  16
ENDBRANCH   5  15
TORSDOF 8
ENDMDL
MODEL 5
REMARK VINA RESULT:      -7.3      2.712      5.877
REMARK  Name = 
REMARK  8 active torsions:
REMARK  status: ('A' for Active; 'I' for Inactive)
REMARK    1  A    between atoms: N_1  and  N_2
REMARK    2  A    between atoms: C_4  and  C_5
REMARK    3  A    between atoms: C_12  and  S_13
REMARK    4  A    between atoms: S_13  and  C_14
REMARK    5  A    between atoms: C_14  and  C_15
REMARK    6  A    between atoms: N_17  and  C_18
REMARK    7  A    between atoms: C_18  and  C_19
REMARK    8  A    between atoms: C_19  and  C_20
REMARK                            x       y       z     vdW  Elec       q    Type
REMARK                         _______ _______ _______ _____ _____    ______ ____
ROOT
ATOM      1  N   UNL     1       6.377   4.311  18.263  0.00  0.00    +0.000 N 
ATOM      2  C   UNL     1       5.443   4.125  19.238  0.00  0.00    +0.000 A 
ATOM      3  C   UNL     1       4.294   3.740  18.576  0.00  0.00    +0.000 A 
ATOM      4  N   UNL     1       4.525   3.664  17.213  0.00  0.00    +0.000 NA
ATOM      5  C   UNL     1       5.782   4.021  17.056  0.00  0.00    +0.000 A 
ENDROOT
BRANCH   3   6
ATOM      6  C   UNL     1       3.002   3.470  19.197  0.00  0.00    +0.000 A 
ATOM      7  C   UNL     1       2.697   3.907  20.496  0.00  0.00    +0.000 A 
ATOM      8  C   UNL     1       1.442   3.658  21.061  0.00  0.00    +0.000 A 
ATOM      9  C   UNL     1       0.476   2.968  20.335  0.00  0.00    +0.000 A 
ATOM     10  C   UNL     1       0.763   2.524  19.047  0.00  0.00    +0.000 A 
ATOM     11  C   UNL     1       2.018   2.774  18.482  0.00  0.00    +0.000 A 
ENDBRANCH   3   6
BRANCH   1  12
ATOM     12  N   UNL     1       7.708   4.745  18.520  0.00  0.00    +0.000 N 
ATOM     13  H   UNL     1       8.392   4.032  18.275  0.00  0.00    +0.000 HD
ATOM     14  H   UNL     1       7.936   5.558  17.949  0.00  0.00    +0.000 HD
ENDBRANCH   1  12
BRANCH   5  15
ATOM     15  S   UNL     1       6.637   4.146  15.550  0.00  0.00    +0.000 S 
BRANCH  15  16
ATOM     16  C   UNL     1       6.096   5.784  14.978  0.00  0.00    +0.000 C 
BRANCH  16  17
ATOM     17  C   UNL     1       5.771   6.680  16.166  0.00  0.00    +0.000 C 
ATOM     18  O   UNL     1       6.646   7.285  16.783  0.00  0.00    +0.000 OA
ATOM     19  N   UNL     1       4.428   6.807  16.469  0.00  0.00    +0.000 N 
ATOM     20  H   UNL     1       3.774   6.169  16.027  0.00  0.00    +0.000 HD
BRANCH  19  21
ATOM     21  C   UNL     1       4.003   7.590  17.620  0.00  0.00    +0.000 C 
BRANCH  21  22
ATOM     22  C   UNL     1       2.595   8.169  17.479  0.00  0.00    +0.000 C 
BRANCH  22  23
ATOM     23  C   UNL     1       1.924   8.347  18.820  0.00  0.00    +0.000 A 
ATOM     24  C   UNL     1       1.172   9.498  19.092  0.00  0.00    +0.000 A 
ATOM     25  C   UNL     1       0.579   9.682  20.343  0.00  0.00    +0.000 A 
ATOM     26  C   UNL     1       0.733   8.720  21.339  0.00  0.00    +0.000 A 
ATOM     27  C   UNL     1       1.479   7.572  21.083  0.00  0.00    +0.000 A 
ATOM     28  C   UNL     1       2.073   7.385  19.831  0.00  0.00    +0.000 A 
ENDBRANCH  22  23
ENDBRANCH  21  22
ENDBRANCH  19  21
ENDBRANCH  16  17
ENDBRANCH  15  16
ENDBRANCH   5  15
TORSDOF 8
ENDMDL
MODEL 6
REMARK VINA RESULT:      -7.2      3.388      4.743
REMARK  Name = 
REMARK  8 active torsions:
REMARK  status: ('A' for Active; 'I' for Inactive)
REMARK    1  A    between atoms: N_1  and  N_2
REMARK    2  A    between atoms: C_4  and  C_5
REMARK    3  A    between atoms: C_12  and  S_13
REMARK    4  A    between atoms: S_13  and  C_14
REMARK    5  A    between atoms: C_14  and  C_15
REMARK    6  A    between atoms: N_17  and  C_18
REMARK    7  A    between atoms: C_18  and  C_19
REMARK    8  A    between atoms: C_19  and  C_20
REMARK                            x       y       z     vdW  Elec       q    Type
REMARK                         _______ _______ _______ _____ _____    ______ ____
ROOT
ATOM      1  N   UNL     1       3.871   4.753  17.582  0.00  0.00    +0.000 N 
ATOM      2  C   UNL     1       2.879   5.374  18.281  0.00  0.00    +0.000 A 
ATOM      3  C   UNL     1       3.067   6.724  18.064  0.00  0.00    +0.000 A 
ATOM      4  N   UNL     1       4.145   6.932  17.221  0.00  0.00    +0.000 NA
ATOM      5  C   UNL     1       4.612   5.730  16.955  0.00  0.00    +0.000 A 
ENDROOT
BRANCH   3   6
ATOM      6  C   UNL     1       2.274   7.799  18.649  0.00  0.00    +0.000 A 
ATOM      7  C   UNL     1       1.883   7.785  19.998  0.00  0.00    +0.000 A 
ATOM      8  C   UNL     1       1.143   8.840  20.542  0.00  0.00    +0.000 A 
ATOM      9  C   UNL     1       0.784   9.923  19.745  0.00  0.00    +0.000 A 
ATOM     10  C   UNL     1       1.159   9.951  18.405  0.00  0.00    +0.000 A 
ATOM     11  C   UNL     1       1.900   8.896  17.861  0.00  0.00    +0.000 A 
ENDBRANCH   3   6
BRANCH   1  12
ATOM     12  N   UNL     1       4.057   3.342  17.560  0.00  0.00    +0.000 N 
ATOM     13  H   UNL     1       3.498   2.877  18.273  0.00  0.00    +0.000 HD
ATOM     14  H   UNL     1       3.752   2.955  16.669  0.00  0.00    +0.000 HD
ENDBRANCH   1  12
BRANCH   5  15
ATOM     15  S   UNL     1       5.988   5.356  15.965  0.00  0.00    +0.000 S 
BRANCH  15  16
ATOM     16  C   UNL     1       7.270   5.111  17.230  0.00  0.00    +0.000 C 
BRANCH  16  17
ATOM     17  C   UNL     1       7.610   6.434  17.902  0.00  0.00    +0.000 C 
ATOM     18  O   UNL     1       8.014   6.490  19.062  0.00  0.00    +0.000 OA
ATOM     19  N   UNL     1       7.486   7.558  17.105  0.00  0.00    +0.000 N 
ATOM     20  H   UNL     1       7.006   7.466  16.216  0.00  0.00    +0.000 HD
BRANCH  19  21
ATOM     21  C   UNL     1       7.728   8.883  17.659  0.00  0.00    +0.000 C 
BRANCH  21  22
ATOM     22  C   UNL     1       8.825   8.909  18.723  0.00  0.00    +0.000 C 
BRANCH  22  23
ATOM     23  C   UNL     1       9.301  10.314  19.004  0.00  0.00    +0.000 A 
ATOM     24  C   UNL     1       9.503  10.745  20.323  0.00  0.00    +0.000 A 
ATOM     25  C   UNL     1       9.909  12.055  20.589  0.00  0.00    +0.000 A 
ATOM     26  C   UNL     1      10.115  12.950  19.542  0.00  0.00    +0.000 A 
ATOM     27  C   UNL     1       9.917  12.535  18.227  0.00  0.00    +0.000 A 
ATOM     28  C   UNL     1       9.511  11.224  17.958  0.00  0.00    +0.000 A 
ENDBRANCH  22  23
ENDBRANCH  21  22
ENDBRANCH  19  21
ENDBRANCH  16  17
ENDBRANCH  15  16
ENDBRANCH   5  15
TORSDOF 8
ENDMDL
MODEL 7
REMARK VINA RESULT:      -7.2      4.063      6.256
REMARK  Name = 
REMARK  8 active torsions:
REMARK  status: ('A' for Active; 'I' for Inactive)
REMARK    1  A    between atoms: N_1  and  N_2
REMARK    2  A    between atoms: C_4  and  C_5
REMARK    3  A    between atoms: C_12  and  S_13
REMARK    4  A    between atoms: S_13  and  C_14
REMARK    5  A    between atoms: C_14  and  C_15
REMARK    6  A    between atoms: N_17  and  C_18
REMARK    7  A    between atoms: C_18  and  C_19
REMARK    8  A    between atoms: C_19  and  C_20
REMARK                            x       y       z     vdW  Elec       q    Type
REMARK                         _______ _______ _______ _____ _____    ______ ____
ROOT
ATOM      1  N   UNL     1       5.559   4.165  16.392  0.00  0.00    +0.000 N 
ATOM      2  C   UNL     1       4.241   3.871  16.574  0.00  0.00    +0.000 A 
ATOM      3  C   UNL     1       4.044   3.894  17.940  0.00  0.00    +0.000 A 
ATOM      4  N   UNL     1       5.220   4.224  18.590  0.00  0.00    +0.000 NA
ATOM      5  C   UNL     1       6.113   4.373  17.635  0.00  0.00    +0.000 A 
ENDROOT
BRANCH   3   6
ATOM      6  C   UNL     1       2.793   3.591  18.626  0.00  0.00    +0.000 A 
ATOM      7  C   UNL     1       1.937   2.566  18.193  0.00  0.00    +0.000 A 
ATOM      8  C   UNL     1       0.754   2.279  18.882  0.00  0.00    +0.000 A 
ATOM      9  C   UNL     1       0.413   3.012  20.014  0.00  0.00    +0.000 A 
ATOM     10  C   UNL     1       1.248   4.035  20.455  0.00  0.00    +0.000 A 
ATOM     11  C   UNL     1       2.430   4.322  19.766  0.00  0.00    +0.000 A 
ENDBRANCH   3   6
BRANCH   1  12
ATOM     12  N   UNL     1       6.187   4.217  15.116  0.00  0.00    +0.000 N 
ATOM     13  H   UNL     1       7.129   3.830  15.143  0.00  0.00    +0.000 HD
ATOM     14  H   UNL     1       5.672   3.653  14.441  0.00  0.00    +0.000 HD
ENDBRANCH   1  12
BRANCH   5  15
ATOM     15  S   UNL     1       7.792   4.764  17.846  0.00  0.00    +0.000 S 
BRANCH  15  16
ATOM     16  C   UNL     1       7.676   6.208  18.944  0.00  0.00    +0.000 C 
BRANCH  16  17
ATOM     17  C   UNL     1       7.783   7.496  18.139  0.00  0.00    +0.000 C 
ATOM     18  O   UNL     1       7.079   7.706  17.152  0.00  0.00    +0.000 OA
ATOM     19  N   UNL     1       8.682   8.429  18.622  0.00  0.00    +0.000 N 
ATOM     20  H   UNL     1       9.336   8.139  19.340  0.00  0.00    +0.000 HD
BRANCH  19  21
ATOM     21  C   UNL     1       8.910   9.674  17.900  0.00  0.00    +0.000 C 
BRANCH  21  22
ATOM     22  C   UNL     1       8.725  10.922  18.763  0.00  0.00    +0.000 C 
BRANCH  22  23
ATOM     23  C   UNL     1       9.996  11.732  18.858  0.00  0.00    +0.000 A 
ATOM     24  C   UNL     1      11.013  11.358  19.748  0.00  0.00    +0.000 A 
ATOM     25  C   UNL     1      12.174  12.125  19.863  0.00  0.00    +0.000 A 
ATOM     26  C   UNL     1      12.333  13.276  19.095  0.00  0.00    +0.000 A 
ATOM     27  C   UNL     1      11.329  13.659  18.208  0.00  0.00    +0.000 A 
ATOM     28  C   UNL     1      10.166  12.893  18.090  0.00  0.00    +0.000 A 
ENDBRANCH  22  23
ENDBRANCH  21  22
ENDBRANCH  19  21
ENDBRANCH  16  17
ENDBRANCH  15  16
ENDBRANCH   5  15
TORSDOF 8
ENDMDL
MODEL 8
REMARK VINA RESULT:      -7.1      1.321      1.355
REMARK  Name = 
REMARK  8 active torsions:
REMARK  status: ('A' for Active; 'I' for Inactive)
REMARK    1  A    between atoms: N_1  and  N_2
REMARK    2  A    between atoms: C_4  and  C_5
REMARK    3  A    between atoms: C_12  and  S_13
REMARK    4  A    between atoms: S_13  and  C_14
REMARK    5  A    between atoms: C_14  and  C_15
REMARK    6  A    between atoms: N_17  and  C_18
REMARK    7  A    between atoms: C_18  and  C_19
REMARK    8  A    between atoms: C_19  and  C_20
REMARK                            x       y       z     vdW  Elec       q    Type
REMARK                         _______ _______ _______ _____ _____    ______ ____
ROOT
ATOM      1  N   UNL     1       1.956   4.063  20.945  0.00  0.00    +0.000 N 
ATOM      2  C   UNL     1       2.015   5.421  21.041  0.00  0.00    +0.000 A 
ATOM      3  C   UNL     1       1.817   5.888  19.757  0.00  0.00    +0.000 A 
ATOM      4  N   UNL     1       1.614   4.832  18.886  0.00  0.00    +0.000 NA
ATOM      5  C   UNL     1       1.712   3.749  19.627  0.00  0.00    +0.000 A 
ENDROOT
BRANCH   3   6
ATOM      6  C   UNL     1       1.841   7.288  19.347  0.00  0.00    +0.000 A 
ATOM      7  C   UNL     1       2.340   7.687  18.096  0.00  0.00    +0.000 A 
ATOM      8  C   UNL     1       2.330   9.032  17.715  0.00  0.00    +0.000 A 
ATOM      9  C   UNL     1       1.821   9.997  18.579  0.00  0.00    +0.000 A 
ATOM     10  C   UNL     1       1.326   9.619  19.825  0.00  0.00    +0.000 A 
ATOM     11  C   UNL     1       1.336   8.274  20.205  0.00  0.00    +0.000 A 
ENDBRANCH   3   6
BRANCH   1  12
ATOM     12  N   UNL     1       2.141   3.185  22.051  0.00  0.00    +0.000 N 
ATOM     13  H   UNL     1       3.039   3.336  22.507  0.00  0.00    +0.000 HD
ATOM     14  H   UNL     1       1.433   3.355  22.764  0.00  0.00    +0.000 HD
ENDBRANCH   1  12
BRANCH   5  15
ATOM     15  S   UNL     1       1.575   2.108  19.076  0.00  0.00    +0.000 S 
BRANCH  15  16
ATOM     16  C   UNL     1       3.265   1.504  19.364  0.00  0.00    +0.000 C 
BRANCH  16  17
ATOM     17  C   UNL     1       4.283   2.503  18.831  0.00  0.00    +0.000 C 
ATOM     18  O   UNL     1       5.166   2.976  19.546  0.00  0.00    +0.000 OA
ATOM     19  N   UNL     1       4.180   2.800  17.485  0.00  0.00    +0.000 N 
ATOM     20  H   UNL     1       3.347   2.501  16.990  0.00  0.00    +0.000 HD
BRANCH  19  21
ATOM     21  C   UNL     1       5.063   3.786  16.878  0.00  0.00    +0.000 C 
BRANCH  21  22
ATOM     22  C   UNL     1       4.728   5.226  17.268  0.00  0.00    +0.000 C 
BRANCH  22  23
ATOM     23  C   UNL     1       5.963   6.005  17.654  0.00  0.00    +0.000 A 
ATOM     24  C   UNL     1       6.858   5.493  18.604  0.00  0.00    +0.000 A 
ATOM     25  C   UNL     1       7.983   6.227  18.989  0.00  0.00    +0.000 A 
ATOM     26  C   UNL     1       8.225   7.480  18.434  0.00  0.00    +0.000 A 
ATOM     27  C   UNL     1       7.343   8.001  17.490  0.00  0.00    +0.000 A 
ATOM     28  C   UNL     1       6.217   7.269  17.102  0.00  0.00    +0.000 A 
ENDBRANCH  22  23
ENDBRANCH  21  22
ENDBRANCH  19  21
ENDBRANCH  16  17
ENDBRANCH  15  16
ENDBRANCH   5  15
TORSDOF 8
ENDMDL
MODEL 9
REMARK VINA RESULT:      -7.1      1.658      5.561
REMARK  Name = 
REMARK  8 active torsions:
REMARK  status: ('A' for Active; 'I' for Inactive)
REMARK    1  A    between atoms: N_1  and  N_2
REMARK    2  A    between atoms: C_4  and  C_5
REMARK    3  A    between atoms: C_12  and  S_13
REMARK    4  A    between atoms: S_13  and  C_14
REMARK    5  A    between atoms: C_14  and  C_15
REMARK    6  A    between atoms: N_17  and  C_18
REMARK    7  A    between atoms: C_18  and  C_19
REMARK    8  A    between atoms: C_19  and  C_20
REMARK                            x       y       z     vdW  Elec       q    Type
REMARK                         _______ _______ _______ _____ _____    ______ ____
ROOT
ATOM      1  N   UNL     1       3.076   3.892  17.783  0.00  0.00    +0.000 N 
ATOM      2  C   UNL     1       3.848   4.943  17.387  0.00  0.00    +0.000 A 
ATOM      3  C   UNL     1       4.979   4.886  18.176  0.00  0.00    +0.000 A 
ATOM      4  N   UNL     1       4.917   3.797  19.029  0.00  0.00    +0.000 NA
ATOM      5  C   UNL     1       3.759   3.225  18.775  0.00  0.00    +0.000 A 
ENDROOT
BRANCH   3   6
ATOM      6  C   UNL     1       6.084   5.838  18.152  0.00  0.00    +0.000 A 
ATOM      7  C   UNL     1       6.115   6.918  17.256  0.00  0.00    +0.000 A 
ATOM      8  C   UNL     1       7.173   7.832  17.270  0.00  0.00    +0.000 A 
ATOM      9  C   UNL     1       8.216   7.677  18.178  0.00  0.00    +0.000 A 
ATOM     10  C   UNL     1       8.204   6.609  19.070  0.00  0.00    +0.000 A 
ATOM     11  C   UNL     1       7.145   5.695  19.058  0.00  0.00    +0.000 A 
ENDBRANCH   3   6
BRANCH   1  12
ATOM     12  N   UNL     1       1.795   3.604  17.234  0.00  0.00    +0.000 N 
ATOM     13  H   UNL     1       1.857   2.960  16.448  0.00  0.00    +0.000 HD
ATOM     14  H   UNL     1       1.205   3.144  17.926  0.00  0.00    +0.000 HD
ENDBRANCH   1  12
BRANCH   5  15
ATOM     15  S   UNL     1       3.110   1.821  19.562  0.00  0.00    +0.000 S 
BRANCH  15  16
ATOM     16  C   UNL     1       2.460   2.550  21.094  0.00  0.00    +0.000 C 
BRANCH  16  17
ATOM     17  C   UNL     1       1.674   3.817  20.786  0.00  0.00    +0.000 C 
ATOM     18  O   UNL     1       0.545   3.780  20.299  0.00  0.00    +0.000 OA
ATOM     19  N   UNL     1       2.291   5.004  21.138  0.00  0.00    +0.000 N 
ATOM     20  H   UNL     1       3.273   4.977  21.390  0.00  0.00    +0.000 HD
BRANCH  19  21
ATOM     21  C   UNL     1       1.658   6.280  20.838  0.00  0.00    +0.000 C 
BRANCH  21  22
ATOM     22  C   UNL     1       2.442   7.128  19.836  0.00  0.00    +0.000 C 
BRANCH  22  23
ATOM     23  C   UNL     1       1.708   8.399  19.481  0.00  0.00    +0.000 A 
ATOM     24  C   UNL     1       0.954   9.079  20.449  0.00  0.00    +0.000 A 
ATOM     25  C   UNL     1       0.246  10.236  20.115  0.00  0.00    +0.000 A 
ATOM     26  C   UNL     1       0.278  10.725  18.812  0.00  0.00    +0.000 A 
ATOM     27  C   UNL     1       1.022  10.059  17.840  0.00  0.00    +0.000 A 
ATOM     28  C   UNL     1       1.733   8.902  18.171  0.00  0.00    +0.000 A 
ENDBRANCH  22  23
ENDBRANCH  21  22
ENDBRANCH  19  21
ENDBRANCH  16  17
ENDBRANCH  15  16
ENDBRANCH   5  15
TORSDOF 8
ENDMDL
