MODEL 1
REMARK VINA RESULT:      -6.8      0.000      0.000
REMARK  Name = 
REMARK  6 active torsions:
REMARK  status: ('A' for Active; 'I' for Inactive)
REMARK    1  A    between atoms: C_1  and  C_2
REMARK    2  A    between atoms: C_2  and  O_3
REMARK    3  A    between atoms: O_3  and  C_4
REMARK    4  A    between atoms: C_4  and  C_6
REMARK    5  A    between atoms: C_6  and  C_7
REMARK    6  A    between atoms: C_6  and  N_8
REMARK                            x       y       z     vdW  Elec       q    Type
REMARK                         _______ _______ _______ _____ _____    ______ ____
ROOT
ATOM      1  N   UNL     1       3.578   4.435  18.666  0.00  0.00    +0.000 NA
ATOM      2  C   UNL     1       3.490   5.182  17.382  0.00  0.00    +0.000 C 
ATOM      3  C   UNL     1       4.778   5.201  16.524  0.00  0.00    +0.000 C 
ATOM      4  N   UNL     1       5.979   5.355  17.335  0.00  0.00    +0.000 N 
ATOM      5  C   UNL     1       7.219   5.788  16.919  0.00  0.00    +0.000 C 
ATOM      6  O   UNL     1       7.535   6.106  15.787  0.00  0.00    +0.000 OA
ATOM      7  N   UNL     1       8.015   5.848  18.022  0.00  0.00    +0.000 N 
ATOM      8  C   UNL     1       7.307   5.523  19.147  0.00  0.00    +0.000 C 
ATOM      9  O   UNL     1       7.693   5.657  20.296  0.00  0.00    +0.000 OA
ATOM     10  C   UNL     1       6.045   4.828  18.683  0.00  0.00    +0.000 C 
ATOM     11  C   UNL     1       4.734   5.006  19.438  0.00  0.00    +0.000 C 
ATOM     12  H   UNL     1       8.936   6.252  18.014  0.00  0.00    +0.000 HD
ENDROOT
BRANCH   1  13
ATOM     13  C   UNL     1       3.740   2.960  18.449  0.00  0.00    +0.000 C 
ATOM     14  C   UNL     1       2.629   2.291  17.629  0.00  0.00    +0.000 C 
BRANCH  13  15
ATOM     15  C   UNL     1       3.856   2.204  19.777  0.00  0.00    +0.000 C 
ATOM     16  O   UNL     1       4.922   1.796  20.227  0.00  0.00    +0.000 OA
BRANCH  15  17
ATOM     17  O   UNL     1       2.628   1.984  20.325  0.00  0.00    +0.000 OA
BRANCH  17  19
ATOM     18  C   UNL     1       1.149   3.746  20.942  0.00  0.00    +0.000 C 
ATOM     19  C   UNL     1       2.282   2.849  21.411  0.00  0.00    +0.000 C 
ENDBRANCH  17  19
ENDBRANCH  15  17
ENDBRANCH  13  15
ENDBRANCH   1  13
TORSDOF 4
ENDMDL
MODEL 2
REMARK VINA RESULT:      -6.8      1.936      5.591
REMARK  Name = 
REMARK  6 active torsions:
REMARK  status: ('A' for Active; 'I' for Inactive)
REMARK    1  A    between atoms: C_1  and  C_2
REMARK    2  A    between atoms: C_2  and  O_3
REMARK    3  A    between atoms: O_3  and  C_4
REMARK    4  A    between atoms: C_4  and  C_6
REMARK    5  A    between atoms: C_6  and  C_7
REMARK    6  A    between atoms: C_6  and  N_8
REMARK                            x       y       z     vdW  Elec       q    Type
REMARK                         _______ _______ _______ _____ _____    ______ ____
ROOT
ATOM      1  N   UNL     1       4.574   5.537  16.861  0.00  0.00    +0.000 NA
ATOM      2  C   UNL     1       3.607   6.371  17.626  0.00  0.00    +0.000 C 
ATOM      3  C   UNL     1       3.423   5.994  19.115  0.00  0.00    +0.000 C 
ATOM      4  N   UNL     1       3.410   4.552  19.321  0.00  0.00    +0.000 N 
ATOM      5  C   UNL     1       2.899   3.867  20.402  0.00  0.00    +0.000 C 
ATOM      6  O   UNL     1       2.378   4.351  21.390  0.00  0.00    +0.000 OA
ATOM      7  N   UNL     1       3.035   2.538  20.137  0.00  0.00    +0.000 N 
ATOM      8  C   UNL     1       3.564   2.346  18.890  0.00  0.00    +0.000 C 
ATOM      9  O   UNL     1       3.638   1.279  18.302  0.00  0.00    +0.000 OA
ATOM     10  C   UNL     1       4.172   3.666  18.466  0.00  0.00    +0.000 C 
ATOM     11  C   UNL     1       4.145   4.104  17.008  0.00  0.00    +0.000 C 
ATOM     12  H   UNL     1       2.630   1.818  20.711  0.00  0.00    +0.000 HD
ENDROOT
BRANCH   1  13
ATOM     13  C   UNL     1       5.983   5.736  17.332  0.00  0.00    +0.000 C 
ATOM     14  C   UNL     1       6.397   7.195  17.567  0.00  0.00    +0.000 C 
BRANCH  13  15
ATOM     15  C   UNL     1       6.995   5.118  16.361  0.00  0.00    +0.000 C 
ATOM     16  O   UNL     1       7.872   4.335  16.713  0.00  0.00    +0.000 OA
BRANCH  15  17
ATOM     17  O   UNL     1       6.836   5.618  15.103  0.00  0.00    +0.000 OA
BRANCH  17  19
ATOM     18  C   UNL     1       5.901   3.902  13.740  0.00  0.00    +0.000 C 
ATOM     19  C   UNL     1       7.152   4.710  14.043  0.00  0.00    +0.000 C 
ENDBRANCH  17  19
ENDBRANCH  15  17
ENDBRANCH  13  15
ENDBRANCH   1  13
TORSDOF 4
ENDMDL
MODEL 3
REMARK VINA RESULT:      -6.7      2.003      3.152
REMARK  Name = 
REMARK  6 active torsions:
REMARK  status: ('A' for Active; 'I' for Inactive)
REMARK    1  A    between atoms: C_1  and  C_2
REMARK    2  A    between atoms: C_2  and  O_3
REMARK    3  A    between atoms: O_3  and  C_4
REMARK    4  A    between atoms: C_4  and  C_6
REMARK    5  A    between atoms: C_6  and  C_7
REMARK    6  A    between atoms: C_6  and  N_8
REMARK                            x       y       z     vdW  Elec       q    Type
REMARK                         _______ _______ _______ _____ _____    ______ ____
ROOT
ATOM      1  N   UNL     1       4.025   3.880  18.504  0.00  0.00    +0.000 NA
ATOM      2  C   UNL     1       5.224   4.344  19.253  0.00  0.00    +0.000 C 
ATOM      3  C   UNL     1       5.970   5.557  18.647  0.00  0.00    +0.000 C 
ATOM      4  N   UNL     1       6.043   5.490  17.193  0.00  0.00    +0.000 N 
ATOM      5  C   UNL     1       6.926   6.154  16.369  0.00  0.00    +0.000 C 
ATOM      6  O   UNL     1       7.796   6.931  16.713  0.00  0.00    +0.000 OA
ATOM      7  N   UNL     1       6.679   5.736  15.097  0.00  0.00    +0.000 N 
ATOM      8  C   UNL     1       5.703   4.777  15.083  0.00  0.00    +0.000 C 
ATOM      9  O   UNL     1       5.391   4.090  14.125  0.00  0.00    +0.000 OA
ATOM     10  C   UNL     1       4.995   4.856  16.419  0.00  0.00    +0.000 C 
ATOM     11  C   UNL     1       4.458   3.600  17.092  0.00  0.00    +0.000 C 
ATOM     12  H   UNL     1       7.266   5.975  14.316  0.00  0.00    +0.000 HD
ENDROOT
BRANCH   1  13
ATOM     13  C   UNL     1       2.913   4.886  18.545  0.00  0.00    +0.000 C 
ATOM     14  C   UNL     1       2.871   5.767  19.801  0.00  0.00    +0.000 C 
BRANCH  13  15
ATOM     15  C   UNL     1       1.542   4.217  18.401  0.00  0.00    +0.000 C 
ATOM     16  O   UNL     1       1.016   3.990  17.316  0.00  0.00    +0.000 OA
BRANCH  15  17
ATOM     17  O   UNL     1       0.973   3.998  19.619  0.00  0.00    +0.000 OA
BRANCH  17  19
ATOM     18  C   UNL     1       1.566   2.699  21.526  0.00  0.00    +0.000 C 
ATOM     19  C   UNL     1       1.055   2.650  20.096  0.00  0.00    +0.000 C 
ENDBRANCH  17  19
ENDBRANCH  15  17
ENDBRANCH  13  15
ENDBRANCH   1  13
TORSDOF 4
ENDMDL
MODEL 4
REMARK VINA RESULT:      -6.5      1.936      5.676
REMARK  Name = 
REMARK  6 active torsions:
REMARK  status: ('A' for Active; 'I' for Inactive)
REMARK    1  A    between atoms: C_1  and  C_2
REMARK    2  A    between atoms: C_2  and  O_3
REMARK    3  A    between atoms: O_3  and  C_4
REMARK    4  A    between atoms: C_4  and  C_6
REMARK    5  A    between atoms: C_6  and  C_7
REMARK    6  A    between atoms: C_6  and  N_8
REMARK                            x       y       z     vdW  Elec       q    Type
REMARK                         _______ _______ _______ _____ _____    ______ ____
ROOT
ATOM      1  N   UNL     1       4.981   3.448  18.600  0.00  0.00    +0.000 NA
ATOM      2  C   UNL     1       4.252   2.644  17.581  0.00  0.00    +0.000 C 
ATOM      3  C   UNL     1       2.713   2.804  17.573  0.00  0.00    +0.000 C 
ATOM      4  N   UNL     1       2.159   2.885  18.917  0.00  0.00    +0.000 N 
ATOM      5  C   UNL     1       0.857   2.647  19.301  0.00  0.00    +0.000 C 
ATOM      6  O   UNL     1      -0.070   2.339  18.575  0.00  0.00    +0.000 OA
ATOM      7  N   UNL     1       0.810   2.767  20.657  0.00  0.00    +0.000 N 
ATOM      8  C   UNL     1       2.056   3.015  21.164  0.00  0.00    +0.000 C 
ATOM      9  O   UNL     1       2.363   2.995  22.345  0.00  0.00    +0.000 OA
ATOM     10  C   UNL     1       2.916   3.471  20.005  0.00  0.00    +0.000 C 
ATOM     11  C   UNL     1       4.394   3.110  19.942  0.00  0.00    +0.000 C 
ATOM     12  H   UNL     1       0.001   2.521  21.203  0.00  0.00    +0.000 HD
ENDROOT
BRANCH   1  13
ATOM     13  C   UNL     1       4.897   4.919  18.321  0.00  0.00    +0.000 C 
ATOM     14  C   UNL     1       4.605   5.295  16.863  0.00  0.00    +0.000 C 
BRANCH  13  15
ATOM     15  C   UNL     1       6.178   5.647  18.740  0.00  0.00    +0.000 C 
ATOM     16  O   UNL     1       6.812   5.363  19.752  0.00  0.00    +0.000 OA
BRANCH  15  17
ATOM     17  O   UNL     1       6.455   6.679  17.895  0.00  0.00    +0.000 OA
BRANCH  17  19
ATOM     18  C   UNL     1       7.927   8.549  17.794  0.00  0.00    +0.000 C 
ATOM     19  C   UNL     1       7.838   7.032  17.796  0.00  0.00    +0.000 C 
ENDBRANCH  17  19
ENDBRANCH  15  17
ENDBRANCH  13  15
ENDBRANCH   1  13
TORSDOF 4
ENDMDL
MODEL 5
REMARK VINA RESULT:      -6.5      1.108      1.133
REMARK  Name = 
REMARK  6 active torsions:
REMARK  status: ('A' for Active; 'I' for Inactive)
REMARK    1  A    between atoms: C_1  and  C_2
REMARK    2  A    between atoms: C_2  and  O_3
REMARK    3  A    between atoms: O_3  and  C_4
REMARK    4  A    between atoms: C_4  and  C_6
REMARK    5  A    between atoms: C_6  and  C_7
REMARK    6  A    between atoms: C_6  and  N_8
REMARK                            x       y       z     vdW  Elec       q    Type
REMARK                         _______ _______ _______ _____ _____    ______ ____
ROOT
ATOM      1  N   UNL     1       3.873   4.241  18.736  0.00  0.00    +0.000 NA
ATOM      2  C   UNL     1       3.376   4.406  17.343  0.00  0.00    +0.000 C 
ATOM      3  C   UNL     1       4.441   4.281  16.228  0.00  0.00    +0.000 C 
ATOM      4  N   UNL     1       5.700   4.916  16.594  0.00  0.00    +0.000 N 
ATOM      5  C   UNL     1       6.703   5.332  15.746  0.00  0.00    +0.000 C 
ATOM      6  O   UNL     1       6.721   5.227  14.534  0.00  0.00    +0.000 OA
ATOM      7  N   UNL     1       7.653   5.935  16.514  0.00  0.00    +0.000 N 
ATOM      8  C   UNL     1       7.263   5.973  17.825  0.00  0.00    +0.000 C 
ATOM      9  O   UNL     1       7.813   6.600  18.715  0.00  0.00    +0.000 OA
ATOM     10  C   UNL     1       6.137   4.972  17.974  0.00  0.00    +0.000 C 
ATOM     11  C   UNL     1       4.985   5.232  18.935  0.00  0.00    +0.000 C 
ATOM     12  H   UNL     1       8.435   6.436  16.128  0.00  0.00    +0.000 HD
ENDROOT
BRANCH   1  13
ATOM     13  C   UNL     1       4.336   2.840  19.005  0.00  0.00    +0.000 C 
ATOM     14  C   UNL     1       3.562   1.739  18.268  0.00  0.00    +0.000 C 
BRANCH  13  15
ATOM     15  C   UNL     1       4.297   2.511  20.502  0.00  0.00    +0.000 C 
ATOM     16  O   UNL     1       5.013   1.662  21.022  0.00  0.00    +0.000 OA
BRANCH  15  17
ATOM     17  O   UNL     1       3.320   3.219  21.134  0.00  0.00    +0.000 OA
BRANCH  17  19
ATOM     18  C   UNL     1       0.978   3.169  20.700  0.00  0.00    +0.000 C 
ATOM     19  C   UNL     1       2.126   2.485  21.424  0.00  0.00    +0.000 C 
ENDBRANCH  17  19
ENDBRANCH  15  17
ENDBRANCH  13  15
ENDBRANCH   1  13
TORSDOF 4
ENDMDL
MODEL 6
REMARK VINA RESULT:      -6.4      2.218      5.933
REMARK  Name = 
REMARK  6 active torsions:
REMARK  status: ('A' for Active; 'I' for Inactive)
REMARK    1  A    between atoms: C_1  and  C_2
REMARK    2  A    between atoms: C_2  and  O_3
REMARK    3  A    between atoms: O_3  and  C_4
REMARK    4  A    between atoms: C_4  and  C_6
REMARK    5  A    between atoms: C_6  and  C_7
REMARK    6  A    between atoms: C_6  and  N_8
REMARK                            x       y       z     vdW  Elec       q    Type
REMARK                         _______ _______ _______ _____ _____    ______ ____
ROOT
ATOM      1  N   UNL     1       5.294   5.172  17.048  0.00  0.00    +0.000 NA
ATOM      2  C   UNL     1       5.425   5.583  18.473  0.00  0.00    +0.000 C 
ATOM      3  C   UNL     1       5.340   4.442  19.514  0.00  0.00    +0.000 C 
ATOM      4  N   UNL     1       4.327   3.454  19.168  0.00  0.00    +0.000 N 
ATOM      5  C   UNL     1       3.719   2.550  20.012  0.00  0.00    +0.000 C 
ATOM      6  O   UNL     1       3.936   2.406  21.201  0.00  0.00    +0.000 OA
ATOM      7  N   UNL     1       2.788   1.879  19.278  0.00  0.00    +0.000 N 
ATOM      8  C   UNL     1       2.736   2.367  18.001  0.00  0.00    +0.000 C 
ATOM      9  O   UNL     1       1.887   2.096  17.167  0.00  0.00    +0.000 OA
ATOM     10  C   UNL     1       4.005   3.164  17.786  0.00  0.00    +0.000 C 
ATOM     11  C   UNL     1       4.003   4.415  16.917  0.00  0.00    +0.000 C 
ATOM     12  H   UNL     1       2.119   1.248  19.684  0.00  0.00    +0.000 HD
ENDROOT
BRANCH   1  13
ATOM     13  C   UNL     1       6.460   4.347  16.592  0.00  0.00    +0.000 C 
ATOM     14  C   UNL     1       7.759   4.552  17.382  0.00  0.00    +0.000 C 
BRANCH  13  15
ATOM     15  C   UNL     1       6.775   4.586  15.111  0.00  0.00    +0.000 C 
ATOM     16  O   UNL     1       7.531   5.469  14.719  0.00  0.00    +0.000 OA
BRANCH  15  17
ATOM     17  O   UNL     1       6.046   3.755  14.315  0.00  0.00    +0.000 OA
BRANCH  17  19
ATOM     18  C   UNL     1       5.246   3.361  12.106  0.00  0.00    +0.000 C 
ATOM     19  C   UNL     1       6.466   3.699  12.948  0.00  0.00    +0.000 C 
ENDBRANCH  17  19
ENDBRANCH  15  17
ENDBRANCH  13  15
ENDBRANCH   1  13
TORSDOF 4
ENDMDL
MODEL 7
REMARK VINA RESULT:      -6.4      2.264      5.971
REMARK  Name = 
REMARK  6 active torsions:
REMARK  status: ('A' for Active; 'I' for Inactive)
REMARK    1  A    between atoms: C_1  and  C_2
REMARK    2  A    between atoms: C_2  and  O_3
REMARK    3  A    between atoms: O_3  and  C_4
REMARK    4  A    between atoms: C_4  and  C_6
REMARK    5  A    between atoms: C_6  and  C_7
REMARK    6  A    between atoms: C_6  and  N_8
REMARK                            x       y       z     vdW  Elec       q    Type
REMARK                         _______ _______ _______ _____ _____    ______ ____
ROOT
ATOM      1  N   UNL     1       5.126   5.616  17.775  0.00  0.00    +0.000 NA
ATOM      2  C   UNL     1       5.356   5.239  19.196  0.00  0.00    +0.000 C 
ATOM      3  C   UNL     1       4.768   3.877  19.636  0.00  0.00    +0.000 C 
ATOM      4  N   UNL     1       3.454   3.630  19.057  0.00  0.00    +0.000 N 
ATOM      5  C   UNL     1       2.495   2.748  19.505  0.00  0.00    +0.000 C 
ATOM      6  O   UNL     1       2.585   2.003  20.463  0.00  0.00    +0.000 OA
ATOM      7  N   UNL     1       1.402   2.904  18.708  0.00  0.00    +0.000 N 
ATOM      8  C   UNL     1       1.607   3.904  17.797  0.00  0.00    +0.000 C 
ATOM      9  O   UNL     1       0.756   4.393  17.072  0.00  0.00    +0.000 OA
ATOM     10  C   UNL     1       3.098   4.157  17.755  0.00  0.00    +0.000 C 
ATOM     11  C   UNL     1       3.644   5.561  17.530  0.00  0.00    +0.000 C 
ATOM     12  H   UNL     1       0.517   2.465  18.897  0.00  0.00    +0.000 HD
ENDROOT
BRANCH   1  13
ATOM     13  C   UNL     1       5.869   4.721  16.829  0.00  0.00    +0.000 C 
ATOM     14  C   UNL     1       7.370   4.569  17.111  0.00  0.00    +0.000 C 
BRANCH  13  15
ATOM     15  C   UNL     1       5.716   5.184  15.376  0.00  0.00    +0.000 C 
ATOM     16  O   UNL     1       5.750   6.363  15.039  0.00  0.00    +0.000 OA
BRANCH  15  17
ATOM     17  O   UNL     1       5.457   4.131  14.551  0.00  0.00    +0.000 OA
BRANCH  17  19
ATOM     18  C   UNL     1       5.700   3.349  12.314  0.00  0.00    +0.000 C 
ATOM     19  C   UNL     1       6.429   3.909  13.525  0.00  0.00    +0.000 C 
ENDBRANCH  17  19
ENDBRANCH  15  17
ENDBRANCH  13  15
ENDBRANCH   1  13
TORSDOF 4
ENDMDL
MODEL 8
REMARK VINA RESULT:      -6.3      2.050      5.438
REMARK  Name = 
REMARK  6 active torsions:
REMARK  status: ('A' for Active; 'I' for Inactive)
REMARK    1  A    between atoms: C_1  and  C_2
REMARK    2  A    between atoms: C_2  and  O_3
REMARK    3  A    between atoms: O_3  and  C_4
REMARK    4  A    between atoms: C_4  and  C_6
REMARK    5  A    between atoms: C_6  and  C_7
REMARK    6  A    between atoms: C_6  and  N_8
REMARK                            x       y       z     vdW  Elec       q    Type
REMARK                         _______ _______ _______ _____ _____    ______ ____
ROOT
ATOM      1  N   UNL     1       3.187   4.643  17.481  0.00  0.00    +0.000 NA
ATOM      2  C   UNL     1       1.749   4.446  17.809  0.00  0.00    +0.000 C 
ATOM      3  C   UNL     1       1.417   4.278  19.311  0.00  0.00    +0.000 C 
ATOM      4  N   UNL     1       2.405   3.465  20.007  0.00  0.00    +0.000 N 
ATOM      5  C   UNL     1       2.248   2.802  21.205  0.00  0.00    +0.000 C 
ATOM      6  O   UNL     1       1.253   2.793  21.906  0.00  0.00    +0.000 OA
ATOM      7  N   UNL     1       3.399   2.111  21.436  0.00  0.00    +0.000 N 
ATOM      8  C   UNL     1       4.270   2.260  20.391  0.00  0.00    +0.000 C 
ATOM      9  O   UNL     1       5.300   1.628  20.225  0.00  0.00    +0.000 OA
ATOM     10  C   UNL     1       3.793   3.455  19.593  0.00  0.00    +0.000 C 
ATOM     11  C   UNL     1       3.945   3.491  18.078  0.00  0.00    +0.000 C 
ATOM     12  H   UNL     1       3.500   1.446  22.183  0.00  0.00    +0.000 HD
ENDROOT
BRANCH   1  13
ATOM     13  C   UNL     1       3.703   5.958  17.986  0.00  0.00    +0.000 C 
ATOM     14  C   UNL     1       2.697   7.116  17.950  0.00  0.00    +0.000 C 
BRANCH  13  15
ATOM     15  C   UNL     1       4.952   6.404  17.220  0.00  0.00    +0.000 C 
ATOM     16  O   UNL     1       4.944   6.684  16.025  0.00  0.00    +0.000 OA
BRANCH  15  17
ATOM     17  O   UNL     1       6.057   6.365  18.017  0.00  0.00    +0.000 OA
BRANCH  17  19
ATOM     18  C   UNL     1       7.596   4.587  17.637  0.00  0.00    +0.000 C 
ATOM     19  C   UNL     1       7.280   6.045  17.347  0.00  0.00    +0.000 C 
ENDBRANCH  17  19
ENDBRANCH  15  17
ENDBRANCH  13  15
ENDBRANCH   1  13
TORSDOF 4
ENDMDL
MODEL 9
REMARK VINA RESULT:      -6.3      2.280      5.701
REMARK  Name = 
REMARK  6 active torsions:
REMARK  status: ('A' for Active; 'I' for Inactive)
REMARK    1  A    between atoms: C_1  and  C_2
REMARK    2  A    between atoms: C_2  and  O_3
REMARK    3  A    between atoms: O_3  and  C_4
REMARK    4  A    between atoms: C_4  and  C_6
REMARK    5  A    between atoms: C_6  and  C_7
REMARK    6  A    between atoms: C_6  and  N_8
REMARK                            x       y       z     vdW  Elec       q    Type
REMARK                         _______ _______ _______ _____ _____    ______ ____
ROOT
ATOM      1  N   UNL     1       4.862   4.208  18.036  0.00  0.00    +0.000 NA
ATOM      2  C   UNL     1       4.508   2.776  17.838  0.00  0.00    +0.000 C 
ATOM      3  C   UNL     1       2.997   2.462  17.742  0.00  0.00    +0.000 C 
ATOM      4  N   UNL     1       2.209   3.247  18.684  0.00  0.00    +0.000 N 
ATOM      5  C   UNL     1       0.939   2.973  19.143  0.00  0.00    +0.000 C 
ATOM      6  O   UNL     1       0.240   2.028  18.827  0.00  0.00    +0.000 OA
ATOM      7  N   UNL     1       0.629   3.930  20.061  0.00  0.00    +0.000 N 
ATOM      8  C   UNL     1       1.685   4.778  20.251  0.00  0.00    +0.000 C 
ATOM      9  O   UNL     1       1.776   5.619  21.131  0.00  0.00    +0.000 OA
ATOM     10  C   UNL     1       2.622   4.578  19.079  0.00  0.00    +0.000 C 
ATOM     11  C   UNL     1       4.131   4.686  19.259  0.00  0.00    +0.000 C 
ATOM     12  H   UNL     1      -0.194   3.892  20.638  0.00  0.00    +0.000 HD
ENDROOT
BRANCH   1  13
ATOM     13  C   UNL     1       4.522   5.042  16.837  0.00  0.00    +0.000 C 
ATOM     14  C   UNL     1       5.110   4.550  15.507  0.00  0.00    +0.000 C 
BRANCH  13  15
ATOM     15  C   UNL     1       4.953   6.500  17.023  0.00  0.00    +0.000 C 
ATOM     16  O   UNL     1       4.198   7.378  17.428  0.00  0.00    +0.000 OA
BRANCH  15  17
ATOM     17  O   UNL     1       6.236   6.690  16.604  0.00  0.00    +0.000 OA
BRANCH  17  19
ATOM     18  C   UNL     1       7.797   8.182  17.610  0.00  0.00    +0.000 C 
ATOM     19  C   UNL     1       7.211   6.781  17.648  0.00  0.00    +0.000 C 
ENDBRANCH  17  19
ENDBRANCH  15  17
ENDBRANCH  13  15
ENDBRANCH   1  13
TORSDOF 4
ENDMDL
