MODEL 1
REMARK VINA RESULT:      -7.1      0.000      0.000
REMARK  Name = 
REMARK  3 active torsions:
REMARK  status: ('A' for Active; 'I' for Inactive)
REMARK    1  A    between atoms: C_2  and  C_3
REMARK    2  A    between atoms: C_2  and  C_16
REMARK    3  A    between atoms: C_3  and  N_4
REMARK                            x       y       z     vdW  Elec       q    Type
REMARK                         _______ _______ _______ _____ _____    ______ ____
ROOT
ATOM      1  N   UNL     1       3.828   4.972  18.310  0.00  0.00    +0.000 N 
ATOM      2  C   UNL     1       3.407   4.232  19.434  0.00  0.00    +0.000 C 
ATOM      3  N   UNL     1       3.203   2.978  19.491  0.00  0.00    +0.000 NA
ATOM      4  C   UNL     1       2.341   2.714  20.629  0.00  0.00    +0.000 C 
ATOM      5  C   UNL     1       2.049   4.111  21.264  0.00  0.00    +0.000 C 
ATOM      6  N   UNL     1       2.797   4.982  20.406  0.00  0.00    +0.000 N 
ATOM      7  C   UNL     1       2.578   6.232  19.794  0.00  0.00    +0.000 A 
ATOM      8  C   UNL     1       1.831   7.323  20.237  0.00  0.00    +0.000 A 
ATOM      9  C   UNL     1       1.735   8.439  19.384  0.00  0.00    +0.000 A 
ATOM     10  C   UNL     1       2.364   8.436  18.118  0.00  0.00    +0.000 A 
ATOM     11  C   UNL     1       3.106   7.321  17.690  0.00  0.00    +0.000 A 
ATOM     12  C   UNL     1       3.208   6.233  18.554  0.00  0.00    +0.000 A 
ENDROOT
BRANCH   1  13
ATOM     13  C   UNL     1       4.059   4.402  17.005  0.00  0.00    +0.000 C 
BRANCH  13  15
ATOM     14  O   UNL     1       5.996   3.595  15.874  0.00  0.00    +0.000 OA
ATOM     15  C   UNL     1       5.528   4.418  16.654  0.00  0.00    +0.000 C 
BRANCH  15  16
ATOM     16  C   UNL     1       6.411   5.436  17.235  0.00  0.00    +0.000 A 
ATOM     17  C   UNL     1       6.545   6.746  16.793  0.00  0.00    +0.000 A 
ATOM     18  C   UNL     1       7.459   7.485  17.552  0.00  0.00    +0.000 A 
ATOM     19  C   UNL     1       8.045   6.758  18.579  0.00  0.00    +0.000 A 
ATOM     20  S   UNL     1       7.425   5.197  18.556  0.00  0.00    +0.000 S 
ENDBRANCH  15  16
ENDBRANCH  13  15
ENDBRANCH   1  13
TORSDOF 3
ENDMDL
MODEL 2
REMARK VINA RESULT:      -7.0      3.038      5.722
REMARK  Name = 
REMARK  3 active torsions:
REMARK  status: ('A' for Active; 'I' for Inactive)
REMARK    1  A    between atoms: C_2  and  C_3
REMARK    2  A    between atoms: C_2  and  C_16
REMARK    3  A    between atoms: C_3  and  N_4
REMARK                            x       y       z     vdW  Elec       q    Type
REMARK                         _______ _______ _______ _____ _____    ______ ____
ROOT
ATOM      1  N   UNL     1       4.797   4.167  16.832  0.00  0.00    +0.000 N 
ATOM      2  C   UNL     1       5.307   4.371  15.535  0.00  0.00    +0.000 C 
ATOM      3  N   UNL     1       5.232   3.571  14.549  0.00  0.00    +0.000 NA
ATOM      4  C   UNL     1       6.268   3.931  13.597  0.00  0.00    +0.000 C 
ATOM      5  C   UNL     1       7.016   5.146  14.234  0.00  0.00    +0.000 C 
ATOM      6  N   UNL     1       6.293   5.321  15.459  0.00  0.00    +0.000 N 
ATOM      7  C   UNL     1       6.628   5.581  16.803  0.00  0.00    +0.000 A 
ATOM      8  C   UNL     1       7.687   6.319  17.331  0.00  0.00    +0.000 A 
ATOM      9  C   UNL     1       7.816   6.366  18.732  0.00  0.00    +0.000 A 
ATOM     10  C   UNL     1       6.908   5.673  19.564  0.00  0.00    +0.000 A 
ATOM     11  C   UNL     1       5.852   4.929  19.008  0.00  0.00    +0.000 A 
ATOM     12  C   UNL     1       5.725   4.910  17.620  0.00  0.00    +0.000 A 
ENDROOT
BRANCH   1  13
ATOM     13  C   UNL     1       4.127   2.962  17.259  0.00  0.00    +0.000 C 
BRANCH  13  15
ATOM     14  O   UNL     1       1.850   3.598  16.952  0.00  0.00    +0.000 OA
ATOM     15  C   UNL     1       2.726   3.259  17.741  0.00  0.00    +0.000 C 
BRANCH  15  16
ATOM     16  C   UNL     1       2.395   3.128  19.165  0.00  0.00    +0.000 A 
ATOM     17  C   UNL     1       1.176   3.443  19.750  0.00  0.00    +0.000 A 
ATOM     18  C   UNL     1       1.157   3.206  21.128  0.00  0.00    +0.000 A 
ATOM     19  C   UNL     1       2.356   2.714  21.624  0.00  0.00    +0.000 A 
ATOM     20  S   UNL     1       3.443   2.563  20.353  0.00  0.00    +0.000 S 
ENDBRANCH  15  16
ENDBRANCH  13  15
ENDBRANCH   1  13
TORSDOF 3
ENDMDL
MODEL 3
REMARK VINA RESULT:      -6.8      2.873      5.409
REMARK  Name = 
REMARK  3 active torsions:
REMARK  status: ('A' for Active; 'I' for Inactive)
REMARK    1  A    between atoms: C_2  and  C_3
REMARK    2  A    between atoms: C_2  and  C_16
REMARK    3  A    between atoms: C_3  and  N_4
REMARK                            x       y       z     vdW  Elec       q    Type
REMARK                         _______ _______ _______ _____ _____    ______ ____
ROOT
ATOM      1  N   UNL     1       3.002   5.808  18.157  0.00  0.00    +0.000 N 
ATOM      2  C   UNL     1       2.392   4.539  18.088  0.00  0.00    +0.000 C 
ATOM      3  N   UNL     1       1.627   4.010  18.955  0.00  0.00    +0.000 NA
ATOM      4  C   UNL     1       1.626   2.574  18.739  0.00  0.00    +0.000 C 
ATOM      5  C   UNL     1       2.586   2.334  17.530  0.00  0.00    +0.000 C 
ATOM      6  N   UNL     1       2.994   3.671  17.213  0.00  0.00    +0.000 N 
ATOM      7  C   UNL     1       4.205   4.306  16.872  0.00  0.00    +0.000 A 
ATOM      8  C   UNL     1       5.302   3.812  16.168  0.00  0.00    +0.000 A 
ATOM      9  C   UNL     1       6.418   4.657  16.021  0.00  0.00    +0.000 A 
ATOM     10  C   UNL     1       6.422   5.953  16.586  0.00  0.00    +0.000 A 
ATOM     11  C   UNL     1       5.306   6.426  17.299  0.00  0.00    +0.000 A 
ATOM     12  C   UNL     1       4.201   5.585  17.418  0.00  0.00    +0.000 A 
ENDROOT
BRANCH   1  13
ATOM     13  C   UNL     1       2.876   6.707  19.278  0.00  0.00    +0.000 C 
BRANCH  13  15
ATOM     14  O   UNL     1       2.142   8.369  17.735  0.00  0.00    +0.000 OA
ATOM     15  C   UNL     1       2.124   7.960  18.891  0.00  0.00    +0.000 C 
BRANCH  15  16
ATOM     16  C   UNL     1       1.350   8.693  19.899  0.00  0.00    +0.000 A 
ATOM     17  C   UNL     1       1.131   8.289  21.210  0.00  0.00    +0.000 A 
ATOM     18  C   UNL     1       0.360   9.201  21.938  0.00  0.00    +0.000 A 
ATOM     19  C   UNL     1      -0.031  10.311  21.202  0.00  0.00    +0.000 A 
ATOM     20  S   UNL     1       0.586  10.170  19.646  0.00  0.00    +0.000 S 
ENDBRANCH  15  16
ENDBRANCH  13  15
ENDBRANCH   1  13
TORSDOF 3
ENDMDL
MODEL 4
REMARK VINA RESULT:      -6.8      1.179      1.431
REMARK  Name = 
REMARK  3 active torsions:
REMARK  status: ('A' for Active; 'I' for Inactive)
REMARK    1  A    between atoms: C_2  and  C_3
REMARK    2  A    between atoms: C_2  and  C_16
REMARK    3  A    between atoms: C_3  and  N_4
REMARK                            x       y       z     vdW  Elec       q    Type
REMARK                         _______ _______ _______ _____ _____    ______ ____
ROOT
ATOM      1  N   UNL     1       4.361   4.614  17.593  0.00  0.00    +0.000 N 
ATOM      2  C   UNL     1       3.803   3.596  18.392  0.00  0.00    +0.000 C 
ATOM      3  N   UNL     1       3.630   2.378  18.069  0.00  0.00    +0.000 NA
ATOM      4  C   UNL     1       2.621   1.818  18.950  0.00  0.00    +0.000 C 
ATOM      5  C   UNL     1       2.198   2.986  19.897  0.00  0.00    +0.000 C 
ATOM      6  N   UNL     1       3.037   4.052  19.434  0.00  0.00    +0.000 N 
ATOM      7  C   UNL     1       2.872   5.426  19.167  0.00  0.00    +0.000 A 
ATOM      8  C   UNL     1       2.037   6.359  19.780  0.00  0.00    +0.000 A 
ATOM      9  C   UNL     1       2.033   7.669  19.266  0.00  0.00    +0.000 A 
ATOM     10  C   UNL     1       2.838   8.012  18.155  0.00  0.00    +0.000 A 
ATOM     11  C   UNL     1       3.667   7.051  17.549  0.00  0.00    +0.000 A 
ATOM     12  C   UNL     1       3.675   5.764  18.083  0.00  0.00    +0.000 A 
ENDROOT
BRANCH   1  13
ATOM     13  C   UNL     1       4.794   4.427  16.229  0.00  0.00    +0.000 C 
BRANCH  13  15
ATOM     14  O   UNL     1       6.884   4.330  15.087  0.00  0.00    +0.000 OA
ATOM     15  C   UNL     1       6.274   4.698  16.085  0.00  0.00    +0.000 C 
BRANCH  15  16
ATOM     16  C   UNL     1       6.994   5.422  17.139  0.00  0.00    +0.000 A 
ATOM     17  C   UNL     1       7.540   4.860  18.286  0.00  0.00    +0.000 A 
ATOM     18  C   UNL     1       8.174   5.801  19.103  0.00  0.00    +0.000 A 
ATOM     19  C   UNL     1       8.122   7.096  18.605  0.00  0.00    +0.000 A 
ATOM     20  S   UNL     1       7.294   7.077  17.144  0.00  0.00    +0.000 S 
ENDBRANCH  15  16
ENDBRANCH  13  15
ENDBRANCH   1  13
TORSDOF 3
ENDMDL
MODEL 5
REMARK VINA RESULT:      -6.7      2.315      4.920
REMARK  Name = 
REMARK  3 active torsions:
REMARK  status: ('A' for Active; 'I' for Inactive)
REMARK    1  A    between atoms: C_2  and  C_3
REMARK    2  A    between atoms: C_2  and  C_16
REMARK    3  A    between atoms: C_3  and  N_4
REMARK                            x       y       z     vdW  Elec       q    Type
REMARK                         _______ _______ _______ _____ _____    ______ ____
ROOT
ATOM      1  N   UNL     1       4.519   4.664  18.510  0.00  0.00    +0.000 N 
ATOM      2  C   UNL     1       5.152   4.930  17.279  0.00  0.00    +0.000 C 
ATOM      3  N   UNL     1       6.323   4.580  16.930  0.00  0.00    +0.000 NA
ATOM      4  C   UNL     1       6.746   5.443  15.842  0.00  0.00    +0.000 C 
ATOM      5  C   UNL     1       5.555   6.426  15.602  0.00  0.00    +0.000 C 
ATOM      6  N   UNL     1       4.609   5.979  16.581  0.00  0.00    +0.000 N 
ATOM      7  C   UNL     1       3.737   6.594  17.502  0.00  0.00    +0.000 A 
ATOM      8  C   UNL     1       3.058   7.808  17.410  0.00  0.00    +0.000 A 
ATOM      9  C   UNL     1       2.290   8.212  18.519  0.00  0.00    +0.000 A 
ATOM     10  C   UNL     1       2.230   7.414  19.684  0.00  0.00    +0.000 A 
ATOM     11  C   UNL     1       2.930   6.197  19.755  0.00  0.00    +0.000 A 
ATOM     12  C   UNL     1       3.669   5.801  18.642  0.00  0.00    +0.000 A 
ENDROOT
BRANCH   1  13
ATOM     13  C   UNL     1       5.143   3.965  19.607  0.00  0.00    +0.000 C 
BRANCH  13  15
ATOM     14  O   UNL     1       4.999   1.723  20.403  0.00  0.00    +0.000 OA
ATOM     15  C   UNL     1       4.405   2.686  19.930  0.00  0.00    +0.000 C 
BRANCH  15  16
ATOM     16  C   UNL     1       2.960   2.591  19.692  0.00  0.00    +0.000 A 
ATOM     17  C   UNL     1       1.963   2.895  20.610  0.00  0.00    +0.000 A 
ATOM     18  C   UNL     1       0.676   2.715  20.093  0.00  0.00    +0.000 A 
ATOM     19  C   UNL     1       0.662   2.266  18.780  0.00  0.00    +0.000 A 
ATOM     20  S   UNL     1       2.247   2.098  18.251  0.00  0.00    +0.000 S 
ENDBRANCH  15  16
ENDBRANCH  13  15
ENDBRANCH   1  13
TORSDOF 3
ENDMDL
MODEL 6
REMARK VINA RESULT:      -6.7      2.689      5.661
REMARK  Name = 
REMARK  3 active torsions:
REMARK  status: ('A' for Active; 'I' for Inactive)
REMARK    1  A    between atoms: C_2  and  C_3
REMARK    2  A    between atoms: C_2  and  C_16
REMARK    3  A    between atoms: C_3  and  N_4
REMARK                            x       y       z     vdW  Elec       q    Type
REMARK                         _______ _______ _______ _____ _____    ______ ____
ROOT
ATOM      1  N   UNL     1       4.691   4.541  17.515  0.00  0.00    +0.000 N 
ATOM      2  C   UNL     1       5.820   4.734  18.336  0.00  0.00    +0.000 C 
ATOM      3  N   UNL     1       5.866   5.366  19.438  0.00  0.00    +0.000 NA
ATOM      4  C   UNL     1       7.247   5.736  19.689  0.00  0.00    +0.000 C 
ATOM      5  C   UNL     1       8.053   5.189  18.468  0.00  0.00    +0.000 C 
ATOM      6  N   UNL     1       7.020   4.569  17.692  0.00  0.00    +0.000 N 
ATOM      7  C   UNL     1       6.676   4.510  16.327  0.00  0.00    +0.000 A 
ATOM      8  C   UNL     1       7.496   4.535  15.200  0.00  0.00    +0.000 A 
ATOM      9  C   UNL     1       6.873   4.521  13.938  0.00  0.00    +0.000 A 
ATOM     10  C   UNL     1       5.463   4.498  13.829  0.00  0.00    +0.000 A 
ATOM     11  C   UNL     1       4.657   4.480  14.981  0.00  0.00    +0.000 A 
ATOM     12  C   UNL     1       5.290   4.474  16.223  0.00  0.00    +0.000 A 
ENDROOT
BRANCH   1  13
ATOM     13  C   UNL     1       3.384   5.085  17.794  0.00  0.00    +0.000 C 
BRANCH  13  15
ATOM     14  O   UNL     1       1.710   3.515  17.152  0.00  0.00    +0.000 OA
ATOM     15  C   UNL     1       2.382   3.987  18.063  0.00  0.00    +0.000 C 
BRANCH  15  16
ATOM     16  C   UNL     1       2.214   3.462  19.424  0.00  0.00    +0.000 A 
ATOM     17  C   UNL     1       1.061   3.546  20.193  0.00  0.00    +0.000 A 
ATOM     18  C   UNL     1       1.200   2.947  21.449  0.00  0.00    +0.000 A 
ATOM     19  C   UNL     1       2.457   2.401  21.668  0.00  0.00    +0.000 A 
ATOM     20  S   UNL     1       3.400   2.652  20.301  0.00  0.00    +0.000 S 
ENDBRANCH  15  16
ENDBRANCH  13  15
ENDBRANCH   1  13
TORSDOF 3
ENDMDL
MODEL 7
REMARK VINA RESULT:      -6.6      3.141      5.567
REMARK  Name = 
REMARK  3 active torsions:
REMARK  status: ('A' for Active; 'I' for Inactive)
REMARK    1  A    between atoms: C_2  and  C_3
REMARK    2  A    between atoms: C_2  and  C_16
REMARK    3  A    between atoms: C_3  and  N_4
REMARK                            x       y       z     vdW  Elec       q    Type
REMARK                         _______ _______ _______ _____ _____    ______ ____
ROOT
ATOM      1  N   UNL     1       2.270   6.047  19.010  0.00  0.00    +0.000 N 
ATOM      2  C   UNL     1       1.697   4.798  19.323  0.00  0.00    +0.000 C 
ATOM      3  N   UNL     1       1.214   4.438  20.443  0.00  0.00    +0.000 NA
ATOM      4  C   UNL     1       1.189   2.986  20.476  0.00  0.00    +0.000 C 
ATOM      5  C   UNL     1       1.783   2.528  19.106  0.00  0.00    +0.000 C 
ATOM      6  N   UNL     1       2.054   3.784  18.472  0.00  0.00    +0.000 N 
ATOM      7  C   UNL     1       3.108   4.327  17.709  0.00  0.00    +0.000 A 
ATOM      8  C   UNL     1       3.979   3.699  16.820  0.00  0.00    +0.000 A 
ATOM      9  C   UNL     1       4.990   4.483  16.233  0.00  0.00    +0.000 A 
ATOM     10  C   UNL     1       5.117   5.854  16.553  0.00  0.00    +0.000 A 
ATOM     11  C   UNL     1       4.231   6.463  17.458  0.00  0.00    +0.000 A 
ATOM     12  C   UNL     1       3.223   5.678  18.015  0.00  0.00    +0.000 A 
ENDROOT
BRANCH   1  13
ATOM     13  C   UNL     1       2.436   7.123  19.957  0.00  0.00    +0.000 C 
BRANCH  13  15
ATOM     14  O   UNL     1       1.657   8.713  18.362  0.00  0.00    +0.000 OA
ATOM     15  C   UNL     1       1.661   8.348  19.533  0.00  0.00    +0.000 C 
BRANCH  15  16
ATOM     16  C   UNL     1       0.890   9.109  20.523  0.00  0.00    +0.000 A 
ATOM     17  C   UNL     1       0.454   8.636  21.754  0.00  0.00    +0.000 A 
ATOM     18  C   UNL     1      -0.253   9.596  22.485  0.00  0.00    +0.000 A 
ATOM     19  C   UNL     1      -0.378  10.813  21.831  0.00  0.00    +0.000 A 
ATOM     20  S   UNL     1       0.396  10.707  20.344  0.00  0.00    +0.000 S 
ENDBRANCH  15  16
ENDBRANCH  13  15
ENDBRANCH   1  13
TORSDOF 3
ENDMDL
MODEL 8
REMARK VINA RESULT:      -6.6      3.113      5.794
REMARK  Name = 
REMARK  3 active torsions:
REMARK  status: ('A' for Active; 'I' for Inactive)
REMARK    1  A    between atoms: C_2  and  C_3
REMARK    2  A    between atoms: C_2  and  C_16
REMARK    3  A    between atoms: C_3  and  N_4
REMARK                            x       y       z     vdW  Elec       q    Type
REMARK                         _______ _______ _______ _____ _____    ______ ____
ROOT
ATOM      1  N   UNL     1       5.048   3.653  16.924  0.00  0.00    +0.000 N 
ATOM      2  C   UNL     1       5.911   4.272  17.851  0.00  0.00    +0.000 C 
ATOM      3  N   UNL     1       5.591   4.779  18.973  0.00  0.00    +0.000 NA
ATOM      4  C   UNL     1       6.638   5.708  19.361  0.00  0.00    +0.000 C 
ATOM      5  C   UNL     1       7.685   5.664  18.203  0.00  0.00    +0.000 C 
ATOM      6  N   UNL     1       7.097   4.704  17.316  0.00  0.00    +0.000 N 
ATOM      7  C   UNL     1       6.910   4.593  15.924  0.00  0.00    +0.000 A 
ATOM      8  C   UNL     1       7.705   5.060  14.878  0.00  0.00    +0.000 A 
ATOM      9  C   UNL     1       7.242   4.857  13.564  0.00  0.00    +0.000 A 
ATOM     10  C   UNL     1       6.005   4.216  13.326  0.00  0.00    +0.000 A 
ATOM     11  C   UNL     1       5.217   3.760  14.397  0.00  0.00    +0.000 A 
ATOM     12  C   UNL     1       5.699   3.950  15.691  0.00  0.00    +0.000 A 
ENDROOT
BRANCH   1  13
ATOM     13  C   UNL     1       3.620   3.537  17.099  0.00  0.00    +0.000 C 
BRANCH  13  15
ATOM     14  O   UNL     1       3.623   1.280  17.865  0.00  0.00    +0.000 OA
ATOM     15  C   UNL     1       3.278   2.437  18.078  0.00  0.00    +0.000 C 
BRANCH  15  16
ATOM     16  C   UNL     1       2.539   2.751  19.307  0.00  0.00    +0.000 A 
ATOM     17  C   UNL     1       1.234   3.220  19.374  0.00  0.00    +0.000 A 
ATOM     18  C   UNL     1       0.796   3.421  20.687  0.00  0.00    +0.000 A 
ATOM     19  C   UNL     1       1.754   3.119  21.645  0.00  0.00    +0.000 A 
ATOM     20  S   UNL     1       3.146   2.592  20.867  0.00  0.00    +0.000 S 
ENDBRANCH  15  16
ENDBRANCH  13  15
ENDBRANCH   1  13
TORSDOF 3
ENDMDL
MODEL 9
REMARK VINA RESULT:      -6.5      2.887      5.370
REMARK  Name = 
REMARK  3 active torsions:
REMARK  status: ('A' for Active; 'I' for Inactive)
REMARK    1  A    between atoms: C_2  and  C_3
REMARK    2  A    between atoms: C_2  and  C_16
REMARK    3  A    between atoms: C_3  and  N_4
REMARK                            x       y       z     vdW  Elec       q    Type
REMARK                         _______ _______ _______ _____ _____    ______ ____
ROOT
ATOM      1  N   UNL     1       2.439   6.128  18.686  0.00  0.00    +0.000 N 
ATOM      2  C   UNL     1       1.862   4.986  19.276  0.00  0.00    +0.000 C 
ATOM      3  N   UNL     1       1.369   4.895  20.445  0.00  0.00    +0.000 NA
ATOM      4  C   UNL     1       1.344   3.491  20.815  0.00  0.00    +0.000 C 
ATOM      5  C   UNL     1       1.951   2.727  19.596  0.00  0.00    +0.000 C 
ATOM      6  N   UNL     1       2.228   3.801  18.689  0.00  0.00    +0.000 N 
ATOM      7  C   UNL     1       3.289   4.154  17.831  0.00  0.00    +0.000 A 
ATOM      8  C   UNL     1       4.169   3.338  17.121  0.00  0.00    +0.000 A 
ATOM      9  C   UNL     1       5.186   3.965  16.377  0.00  0.00    +0.000 A 
ATOM     10  C   UNL     1       5.310   5.374  16.369  0.00  0.00    +0.000 A 
ATOM     11  C   UNL     1       4.415   6.175  17.099  0.00  0.00    +0.000 A 
ATOM     12  C   UNL     1       3.402   5.539  17.814  0.00  0.00    +0.000 A 
ENDROOT
BRANCH   1  13
ATOM     13  C   UNL     1       2.596   7.395  19.358  0.00  0.00    +0.000 C 
BRANCH  13  15
ATOM     14  O   UNL     1       2.171   8.686  17.399  0.00  0.00    +0.000 OA
ATOM     15  C   UNL     1       1.923   8.508  18.587  0.00  0.00    +0.000 C 
BRANCH  15  16
ATOM     16  C   UNL     1       0.951   9.381  19.256  0.00  0.00    +0.000 A 
ATOM     17  C   UNL     1       0.058  10.238  18.625  0.00  0.00    +0.000 A 
ATOM     18  C   UNL     1      -0.750  10.938  19.526  0.00  0.00    +0.000 A 
ATOM     19  C   UNL     1      -0.490  10.639  20.856  0.00  0.00    +0.000 A 
ATOM     20  S   UNL     1       0.739   9.497  20.920  0.00  0.00    +0.000 S 
ENDBRANCH  15  16
ENDBRANCH  13  15
ENDBRANCH   1  13
TORSDOF 3
ENDMDL
