MODEL 1
REMARK VINA RESULT:      -7.5      0.000      0.000
REMARK  Name = 
REMARK  6 active torsions:
REMARK  status: ('A' for Active; 'I' for Inactive)
REMARK    1  A    between atoms: C_1  and  C_2
REMARK    2  A    between atoms: C_7  and  C_8
REMARK    3  A    between atoms: N_10  and  C_11
REMARK    4  A    between atoms: C_11  and  C_12
REMARK    5  A    between atoms: C_22  and  C_23
REMARK    6  A    between atoms: C_23  and  O_24
REMARK                            x       y       z     vdW  Elec       q    Type
REMARK                         _______ _______ _______ _____ _____    ______ ____
ROOT
ATOM      1  C   UNL     1       3.449   4.693  18.888  0.00  0.00    +0.000 C 
ATOM      2  C   UNL     1       3.729   5.837  19.859  0.00  0.00    +0.000 C 
ATOM      3  N   UNL     1       2.415   6.436  20.127  0.00  0.00    +0.000 NA
ATOM      4  C   UNL     1       1.485   5.290  20.184  0.00  0.00    +0.000 C 
ATOM      5  C   UNL     1       2.189   4.082  19.539  0.00  0.00    +0.000 C 
ENDROOT
BRANCH   1  12
ATOM      6  C   UNL     1       6.426   4.272  13.619  0.00  0.00    +0.000 C 
ATOM      7  C   UNL     1       6.838   4.810  14.965  0.00  0.00    +0.000 C 
ATOM      8  O   UNL     1       7.757   5.629  15.041  0.00  0.00    +0.000 OA
ATOM      9  N   UNL     1       6.142   4.352  16.087  0.00  0.00    +0.000 N 
ATOM     10  C   UNL     1       6.450   5.042  17.336  0.00  0.00    +0.000 C 
ATOM     11  C   UNL     1       6.040   4.274  18.584  0.00  0.00    +0.000 C 
ATOM     12  C   UNL     1       4.610   3.719  18.559  0.00  0.00    +0.000 C 
ATOM     13  C   UNL     1       4.407   2.956  17.233  0.00  0.00    +0.000 C 
ATOM     14  C   UNL     1       4.831   3.715  15.975  0.00  0.00    +0.000 C 
ENDBRANCH   1  12
BRANCH   3  15
ATOM     15  C   UNL     1       2.051   7.396  19.065  0.00  0.00    +0.000 C 
BRANCH  15  16
ATOM     16  C   UNL     1       1.452   8.685  19.576  0.00  0.00    +0.000 A 
ATOM     17  C   UNL     1       1.112   8.869  20.924  0.00  0.00    +0.000 A 
ATOM     18  C   UNL     1       0.583  10.076  21.351  0.00  0.00    +0.000 A 
ATOM     19  F   UNL     1       0.225  10.224  22.634  0.00  0.00    +0.000 F 
ATOM     20  C   UNL     1       0.420  11.129  20.456  0.00  0.00    +0.000 A 
ATOM     21  F   UNL     1      -0.073  12.303  20.878  0.00  0.00    +0.000 F 
ATOM     22  C   UNL     1       0.767  10.978  19.120  0.00  0.00    +0.000 A 
ATOM     23  C   UNL     1       1.276   9.758  18.691  0.00  0.00    +0.000 A 
ATOM     24  F   UNL     1       1.604   9.619  17.398  0.00  0.00    +0.000 F 
ENDBRANCH  15  16
ENDBRANCH   3  15
BRANCH   5  25
ATOM     25  C   UNL     1       1.251   3.318  18.607  0.00  0.00    +0.000 C 
BRANCH  25  26
ATOM     26  O   UNL     1       1.078   4.013  17.382  0.00  0.00    +0.000 OA
ATOM     27  H   UNL     1       0.443   4.732  17.532  0.00  0.00    +0.000 HD
ENDBRANCH  25  26
ENDBRANCH   5  25
TORSDOF 5
ENDMDL
MODEL 2
REMARK VINA RESULT:      -7.4      1.354      2.027
REMARK  Name = 
REMARK  6 active torsions:
REMARK  status: ('A' for Active; 'I' for Inactive)
REMARK    1  A    between atoms: C_1  and  C_2
REMARK    2  A    between atoms: C_7  and  C_8
REMARK    3  A    between atoms: N_10  and  C_11
REMARK    4  A    between atoms: C_11  and  C_12
REMARK    5  A    between atoms: C_22  and  C_23
REMARK    6  A    between atoms: C_23  and  O_24
REMARK                            x       y       z     vdW  Elec       q    Type
REMARK                         _______ _______ _______ _____ _____    ______ ____
ROOT
ATOM      1  C   UNL     1       3.139   5.001  19.127  0.00  0.00    +0.000 C 
ATOM      2  C   UNL     1       3.633   6.374  19.573  0.00  0.00    +0.000 C 
ATOM      3  N   UNL     1       2.421   7.102  19.971  0.00  0.00    +0.000 NA
ATOM      4  C   UNL     1       1.576   6.088  20.634  0.00  0.00    +0.000 C 
ATOM      5  C   UNL     1       2.118   4.700  20.246  0.00  0.00    +0.000 C 
ENDROOT
BRANCH   1  12
ATOM      6  C   UNL     1       6.152   4.199  13.923  0.00  0.00    +0.000 C 
ATOM      7  C   UNL     1       6.592   4.710  15.271  0.00  0.00    +0.000 C 
ATOM      8  O   UNL     1       7.590   5.431  15.354  0.00  0.00    +0.000 OA
ATOM      9  N   UNL     1       5.832   4.343  16.384  0.00  0.00    +0.000 N 
ATOM     10  C   UNL     1       6.187   5.015  17.630  0.00  0.00    +0.000 C 
ATOM     11  C   UNL     1       5.677   4.311  18.879  0.00  0.00    +0.000 C 
ATOM     12  C   UNL     1       4.198   3.907  18.832  0.00  0.00    +0.000 C 
ATOM     13  C   UNL     1       3.941   3.151  17.512  0.00  0.00    +0.000 C 
ATOM     14  C   UNL     1       4.465   3.843  16.254  0.00  0.00    +0.000 C 
ENDBRANCH   1  12
BRANCH   3  15
ATOM     15  C   UNL     1       1.757   7.697  18.794  0.00  0.00    +0.000 C 
BRANCH  15  16
ATOM     16  C   UNL     1       1.532   9.187  18.899  0.00  0.00    +0.000 A 
ATOM     17  C   UNL     1       2.225  10.106  18.098  0.00  0.00    +0.000 A 
ATOM     18  C   UNL     1       1.971  11.464  18.216  0.00  0.00    +0.000 A 
ATOM     19  F   UNL     1       2.670  12.333  17.473  0.00  0.00    +0.000 F 
ATOM     20  C   UNL     1       1.001  11.924  19.100  0.00  0.00    +0.000 A 
ATOM     21  F   UNL     1       0.744  13.237  19.195  0.00  0.00    +0.000 F 
ATOM     22  C   UNL     1       0.288  11.032  19.890  0.00  0.00    +0.000 A 
ATOM     23  C   UNL     1       0.561   9.674  19.786  0.00  0.00    +0.000 A 
ATOM     24  F   UNL     1      -0.128   8.820  20.556  0.00  0.00    +0.000 F 
ENDBRANCH  15  16
ENDBRANCH   3  15
BRANCH   5  25
ATOM     25  C   UNL     1       0.988   3.737  19.889  0.00  0.00    +0.000 C 
BRANCH  25  26
ATOM     26  O   UNL     1       0.688   2.880  20.980  0.00  0.00    +0.000 OA
ATOM     27  H   UNL     1       1.014   3.305  21.792  0.00  0.00    +0.000 HD
ENDBRANCH  25  26
ENDBRANCH   5  25
TORSDOF 5
ENDMDL
MODEL 3
REMARK VINA RESULT:      -7.1      2.193      2.855
REMARK  Name = 
REMARK  6 active torsions:
REMARK  status: ('A' for Active; 'I' for Inactive)
REMARK    1  A    between atoms: C_1  and  C_2
REMARK    2  A    between atoms: C_7  and  C_8
REMARK    3  A    between atoms: N_10  and  C_11
REMARK    4  A    between atoms: C_11  and  C_12
REMARK    5  A    between atoms: C_22  and  C_23
REMARK    6  A    between atoms: C_23  and  O_24
REMARK                            x       y       z     vdW  Elec       q    Type
REMARK                         _______ _______ _______ _____ _____    ______ ____
ROOT
ATOM      1  C   UNL     1       4.287   4.399  18.181  0.00  0.00    +0.000 C 
ATOM      2  C   UNL     1       4.223   5.315  19.400  0.00  0.00    +0.000 C 
ATOM      3  N   UNL     1       3.121   4.785  20.214  0.00  0.00    +0.000 NA
ATOM      4  C   UNL     1       3.228   3.318  20.080  0.00  0.00    +0.000 C 
ATOM      5  C   UNL     1       4.125   3.023  18.863  0.00  0.00    +0.000 C 
ENDROOT
BRANCH   1  12
ATOM      6  C   UNL     1       7.711   9.357  17.477  0.00  0.00    +0.000 C 
ATOM      7  C   UNL     1       7.998   8.020  18.110  0.00  0.00    +0.000 C 
ATOM      8  O   UNL     1       8.895   7.922  18.951  0.00  0.00    +0.000 OA
ATOM      9  N   UNL     1       7.215   6.933  17.712  0.00  0.00    +0.000 N 
ATOM     10  C   UNL     1       7.405   5.712  18.488  0.00  0.00    +0.000 C 
ATOM     11  C   UNL     1       6.901   4.454  17.796  0.00  0.00    +0.000 C 
ATOM     12  C   UNL     1       5.487   4.563  17.211  0.00  0.00    +0.000 C 
ATOM     13  C   UNL     1       5.409   5.847  16.360  0.00  0.00    +0.000 C 
ATOM     14  C   UNL     1       5.928   7.112  17.043  0.00  0.00    +0.000 C 
ENDBRANCH   1  12
BRANCH   3  15
ATOM     15  C   UNL     1       1.821   5.295  19.732  0.00  0.00    +0.000 C 
BRANCH  15  16
ATOM     16  C   UNL     1       1.610   6.772  19.971  0.00  0.00    +0.000 A 
ATOM     17  C   UNL     1       1.260   7.282  21.230  0.00  0.00    +0.000 A 
ATOM     18  C   UNL     1       1.094   8.647  21.406  0.00  0.00    +0.000 A 
ATOM     19  F   UNL     1       0.721   9.117  22.604  0.00  0.00    +0.000 F 
ATOM     20  C   UNL     1       1.311   9.525  20.349  0.00  0.00    +0.000 A 
ATOM     21  F   UNL     1       1.172  10.846  20.530  0.00  0.00    +0.000 F 
ATOM     22  C   UNL     1       1.678   9.045  19.098  0.00  0.00    +0.000 A 
ATOM     23  C   UNL     1       1.819   7.674  18.919  0.00  0.00    +0.000 A 
ATOM     24  F   UNL     1       2.168   7.219  17.707  0.00  0.00    +0.000 F 
ENDBRANCH  15  16
ENDBRANCH   3  15
BRANCH   5  25
ATOM     25  C   UNL     1       3.547   1.905  17.999  0.00  0.00    +0.000 C 
BRANCH  25  26
ATOM     26  O   UNL     1       4.095   0.647  18.364  0.00  0.00    +0.000 OA
ATOM     27  H   UNL     1       3.664  -0.035  17.823  0.00  0.00    +0.000 HD
ENDBRANCH  25  26
ENDBRANCH   5  25
TORSDOF 5
ENDMDL
MODEL 4
REMARK VINA RESULT:      -7.0      1.312      1.419
REMARK  Name = 
REMARK  6 active torsions:
REMARK  status: ('A' for Active; 'I' for Inactive)
REMARK    1  A    between atoms: C_1  and  C_2
REMARK    2  A    between atoms: C_7  and  C_8
REMARK    3  A    between atoms: N_10  and  C_11
REMARK    4  A    between atoms: C_11  and  C_12
REMARK    5  A    between atoms: C_22  and  C_23
REMARK    6  A    between atoms: C_23  and  O_24
REMARK                            x       y       z     vdW  Elec       q    Type
REMARK                         _______ _______ _______ _____ _____    ______ ____
ROOT
ATOM      1  C   UNL     1       2.573   5.004  18.881  0.00  0.00    +0.000 C 
ATOM      2  C   UNL     1       3.408   6.275  19.011  0.00  0.00    +0.000 C 
ATOM      3  N   UNL     1       2.533   7.235  19.695  0.00  0.00    +0.000 NA
ATOM      4  C   UNL     1       1.793   6.428  20.686  0.00  0.00    +0.000 C 
ATOM      5  C   UNL     1       1.938   4.948  20.287  0.00  0.00    +0.000 C 
ENDROOT
BRANCH   1  12
ATOM      6  C   UNL     1       6.929   4.686  14.670  0.00  0.00    +0.000 C 
ATOM      7  C   UNL     1       6.962   4.501  16.165  0.00  0.00    +0.000 C 
ATOM      8  O   UNL     1       8.022   4.654  16.777  0.00  0.00    +0.000 OA
ATOM      9  N   UNL     1       5.765   4.162  16.803  0.00  0.00    +0.000 N 
ATOM     10  C   UNL     1       5.810   4.182  18.262  0.00  0.00    +0.000 C 
ATOM     11  C   UNL     1       4.680   3.409  18.926  0.00  0.00    +0.000 C 
ATOM     12  C   UNL     1       3.280   3.718  18.379  0.00  0.00    +0.000 C 
ATOM     13  C   UNL     1       3.324   3.609  16.840  0.00  0.00    +0.000 C 
ATOM     14  C   UNL     1       4.466   4.369  16.167  0.00  0.00    +0.000 C 
ENDBRANCH   1  12
BRANCH   3  15
ATOM     15  C   UNL     1       1.630   7.899  18.732  0.00  0.00    +0.000 C 
BRANCH  15  16
ATOM     16  C   UNL     1       1.177   9.276  19.157  0.00  0.00    +0.000 A 
ATOM     17  C   UNL     1       0.349   9.479  20.271  0.00  0.00    +0.000 A 
ATOM     18  C   UNL     1      -0.026  10.763  20.635  0.00  0.00    +0.000 A 
ATOM     19  F   UNL     1      -0.850  10.940  21.676  0.00  0.00    +0.000 F 
ATOM     20  C   UNL     1       0.445  11.862  19.924  0.00  0.00    +0.000 A 
ATOM     21  F   UNL     1       0.098  13.104  20.293  0.00  0.00    +0.000 F 
ATOM     22  C   UNL     1       1.282  11.687  18.829  0.00  0.00    +0.000 A 
ATOM     23  C   UNL     1       1.637  10.398  18.453  0.00  0.00    +0.000 A 
ATOM     24  F   UNL     1       2.441  10.237  17.392  0.00  0.00    +0.000 F 
ENDBRANCH  15  16
ENDBRANCH   3  15
BRANCH   5  25
ATOM     25  C   UNL     1       0.610   4.204  20.399  0.00  0.00    +0.000 C 
BRANCH  25  26
ATOM     26  O   UNL     1       0.780   2.961  21.063  0.00  0.00    +0.000 OA
ATOM     27  H   UNL     1       0.139   2.332  20.690  0.00  0.00    +0.000 HD
ENDBRANCH  25  26
ENDBRANCH   5  25
TORSDOF 5
ENDMDL
MODEL 5
REMARK VINA RESULT:      -6.9      2.290      3.404
REMARK  Name = 
REMARK  6 active torsions:
REMARK  status: ('A' for Active; 'I' for Inactive)
REMARK    1  A    between atoms: C_1  and  C_2
REMARK    2  A    between atoms: C_7  and  C_8
REMARK    3  A    between atoms: N_10  and  C_11
REMARK    4  A    between atoms: C_11  and  C_12
REMARK    5  A    between atoms: C_22  and  C_23
REMARK    6  A    between atoms: C_23  and  O_24
REMARK                            x       y       z     vdW  Elec       q    Type
REMARK                         _______ _______ _______ _____ _____    ______ ____
ROOT
ATOM      1  C   UNL     1       4.445   4.427  18.183  0.00  0.00    +0.000 C 
ATOM      2  C   UNL     1       4.313   5.371  19.374  0.00  0.00    +0.000 C 
ATOM      3  N   UNL     1       3.176   4.851  20.146  0.00  0.00    +0.000 NA
ATOM      4  C   UNL     1       3.301   3.382  20.052  0.00  0.00    +0.000 C 
ATOM      5  C   UNL     1       4.259   3.066  18.889  0.00  0.00    +0.000 C 
ENDROOT
BRANCH   1  12
ATOM      6  C   UNL     1       7.822   9.418  17.480  0.00  0.00    +0.000 C 
ATOM      7  C   UNL     1       8.097   8.108  18.173  0.00  0.00    +0.000 C 
ATOM      8  O   UNL     1       8.952   8.054  19.061  0.00  0.00    +0.000 OA
ATOM      9  N   UNL     1       7.353   6.994  17.774  0.00  0.00    +0.000 N 
ATOM     10  C   UNL     1       7.521   5.804  18.601  0.00  0.00    +0.000 C 
ATOM     11  C   UNL     1       7.073   4.514  17.928  0.00  0.00    +0.000 C 
ATOM     12  C   UNL     1       5.690   4.579  17.270  0.00  0.00    +0.000 C 
ATOM     13  C   UNL     1       5.636   5.832  16.371  0.00  0.00    +0.000 C 
ATOM     14  C   UNL     1       6.099   7.128  17.035  0.00  0.00    +0.000 C 
ENDBRANCH   1  12
BRANCH   3  15
ATOM     15  C   UNL     1       1.898   5.338  19.588  0.00  0.00    +0.000 C 
BRANCH  15  16
ATOM     16  C   UNL     1       1.801   6.842  19.486  0.00  0.00    +0.000 A 
ATOM     17  C   UNL     1       2.030   7.527  18.284  0.00  0.00    +0.000 A 
ATOM     18  C   UNL     1       1.911   8.906  18.234  0.00  0.00    +0.000 A 
ATOM     19  F   UNL     1       2.171   9.550  17.088  0.00  0.00    +0.000 F 
ATOM     20  C   UNL     1       1.527   9.621  19.364  0.00  0.00    +0.000 A 
ATOM     21  F   UNL     1       1.392  10.954  19.306  0.00  0.00    +0.000 F 
ATOM     22  C   UNL     1       1.276   8.964  20.562  0.00  0.00    +0.000 A 
ATOM     23  C   UNL     1       1.419   7.583  20.614  0.00  0.00    +0.000 A 
ATOM     24  F   UNL     1       1.180   6.957  21.775  0.00  0.00    +0.000 F 
ENDBRANCH  15  16
ENDBRANCH   3  15
BRANCH   5  25
ATOM     25  C   UNL     1       3.733   1.923  18.024  0.00  0.00    +0.000 C 
BRANCH  25  26
ATOM     26  O   UNL     1       4.335   0.691  18.393  0.00  0.00    +0.000 OA
ATOM     27  H   UNL     1       4.081   0.025  17.732  0.00  0.00    +0.000 HD
ENDBRANCH  25  26
ENDBRANCH   5  25
TORSDOF 5
ENDMDL
MODEL 6
REMARK VINA RESULT:      -6.9      4.732      8.250
REMARK  Name = 
REMARK  6 active torsions:
REMARK  status: ('A' for Active; 'I' for Inactive)
REMARK    1  A    between atoms: C_1  and  C_2
REMARK    2  A    between atoms: C_7  and  C_8
REMARK    3  A    between atoms: N_10  and  C_11
REMARK    4  A    between atoms: C_11  and  C_12
REMARK    5  A    between atoms: C_22  and  C_23
REMARK    6  A    between atoms: C_23  and  O_24
REMARK                            x       y       z     vdW  Elec       q    Type
REMARK                         _______ _______ _______ _____ _____    ______ ____
ROOT
ATOM      1  C   UNL     1      -1.678  12.091  21.026  0.00  0.00    +0.000 C 
ATOM      2  C   UNL     1      -2.140  12.902  19.819  0.00  0.00    +0.000 C 
ATOM      3  N   UNL     1      -3.593  13.036  19.986  0.00  0.00    +0.000 NA
ATOM      4  C   UNL     1      -3.788  13.221  21.439  0.00  0.00    +0.000 C 
ATOM      5  C   UNL     1      -2.493  12.776  22.145  0.00  0.00    +0.000 C 
ENDROOT
BRANCH   1  12
ATOM      6  C   UNL     1       1.930   7.790  18.726  0.00  0.00    +0.000 C 
ATOM      7  C   UNL     1       1.799   9.261  18.422  0.00  0.00    +0.000 C 
ATOM      8  O   UNL     1       2.170   9.694  17.328  0.00  0.00    +0.000 OA
ATOM      9  N   UNL     1       1.247  10.081  19.409  0.00  0.00    +0.000 N 
ATOM     10  C   UNL     1       0.968  11.453  18.996  0.00  0.00    +0.000 C 
ATOM     11  C   UNL     1       0.793  12.424  20.154  0.00  0.00    +0.000 C 
ATOM     12  C   UNL     1      -0.152  11.943  21.261  0.00  0.00    +0.000 C 
ATOM     13  C   UNL     1       0.264  10.515  21.671  0.00  0.00    +0.000 C 
ATOM     14  C   UNL     1       0.458   9.537  20.512  0.00  0.00    +0.000 C 
ENDBRANCH   1  12
BRANCH   3  15
ATOM     15  C   UNL     1      -4.292  11.838  19.479  0.00  0.00    +0.000 C 
BRANCH  15  16
ATOM     16  C   UNL     1      -3.759  11.323  18.162  0.00  0.00    +0.000 A 
ATOM     17  C   UNL     1      -2.635  10.488  18.087  0.00  0.00    +0.000 A 
ATOM     18  C   UNL     1      -2.193  10.024  16.858  0.00  0.00    +0.000 A 
ATOM     19  F   UNL     1      -1.094   9.260  16.796  0.00  0.00    +0.000 F 
ATOM     20  C   UNL     1      -2.881  10.350  15.693  0.00  0.00    +0.000 A 
ATOM     21  F   UNL     1      -2.463   9.882  14.508  0.00  0.00    +0.000 F 
ATOM     22  C   UNL     1      -4.009  11.160  15.745  0.00  0.00    +0.000 A 
ATOM     23  C   UNL     1      -4.435  11.642  16.976  0.00  0.00    +0.000 A 
ATOM     24  F   UNL     1      -5.521  12.428  17.016  0.00  0.00    +0.000 F 
ENDBRANCH  15  16
ENDBRANCH   3  15
BRANCH   5  25
ATOM     25  C   UNL     1      -2.791  11.929  23.379  0.00  0.00    +0.000 C 
BRANCH  25  26
ATOM     26  O   UNL     1      -4.129  12.116  23.812  0.00  0.00    +0.000 OA
ATOM     27  H   UNL     1      -4.558  12.735  23.198  0.00  0.00    +0.000 HD
ENDBRANCH  25  26
ENDBRANCH   5  25
TORSDOF 5
ENDMDL
MODEL 7
REMARK VINA RESULT:      -6.7      2.097      2.563
REMARK  Name = 
REMARK  6 active torsions:
REMARK  status: ('A' for Active; 'I' for Inactive)
REMARK    1  A    between atoms: C_1  and  C_2
REMARK    2  A    between atoms: C_7  and  C_8
REMARK    3  A    between atoms: N_10  and  C_11
REMARK    4  A    between atoms: C_11  and  C_12
REMARK    5  A    between atoms: C_22  and  C_23
REMARK    6  A    between atoms: C_23  and  O_24
REMARK                            x       y       z     vdW  Elec       q    Type
REMARK                         _______ _______ _______ _____ _____    ______ ____
ROOT
ATOM      1  C   UNL     1       2.551   5.601  18.567  0.00  0.00    +0.000 C 
ATOM      2  C   UNL     1       2.927   6.726  19.527  0.00  0.00    +0.000 C 
ATOM      3  N   UNL     1       1.817   6.792  20.487  0.00  0.00    +0.000 NA
ATOM      4  C   UNL     1       1.431   5.383  20.710  0.00  0.00    +0.000 C 
ATOM      5  C   UNL     1       2.037   4.545  19.569  0.00  0.00    +0.000 C 
ENDROOT
BRANCH   1  12
ATOM      6  C   UNL     1       8.343   7.389  18.310  0.00  0.00    +0.000 C 
ATOM      7  C   UNL     1       7.711   6.085  18.725  0.00  0.00    +0.000 C 
ATOM      8  O   UNL     1       8.325   5.320  19.473  0.00  0.00    +0.000 OA
ATOM      9  N   UNL     1       6.433   5.799  18.239  0.00  0.00    +0.000 N 
ATOM     10  C   UNL     1       5.794   4.622  18.819  0.00  0.00    +0.000 C 
ATOM     11  C   UNL     1       4.635   4.079  17.997  0.00  0.00    +0.000 C 
ATOM     12  C   UNL     1       3.618   5.133  17.542  0.00  0.00    +0.000 C 
ATOM     13  C   UNL     1       4.385   6.300  16.888  0.00  0.00    +0.000 C 
ATOM     14  C   UNL     1       5.561   6.842  17.700  0.00  0.00    +0.000 C 
ENDBRANCH   1  12
BRANCH   3  15
ATOM     15  C   UNL     1       0.703   7.595  19.944  0.00  0.00    +0.000 C 
BRANCH  15  16
ATOM     16  C   UNL     1       0.241   8.706  20.857  0.00  0.00    +0.000 A 
ATOM     17  C   UNL     1       0.373   8.632  22.252  0.00  0.00    +0.000 A 
ATOM     18  C   UNL     1      -0.048   9.684  23.049  0.00  0.00    +0.000 A 
ATOM     19  F   UNL     1       0.047   9.583  24.381  0.00  0.00    +0.000 F 
ATOM     20  C   UNL     1      -0.570  10.838  22.473  0.00  0.00    +0.000 A 
ATOM     21  F   UNL     1      -0.956  11.863  23.246  0.00  0.00    +0.000 F 
ATOM     22  C   UNL     1      -0.693  10.944  21.093  0.00  0.00    +0.000 A 
ATOM     23  C   UNL     1      -0.291   9.877  20.299  0.00  0.00    +0.000 A 
ATOM     24  F   UNL     1      -0.419   9.985  18.968  0.00  0.00    +0.000 F 
ENDBRANCH  15  16
ENDBRANCH   3  15
BRANCH   5  25
ATOM     25  C   UNL     1       1.033   3.530  19.026  0.00  0.00    +0.000 C 
BRANCH  25  26
ATOM     26  O   UNL     1       0.278   2.951  20.079  0.00  0.00    +0.000 OA
ATOM     27  H   UNL     1       0.829   2.951  20.878  0.00  0.00    +0.000 HD
ENDBRANCH  25  26
ENDBRANCH   5  25
TORSDOF 5
ENDMDL
MODEL 8
REMARK VINA RESULT:      -6.6      4.969      8.828
REMARK  Name = 
REMARK  6 active torsions:
REMARK  status: ('A' for Active; 'I' for Inactive)
REMARK    1  A    between atoms: C_1  and  C_2
REMARK    2  A    between atoms: C_7  and  C_8
REMARK    3  A    between atoms: N_10  and  C_11
REMARK    4  A    between atoms: C_11  and  C_12
REMARK    5  A    between atoms: C_22  and  C_23
REMARK    6  A    between atoms: C_23  and  O_24
REMARK                            x       y       z     vdW  Elec       q    Type
REMARK                         _______ _______ _______ _____ _____    ______ ____
ROOT
ATOM      1  C   UNL     1       4.869   5.925  17.141  0.00  0.00    +0.000 C 
ATOM      2  C   UNL     1       4.888   4.495  16.609  0.00  0.00    +0.000 C 
ATOM      3  N   UNL     1       6.072   4.429  15.742  0.00  0.00    +0.000 NA
ATOM      4  C   UNL     1       7.090   5.245  16.435  0.00  0.00    +0.000 C 
ATOM      5  C   UNL     1       6.364   6.113  17.479  0.00  0.00    +0.000 C 
ENDROOT
BRANCH   1  12
ATOM      6  C   UNL     1       0.329   2.412  19.104  0.00  0.00    +0.000 C 
ATOM      7  C   UNL     1       1.637   2.811  19.737  0.00  0.00    +0.000 C 
ATOM      8  O   UNL     1       2.127   2.106  20.623  0.00  0.00    +0.000 OA
ATOM      9  N   UNL     1       2.250   3.980  19.279  0.00  0.00    +0.000 N 
ATOM     10  C   UNL     1       3.598   4.217  19.787  0.00  0.00    +0.000 C 
ATOM     11  C   UNL     1       4.068   5.657  19.644  0.00  0.00    +0.000 C 
ATOM     12  C   UNL     1       3.849   6.272  18.257  0.00  0.00    +0.000 C 
ATOM     13  C   UNL     1       2.384   6.025  17.840  0.00  0.00    +0.000 C 
ATOM     14  C   UNL     1       1.899   4.583  17.995  0.00  0.00    +0.000 C 
ENDBRANCH   1  12
BRANCH   3  15
ATOM     15  C   UNL     1       5.764   4.951  14.395  0.00  0.00    +0.000 C 
BRANCH  15  16
ATOM     16  C   UNL     1       6.248   4.072  13.266  0.00  0.00    +0.000 A 
ATOM     17  C   UNL     1       5.523   2.954  12.826  0.00  0.00    +0.000 A 
ATOM     18  C   UNL     1       5.997   2.187  11.773  0.00  0.00    +0.000 A 
ATOM     19  F   UNL     1       5.315   1.099  11.390  0.00  0.00    +0.000 F 
ATOM     20  C   UNL     1       7.173   2.539  11.119  0.00  0.00    +0.000 A 
ATOM     21  F   UNL     1       7.617   1.807  10.087  0.00  0.00    +0.000 F 
ATOM     22  C   UNL     1       7.898   3.653  11.524  0.00  0.00    +0.000 A 
ATOM     23  C   UNL     1       7.432   4.406  12.595  0.00  0.00    +0.000 A 
ATOM     24  F   UNL     1       8.141   5.476  12.983  0.00  0.00    +0.000 F 
ENDBRANCH  15  16
ENDBRANCH   3  15
BRANCH   5  25
ATOM     25  C   UNL     1       6.883   7.549  17.473  0.00  0.00    +0.000 C 
BRANCH  25  26
ATOM     26  O   UNL     1       8.125   7.642  18.153  0.00  0.00    +0.000 OA
ATOM     27  H   UNL     1       7.941   7.728  19.103  0.00  0.00    +0.000 HD
ENDBRANCH  25  26
ENDBRANCH   5  25
TORSDOF 5
ENDMDL
MODEL 9
REMARK VINA RESULT:      -6.6      4.268      8.105
REMARK  Name = 
REMARK  6 active torsions:
REMARK  status: ('A' for Active; 'I' for Inactive)
REMARK    1  A    between atoms: C_1  and  C_2
REMARK    2  A    between atoms: C_7  and  C_8
REMARK    3  A    between atoms: N_10  and  C_11
REMARK    4  A    between atoms: C_11  and  C_12
REMARK    5  A    between atoms: C_22  and  C_23
REMARK    6  A    between atoms: C_23  and  O_24
REMARK                            x       y       z     vdW  Elec       q    Type
REMARK                         _______ _______ _______ _____ _____    ______ ____
ROOT
ATOM      1  C   UNL     1       0.638  11.676  20.371  0.00  0.00    +0.000 C 
ATOM      2  C   UNL     1       0.721  10.753  19.158  0.00  0.00    +0.000 C 
ATOM      3  N   UNL     1       0.492   9.404  19.693  0.00  0.00    +0.000 NA
ATOM      4  C   UNL     1      -0.539   9.584  20.736  0.00  0.00    +0.000 C 
ATOM      5  C   UNL     1      -0.596  11.083  21.084  0.00  0.00    +0.000 C 
ENDROOT
BRANCH   1  12
ATOM      6  C   UNL     1       5.497  15.294  20.031  0.00  0.00    +0.000 C 
ATOM      7  C   UNL     1       4.537  14.799  18.979  0.00  0.00    +0.000 C 
ATOM      8  O   UNL     1       4.889  14.766  17.797  0.00  0.00    +0.000 OA
ATOM      9  N   UNL     1       3.270  14.387  19.400  0.00  0.00    +0.000 N 
ATOM     10  C   UNL     1       2.452  13.743  18.377  0.00  0.00    +0.000 C 
ATOM     11  C   UNL     1       0.967  13.702  18.707  0.00  0.00    +0.000 C 
ATOM     12  C   UNL     1       0.634  13.207  20.119  0.00  0.00    +0.000 C 
ATOM     13  C   UNL     1       1.501  13.991  21.127  0.00  0.00    +0.000 C 
ATOM     14  C   UNL     1       2.992  14.050  20.795  0.00  0.00    +0.000 C 
ENDBRANCH   1  12
BRANCH   3  15
ATOM     15  C   UNL     1       1.743   8.839  20.239  0.00  0.00    +0.000 C 
BRANCH  15  16
ATOM     16  C   UNL     1       1.974   7.390  19.878  0.00  0.00    +0.000 A 
ATOM     17  C   UNL     1       1.592   6.339  20.725  0.00  0.00    +0.000 A 
ATOM     18  C   UNL     1       1.807   5.024  20.344  0.00  0.00    +0.000 A 
ATOM     19  F   UNL     1       1.474   4.032  21.180  0.00  0.00    +0.000 F 
ATOM     20  C   UNL     1       2.369   4.733  19.105  0.00  0.00    +0.000 A 
ATOM     21  F   UNL     1       2.556   3.459  18.731  0.00  0.00    +0.000 F 
ATOM     22  C   UNL     1       2.738   5.757  18.241  0.00  0.00    +0.000 A 
ATOM     23  C   UNL     1       2.542   7.074  18.636  0.00  0.00    +0.000 A 
ATOM     24  F   UNL     1       2.906   8.056  17.799  0.00  0.00    +0.000 F 
ENDBRANCH  15  16
ENDBRANCH   3  15
BRANCH   5  25
ATOM     25  C   UNL     1      -0.676  11.306  22.593  0.00  0.00    +0.000 C 
BRANCH  25  26
ATOM     26  O   UNL     1       0.025  10.289  23.292  0.00  0.00    +0.000 OA
ATOM     27  H   UNL     1       0.913  10.626  23.499  0.00  0.00    +0.000 HD
ENDBRANCH  25  26
ENDBRANCH   5  25
TORSDOF 5
ENDMDL
