MODEL 1
REMARK VINA RESULT:      -9.1      0.000      0.000
REMARK  Name = 
REMARK  10 active torsions:
REMARK  status: ('A' for Active; 'I' for Inactive)
REMARK    1  A    between atoms: C_1  and  O_2
REMARK    2  A    between atoms: O_2  and  C_3
REMARK    3  A    between atoms: C_6  and  N_7
REMARK    4  A    between atoms: C_10  and  C_11
REMARK    5  A    between atoms: C_11  and  C_12
REMARK    6  A    between atoms: C_12  and  C_13
REMARK    7  A    between atoms: C_13  and  C_14
REMARK    8  A    between atoms: C_20  and  C_21
REMARK    9  A    between atoms: C_24  and  S_25
REMARK   10  A    between atoms: S_25  and  C_26
REMARK                            x       y       z     vdW  Elec       q    Type
REMARK                         _______ _______ _______ _____ _____    ______ ____
ROOT
ATOM      1  N   UNL     1       5.962   5.605  18.842  0.00  0.00    +0.000 N 
ATOM      2  C   UNL     1       7.169   5.632  19.447  0.00  0.00    +0.000 C 
ATOM      3  O   UNL     1       7.609   5.163  20.472  0.00  0.00    +0.000 OA
ATOM      4  C   UNL     1       7.782   6.451  18.299  0.00  0.00    +0.000 C 
ATOM      5  C   UNL     1       6.371   6.314  17.626  0.00  0.00    +0.000 C 
ENDROOT
BRANCH   1   9
ATOM      6  C   UNL     1       2.396   3.650  19.905  0.00  0.00    +0.000 A 
ATOM      7  C   UNL     1       3.519   2.922  19.524  0.00  0.00    +0.000 A 
ATOM      8  C   UNL     1       4.701   3.578  19.190  0.00  0.00    +0.000 A 
ATOM      9  C   UNL     1       4.782   4.976  19.223  0.00  0.00    +0.000 A 
ATOM     10  C   UNL     1       3.658   5.704  19.618  0.00  0.00    +0.000 A 
ATOM     11  C   UNL     1       2.463   5.044  19.938  0.00  0.00    +0.000 A 
BRANCH   6  13
ATOM     12  C   UNL     1       0.701   2.247  19.067  0.00  0.00    +0.000 C 
ATOM     13  O   UNL     1       1.289   2.901  20.183  0.00  0.00    +0.000 OA
ENDBRANCH   6  13
ENDBRANCH   1   9
BRANCH   5  14
ATOM     14  C   UNL     1       6.342   5.519  16.247  0.00  0.00    +0.000 A 
ATOM     15  C   UNL     1       7.500   5.322  15.468  0.00  0.00    +0.000 A 
ATOM     16  C   UNL     1       7.464   4.660  14.238  0.00  0.00    +0.000 A 
ATOM     17  C   UNL     1       6.264   4.157  13.734  0.00  0.00    +0.000 A 
ATOM     18  C   UNL     1       5.102   4.337  14.487  0.00  0.00    +0.000 A 
ATOM     19  C   UNL     1       5.146   5.002  15.719  0.00  0.00    +0.000 A 
BRANCH  17  20
ATOM     20  S   UNL     1       6.300   3.378  12.130  0.00  0.00    +0.000 S 
ATOM     21  C   UNL     1       4.538   3.232  11.736  0.00  0.00    +0.000 C 
ENDBRANCH  17  20
ENDBRANCH   5  14
BRANCH   4  22
ATOM     22  C   UNL     1       8.305   7.830  18.683  0.00  0.00    +0.000 C 
BRANCH  22  23
ATOM     23  C   UNL     1       8.245   8.802  17.496  0.00  0.00    +0.000 C 
BRANCH  23  24
ATOM     24  C   UNL     1       8.070  10.262  17.926  0.00  0.00    +0.000 C 
BRANCH  24  25
ATOM     25  C   UNL     1       9.318  10.825  18.555  0.00  0.00    +0.000 A 
ATOM     26  C   UNL     1      10.415  11.173  17.755  0.00  0.00    +0.000 A 
ATOM     27  C   UNL     1      11.566  11.707  18.334  0.00  0.00    +0.000 A 
ATOM     28  C   UNL     1      11.631  11.887  19.714  0.00  0.00    +0.000 A 
ATOM     29  C   UNL     1      10.548  11.531  20.515  0.00  0.00    +0.000 A 
ATOM     30  C   UNL     1       9.395  11.000  19.939  0.00  0.00    +0.000 A 
ENDBRANCH  24  25
ENDBRANCH  23  24
ENDBRANCH  22  23
ENDBRANCH   4  22
TORSDOF 8
ENDMDL
MODEL 2
REMARK VINA RESULT:      -9.0      0.475      1.357
REMARK  Name = 
REMARK  10 active torsions:
REMARK  status: ('A' for Active; 'I' for Inactive)
REMARK    1  A    between atoms: C_1  and  O_2
REMARK    2  A    between atoms: O_2  and  C_3
REMARK    3  A    between atoms: C_6  and  N_7
REMARK    4  A    between atoms: C_10  and  C_11
REMARK    5  A    between atoms: C_11  and  C_12
REMARK    6  A    between atoms: C_12  and  C_13
REMARK    7  A    between atoms: C_13  and  C_14
REMARK    8  A    between atoms: C_20  and  C_21
REMARK    9  A    between atoms: C_24  and  S_25
REMARK   10  A    between atoms: S_25  and  C_26
REMARK                            x       y       z     vdW  Elec       q    Type
REMARK                         _______ _______ _______ _____ _____    ______ ____
ROOT
ATOM      1  N   UNL     1       5.999   5.576  18.785  0.00  0.00    +0.000 N 
ATOM      2  C   UNL     1       7.210   5.662  19.377  0.00  0.00    +0.000 C 
ATOM      3  O   UNL     1       7.696   5.186  20.377  0.00  0.00    +0.000 OA
ATOM      4  C   UNL     1       7.750   6.565  18.255  0.00  0.00    +0.000 C 
ATOM      5  C   UNL     1       6.341   6.357  17.593  0.00  0.00    +0.000 C 
ENDROOT
BRANCH   1   9
ATOM      6  C   UNL     1       2.589   3.440  19.998  0.00  0.00    +0.000 A 
ATOM      7  C   UNL     1       2.625   4.828  20.082  0.00  0.00    +0.000 A 
ATOM      8  C   UNL     1       3.752   5.528  19.662  0.00  0.00    +0.000 A 
ATOM      9  C   UNL     1       4.870   4.854  19.156  0.00  0.00    +0.000 A 
ATOM     10  C   UNL     1       4.828   3.461  19.061  0.00  0.00    +0.000 A 
ATOM     11  C   UNL     1       3.699   2.755  19.499  0.00  0.00    +0.000 A 
BRANCH   6  13
ATOM     12  C   UNL     1       1.338   2.774  21.878  0.00  0.00    +0.000 C 
ATOM     13  O   UNL     1       1.443   2.862  20.464  0.00  0.00    +0.000 OA
ENDBRANCH   6  13
ENDBRANCH   1   9
BRANCH   5  14
ATOM     14  C   UNL     1       6.347   5.615  16.185  0.00  0.00    +0.000 A 
ATOM     15  C   UNL     1       5.224   4.917  15.698  0.00  0.00    +0.000 A 
ATOM     16  C   UNL     1       5.246   4.230  14.481  0.00  0.00    +0.000 A 
ATOM     17  C   UNL     1       6.395   4.219  13.690  0.00  0.00    +0.000 A 
ATOM     18  C   UNL     1       7.522   4.904  14.149  0.00  0.00    +0.000 A 
ATOM     19  C   UNL     1       7.493   5.589  15.370  0.00  0.00    +0.000 A 
BRANCH  17  20
ATOM     20  S   UNL     1       6.353   3.270  12.181  0.00  0.00    +0.000 S 
ATOM     21  C   UNL     1       4.594   3.316  11.750  0.00  0.00    +0.000 C 
ENDBRANCH  17  20
ENDBRANCH   5  14
BRANCH   4  22
ATOM     22  C   UNL     1       8.184   7.960  18.686  0.00  0.00    +0.000 C 
BRANCH  22  23
ATOM     23  C   UNL     1       8.262   8.918  17.488  0.00  0.00    +0.000 C 
BRANCH  23  24
ATOM     24  C   UNL     1       8.132  10.390  17.890  0.00  0.00    +0.000 C 
BRANCH  24  25
ATOM     25  C   UNL     1       9.386  10.918  18.537  0.00  0.00    +0.000 A 
ATOM     26  C   UNL     1      10.506  11.233  17.754  0.00  0.00    +0.000 A 
ATOM     27  C   UNL     1      11.662  11.734  18.352  0.00  0.00    +0.000 A 
ATOM     28  C   UNL     1      11.712  11.911  19.732  0.00  0.00    +0.000 A 
ATOM     29  C   UNL     1      10.607  11.587  20.516  0.00  0.00    +0.000 A 
ATOM     30  C   UNL     1       9.447  11.090  19.922  0.00  0.00    +0.000 A 
ENDBRANCH  24  25
ENDBRANCH  23  24
ENDBRANCH  22  23
ENDBRANCH   4  22
TORSDOF 8
ENDMDL
MODEL 3
REMARK VINA RESULT:      -8.3      0.736      1.333
REMARK  Name = 
REMARK  10 active torsions:
REMARK  status: ('A' for Active; 'I' for Inactive)
REMARK    1  A    between atoms: C_1  and  O_2
REMARK    2  A    between atoms: O_2  and  C_3
REMARK    3  A    between atoms: C_6  and  N_7
REMARK    4  A    between atoms: C_10  and  C_11
REMARK    5  A    between atoms: C_11  and  C_12
REMARK    6  A    between atoms: C_12  and  C_13
REMARK    7  A    between atoms: C_13  and  C_14
REMARK    8  A    between atoms: C_20  and  C_21
REMARK    9  A    between atoms: C_24  and  S_25
REMARK   10  A    between atoms: S_25  and  C_26
REMARK                            x       y       z     vdW  Elec       q    Type
REMARK                         _______ _______ _______ _____ _____    ______ ____
ROOT
ATOM      1  N   UNL     1       6.030   5.610  18.856  0.00  0.00    +0.000 N 
ATOM      2  C   UNL     1       7.249   5.663  19.436  0.00  0.00    +0.000 C 
ATOM      3  O   UNL     1       7.729   5.182  20.436  0.00  0.00    +0.000 OA
ATOM      4  C   UNL     1       7.807   6.537  18.299  0.00  0.00    +0.000 C 
ATOM      5  C   UNL     1       6.386   6.368  17.653  0.00  0.00    +0.000 C 
ENDROOT
BRANCH   1   9
ATOM      6  C   UNL     1       2.567   3.491  19.941  0.00  0.00    +0.000 A 
ATOM      7  C   UNL     1       3.741   2.817  19.622  0.00  0.00    +0.000 A 
ATOM      8  C   UNL     1       4.888   3.528  19.280  0.00  0.00    +0.000 A 
ATOM      9  C   UNL     1       4.882   4.928  19.243  0.00  0.00    +0.000 A 
ATOM     10  C   UNL     1       3.706   5.603  19.576  0.00  0.00    +0.000 A 
ATOM     11  C   UNL     1       2.547   4.886  19.904  0.00  0.00    +0.000 A 
BRANCH   6  13
ATOM     12  C   UNL     1       0.577   2.494  19.172  0.00  0.00    +0.000 C 
ATOM     13  O   UNL     1       1.501   2.689  20.233  0.00  0.00    +0.000 OA
ENDBRANCH   6  13
ENDBRANCH   1   9
BRANCH   5  14
ATOM     14  C   UNL     1       6.355   5.612  16.252  0.00  0.00    +0.000 A 
ATOM     15  C   UNL     1       5.229   4.888  15.813  0.00  0.00    +0.000 A 
ATOM     16  C   UNL     1       5.220   4.189  14.602  0.00  0.00    +0.000 A 
ATOM     17  C   UNL     1       6.339   4.192  13.770  0.00  0.00    +0.000 A 
ATOM     18  C   UNL     1       7.469   4.903  14.181  0.00  0.00    +0.000 A 
ATOM     19  C   UNL     1       7.470   5.600  15.396  0.00  0.00    +0.000 A 
BRANCH  17  20
ATOM     20  S   UNL     1       6.261   3.228  12.272  0.00  0.00    +0.000 S 
ATOM     21  C   UNL     1       4.521   3.399  11.798  0.00  0.00    +0.000 C 
ENDBRANCH  17  20
ENDBRANCH   5  14
BRANCH   4  22
ATOM     22  C   UNL     1       8.289   7.922  18.712  0.00  0.00    +0.000 C 
BRANCH  22  23
ATOM     23  C   UNL     1       8.274   8.897  17.526  0.00  0.00    +0.000 C 
BRANCH  23  24
ATOM     24  C   UNL     1       7.822  10.308  17.917  0.00  0.00    +0.000 C 
BRANCH  24  25
ATOM     25  C   UNL     1       8.957  11.298  17.893  0.00  0.00    +0.000 A 
ATOM     26  C   UNL     1       8.696  12.666  17.737  0.00  0.00    +0.000 A 
ATOM     27  C   UNL     1       9.746  13.585  17.730  0.00  0.00    +0.000 A 
ATOM     28  C   UNL     1      11.060  13.142  17.865  0.00  0.00    +0.000 A 
ATOM     29  C   UNL     1      11.325  11.782  18.007  0.00  0.00    +0.000 A 
ATOM     30  C   UNL     1      10.278  10.861  18.020  0.00  0.00    +0.000 A 
ENDBRANCH  24  25
ENDBRANCH  23  24
ENDBRANCH  22  23
ENDBRANCH   4  22
TORSDOF 8
ENDMDL
MODEL 4
REMARK VINA RESULT:      -8.3      0.742      1.032
REMARK  Name = 
REMARK  10 active torsions:
REMARK  status: ('A' for Active; 'I' for Inactive)
REMARK    1  A    between atoms: C_1  and  O_2
REMARK    2  A    between atoms: O_2  and  C_3
REMARK    3  A    between atoms: C_6  and  N_7
REMARK    4  A    between atoms: C_10  and  C_11
REMARK    5  A    between atoms: C_11  and  C_12
REMARK    6  A    between atoms: C_12  and  C_13
REMARK    7  A    between atoms: C_13  and  C_14
REMARK    8  A    between atoms: C_20  and  C_21
REMARK    9  A    between atoms: C_24  and  S_25
REMARK   10  A    between atoms: S_25  and  C_26
REMARK                            x       y       z     vdW  Elec       q    Type
REMARK                         _______ _______ _______ _____ _____    ______ ____
ROOT
ATOM      1  N   UNL     1       5.994   5.670  18.863  0.00  0.00    +0.000 N 
ATOM      2  C   UNL     1       7.206   5.671  19.458  0.00  0.00    +0.000 C 
ATOM      3  O   UNL     1       7.639   5.212  20.490  0.00  0.00    +0.000 OA
ATOM      4  C   UNL     1       7.836   6.442  18.286  0.00  0.00    +0.000 C 
ATOM      5  C   UNL     1       6.415   6.337  17.627  0.00  0.00    +0.000 C 
ENDROOT
BRANCH   1   9
ATOM      6  C   UNL     1       2.388   3.844  20.014  0.00  0.00    +0.000 A 
ATOM      7  C   UNL     1       3.563   3.104  19.928  0.00  0.00    +0.000 A 
ATOM      8  C   UNL     1       4.756   3.721  19.563  0.00  0.00    +0.000 A 
ATOM      9  C   UNL     1       4.796   5.090  19.268  0.00  0.00    +0.000 A 
ATOM     10  C   UNL     1       3.618   5.833  19.366  0.00  0.00    +0.000 A 
ATOM     11  C   UNL     1       2.414   5.207  19.719  0.00  0.00    +0.000 A 
BRANCH   6  13
ATOM     12  C   UNL     1       1.343   2.462  21.609  0.00  0.00    +0.000 C 
ATOM     13  O   UNL     1       1.277   3.126  20.355  0.00  0.00    +0.000 OA
ENDBRANCH   6  13
ENDBRANCH   1   9
BRANCH   5  14
ATOM     14  C   UNL     1       6.348   5.511  16.268  0.00  0.00    +0.000 A 
ATOM     15  C   UNL     1       7.463   5.370  15.418  0.00  0.00    +0.000 A 
ATOM     16  C   UNL     1       7.390   4.681  14.204  0.00  0.00    +0.000 A 
ATOM     17  C   UNL     1       6.195   4.091  13.791  0.00  0.00    +0.000 A 
ATOM     18  C   UNL     1       5.076   4.215  14.615  0.00  0.00    +0.000 A 
ATOM     19  C   UNL     1       5.156   4.908  15.830  0.00  0.00    +0.000 A 
BRANCH  17  20
ATOM     20  S   UNL     1       6.177   3.281  12.202  0.00  0.00    +0.000 S 
ATOM     21  C   UNL     1       4.421   3.339  11.763  0.00  0.00    +0.000 C 
ENDBRANCH  17  20
ENDBRANCH   5  14
BRANCH   4  22
ATOM     22  C   UNL     1       8.408   7.811  18.633  0.00  0.00    +0.000 C 
BRANCH  22  23
ATOM     23  C   UNL     1       8.170   8.821  17.501  0.00  0.00    +0.000 C 
BRANCH  23  24
ATOM     24  C   UNL     1       7.794  10.215  18.012  0.00  0.00    +0.000 C 
BRANCH  24  25
ATOM     25  C   UNL     1       8.997  11.106  18.180  0.00  0.00    +0.000 A 
ATOM     26  C   UNL     1      10.057  10.710  19.009  0.00  0.00    +0.000 A 
ATOM     27  C   UNL     1      11.177  11.528  19.155  0.00  0.00    +0.000 A 
ATOM     28  C   UNL     1      11.241  12.748  18.485  0.00  0.00    +0.000 A 
ATOM     29  C   UNL     1      10.185  13.151  17.671  0.00  0.00    +0.000 A 
ATOM     30  C   UNL     1       9.065  12.335  17.520  0.00  0.00    +0.000 A 
ENDBRANCH  24  25
ENDBRANCH  23  24
ENDBRANCH  22  23
ENDBRANCH   4  22
TORSDOF 8
ENDMDL
MODEL 5
REMARK VINA RESULT:      -8.2      0.861      1.652
REMARK  Name = 
REMARK  10 active torsions:
REMARK  status: ('A' for Active; 'I' for Inactive)
REMARK    1  A    between atoms: C_1  and  O_2
REMARK    2  A    between atoms: O_2  and  C_3
REMARK    3  A    between atoms: C_6  and  N_7
REMARK    4  A    between atoms: C_10  and  C_11
REMARK    5  A    between atoms: C_11  and  C_12
REMARK    6  A    between atoms: C_12  and  C_13
REMARK    7  A    between atoms: C_13  and  C_14
REMARK    8  A    between atoms: C_20  and  C_21
REMARK    9  A    between atoms: C_24  and  S_25
REMARK   10  A    between atoms: S_25  and  C_26
REMARK                            x       y       z     vdW  Elec       q    Type
REMARK                         _______ _______ _______ _____ _____    ______ ____
ROOT
ATOM      1  N   UNL     1       5.899   5.607  18.915  0.00  0.00    +0.000 N 
ATOM      2  C   UNL     1       7.140   5.612  19.446  0.00  0.00    +0.000 C 
ATOM      3  O   UNL     1       7.641   5.111  20.427  0.00  0.00    +0.000 OA
ATOM      4  C   UNL     1       7.686   6.466  18.289  0.00  0.00    +0.000 C 
ATOM      5  C   UNL     1       6.236   6.353  17.699  0.00  0.00    +0.000 C 
ENDROOT
BRANCH   1   9
ATOM      6  C   UNL     1       2.405   3.734  20.309  0.00  0.00    +0.000 A 
ATOM      7  C   UNL     1       2.485   5.120  20.232  0.00  0.00    +0.000 A 
ATOM      8  C   UNL     1       3.640   5.731  19.753  0.00  0.00    +0.000 A 
ATOM      9  C   UNL     1       4.742   4.968  19.347  0.00  0.00    +0.000 A 
ATOM     10  C   UNL     1       4.655   3.576  19.414  0.00  0.00    +0.000 A 
ATOM     11  C   UNL     1       3.497   2.961  19.912  0.00  0.00    +0.000 A 
BRANCH   6  13
ATOM     12  C   UNL     1       1.355   2.516  22.030  0.00  0.00    +0.000 C 
ATOM     13  O   UNL     1       1.234   3.250  20.820  0.00  0.00    +0.000 OA
ENDBRANCH   6  13
ENDBRANCH   1   9
BRANCH   5  14
ATOM     14  C   UNL     1       6.120   5.601  16.301  0.00  0.00    +0.000 A 
ATOM     15  C   UNL     1       5.376   6.125  15.224  0.00  0.00    +0.000 A 
ATOM     16  C   UNL     1       5.241   5.442  14.012  0.00  0.00    +0.000 A 
ATOM     17  C   UNL     1       5.856   4.204  13.820  0.00  0.00    +0.000 A 
ATOM     18  C   UNL     1       6.600   3.664  14.869  0.00  0.00    +0.000 A 
ATOM     19  C   UNL     1       6.730   4.353  16.082  0.00  0.00    +0.000 A 
BRANCH  17  20
ATOM     20  S   UNL     1       5.584   3.377  12.263  0.00  0.00    +0.000 S 
ATOM     21  C   UNL     1       7.275   3.114  11.670  0.00  0.00    +0.000 C 
ENDBRANCH  17  20
ENDBRANCH   5  14
BRANCH   4  22
ATOM     22  C   UNL     1       8.236   7.831  18.683  0.00  0.00    +0.000 C 
BRANCH  22  23
ATOM     23  C   UNL     1       8.248   8.797  17.489  0.00  0.00    +0.000 C 
BRANCH  23  24
ATOM     24  C   UNL     1       8.073  10.261  17.902  0.00  0.00    +0.000 C 
BRANCH  24  25
ATOM     25  C   UNL     1       9.327  10.838  18.505  0.00  0.00    +0.000 A 
ATOM     26  C   UNL     1       9.456  10.945  19.897  0.00  0.00    +0.000 A 
ATOM     27  C   UNL     1      10.623  11.466  20.456  0.00  0.00    +0.000 A 
ATOM     28  C   UNL     1      11.660  11.893  19.631  0.00  0.00    +0.000 A 
ATOM     29  C   UNL     1      11.532  11.801  18.247  0.00  0.00    +0.000 A 
ATOM     30  C   UNL     1      10.368  11.277  17.684  0.00  0.00    +0.000 A 
ENDBRANCH  24  25
ENDBRANCH  23  24
ENDBRANCH  22  23
ENDBRANCH   4  22
TORSDOF 8
ENDMDL
MODEL 6
REMARK VINA RESULT:      -8.1      0.732      1.176
REMARK  Name = 
REMARK  10 active torsions:
REMARK  status: ('A' for Active; 'I' for Inactive)
REMARK    1  A    between atoms: C_1  and  O_2
REMARK    2  A    between atoms: O_2  and  C_3
REMARK    3  A    between atoms: C_6  and  N_7
REMARK    4  A    between atoms: C_10  and  C_11
REMARK    5  A    between atoms: C_11  and  C_12
REMARK    6  A    between atoms: C_12  and  C_13
REMARK    7  A    between atoms: C_13  and  C_14
REMARK    8  A    between atoms: C_20  and  C_21
REMARK    9  A    between atoms: C_24  and  S_25
REMARK   10  A    between atoms: S_25  and  C_26
REMARK                            x       y       z     vdW  Elec       q    Type
REMARK                         _______ _______ _______ _____ _____    ______ ____
ROOT
ATOM      1  N   UNL     1       5.902   5.877  18.350  0.00  0.00    +0.000 N 
ATOM      2  C   UNL     1       7.103   6.228  18.858  0.00  0.00    +0.000 C 
ATOM      3  O   UNL     1       7.690   5.977  19.886  0.00  0.00    +0.000 OA
ATOM      4  C   UNL     1       7.458   7.034  17.597  0.00  0.00    +0.000 C 
ATOM      5  C   UNL     1       6.079   6.525  17.047  0.00  0.00    +0.000 C 
ENDROOT
BRANCH   1   9
ATOM      6  C   UNL     1       2.903   3.339  19.841  0.00  0.00    +0.000 A 
ATOM      7  C   UNL     1       4.007   2.818  19.174  0.00  0.00    +0.000 A 
ATOM      8  C   UNL     1       5.004   3.666  18.698  0.00  0.00    +0.000 A 
ATOM      9  C   UNL     1       4.913   5.052  18.874  0.00  0.00    +0.000 A 
ATOM     10  C   UNL     1       3.811   5.572  19.555  0.00  0.00    +0.000 A 
ATOM     11  C   UNL     1       2.799   4.719  20.019  0.00  0.00    +0.000 A 
BRANCH   6  13
ATOM     12  C   UNL     1       0.920   2.181  19.320  0.00  0.00    +0.000 C 
ATOM     13  O   UNL     1       1.979   2.415  20.237  0.00  0.00    +0.000 OA
ENDBRANCH   6  13
ENDBRANCH   1   9
BRANCH   5  14
ATOM     14  C   UNL     1       6.155   5.600  15.753  0.00  0.00    +0.000 A 
ATOM     15  C   UNL     1       7.362   5.373  15.061  0.00  0.00    +0.000 A 
ATOM     16  C   UNL     1       7.418   4.596  13.901  0.00  0.00    +0.000 A 
ATOM     17  C   UNL     1       6.266   4.002  13.385  0.00  0.00    +0.000 A 
ATOM     18  C   UNL     1       5.058   4.209  14.052  0.00  0.00    +0.000 A 
ATOM     19  C   UNL     1       5.009   4.990  15.214  0.00  0.00    +0.000 A 
BRANCH  17  20
ATOM     20  S   UNL     1       6.420   3.074  11.869  0.00  0.00    +0.000 S 
ATOM     21  C   UNL     1       4.691   2.866  11.372  0.00  0.00    +0.000 C 
ENDBRANCH  17  20
ENDBRANCH   5  14
BRANCH   4  22
ATOM     22  C   UNL     1       7.680   8.526  17.813  0.00  0.00    +0.000 C 
BRANCH  22  23
ATOM     23  C   UNL     1       8.981   8.792  18.585  0.00  0.00    +0.000 C 
BRANCH  23  24
ATOM     24  C   UNL     1       8.923  10.067  19.432  0.00  0.00    +0.000 C 
BRANCH  24  25
ATOM     25  C   UNL     1      10.057  11.009  19.124  0.00  0.00    +0.000 A 
ATOM     26  C   UNL     1      10.925  11.425  20.144  0.00  0.00    +0.000 A 
ATOM     27  C   UNL     1      11.984  12.287  19.856  0.00  0.00    +0.000 A 
ATOM     28  C   UNL     1      12.175  12.746  18.555  0.00  0.00    +0.000 A 
ATOM     29  C   UNL     1      11.308  12.346  17.542  0.00  0.00    +0.000 A 
ATOM     30  C   UNL     1      10.250  11.482  17.824  0.00  0.00    +0.000 A 
ENDBRANCH  24  25
ENDBRANCH  23  24
ENDBRANCH  22  23
ENDBRANCH   4  22
TORSDOF 8
ENDMDL
MODEL 7
REMARK VINA RESULT:      -8.0      0.941      1.324
REMARK  Name = 
REMARK  10 active torsions:
REMARK  status: ('A' for Active; 'I' for Inactive)
REMARK    1  A    between atoms: C_1  and  O_2
REMARK    2  A    between atoms: O_2  and  C_3
REMARK    3  A    between atoms: C_6  and  N_7
REMARK    4  A    between atoms: C_10  and  C_11
REMARK    5  A    between atoms: C_11  and  C_12
REMARK    6  A    between atoms: C_12  and  C_13
REMARK    7  A    between atoms: C_13  and  C_14
REMARK    8  A    between atoms: C_20  and  C_21
REMARK    9  A    between atoms: C_24  and  S_25
REMARK   10  A    between atoms: S_25  and  C_26
REMARK                            x       y       z     vdW  Elec       q    Type
REMARK                         _______ _______ _______ _____ _____    ______ ____
ROOT
ATOM      1  N   UNL     1       5.779   5.785  18.116  0.00  0.00    +0.000 N 
ATOM      2  C   UNL     1       6.933   6.169  18.702  0.00  0.00    +0.000 C 
ATOM      3  O   UNL     1       7.461   5.930  19.764  0.00  0.00    +0.000 OA
ATOM      4  C   UNL     1       7.343   6.992  17.469  0.00  0.00    +0.000 C 
ATOM      5  C   UNL     1       6.018   6.445  16.830  0.00  0.00    +0.000 C 
ENDROOT
BRANCH   1   9
ATOM      6  C   UNL     1       2.732   3.272  19.554  0.00  0.00    +0.000 A 
ATOM      7  C   UNL     1       2.424   4.483  18.942  0.00  0.00    +0.000 A 
ATOM      8  C   UNL     1       3.439   5.301  18.454  0.00  0.00    +0.000 A 
ATOM      9  C   UNL     1       4.784   4.928  18.574  0.00  0.00    +0.000 A 
ATOM     10  C   UNL     1       5.090   3.706  19.177  0.00  0.00    +0.000 A 
ATOM     11  C   UNL     1       4.068   2.890  19.683  0.00  0.00    +0.000 A 
BRANCH   6  13
ATOM     12  C   UNL     1       1.400   2.696  21.408  0.00  0.00    +0.000 C 
ATOM     13  O   UNL     1       1.657   2.569  20.017  0.00  0.00    +0.000 OA
ENDBRANCH   6  13
ENDBRANCH   1   9
BRANCH   5  14
ATOM     14  C   UNL     1       6.204   5.531  15.540  0.00  0.00    +0.000 A 
ATOM     15  C   UNL     1       7.433   5.437  14.856  0.00  0.00    +0.000 A 
ATOM     16  C   UNL     1       7.583   4.667  13.699  0.00  0.00    +0.000 A 
ATOM     17  C   UNL     1       6.507   3.948  13.179  0.00  0.00    +0.000 A 
ATOM     18  C   UNL     1       5.278   4.023  13.837  0.00  0.00    +0.000 A 
ATOM     19  C   UNL     1       5.136   4.797  14.996  0.00  0.00    +0.000 A 
BRANCH  17  20
ATOM     20  S   UNL     1       6.772   3.038  11.667  0.00  0.00    +0.000 S 
ATOM     21  C   UNL     1       5.193   2.175  11.459  0.00  0.00    +0.000 C 
ENDBRANCH  17  20
ENDBRANCH   5  14
BRANCH   4  22
ATOM     22  C   UNL     1       7.506   8.489  17.704  0.00  0.00    +0.000 C 
BRANCH  22  23
ATOM     23  C   UNL     1       8.860   8.810  18.354  0.00  0.00    +0.000 C 
BRANCH  23  24
ATOM     24  C   UNL     1       8.806  10.032  19.276  0.00  0.00    +0.000 C 
BRANCH  24  25
ATOM     25  C   UNL     1       9.996  10.938  19.091  0.00  0.00    +0.000 A 
ATOM     26  C   UNL     1      10.372  11.355  17.807  0.00  0.00    +0.000 A 
ATOM     27  C   UNL     1      11.465  12.206  17.637  0.00  0.00    +0.000 A 
ATOM     28  C   UNL     1      12.193  12.634  18.744  0.00  0.00    +0.000 A 
ATOM     29  C   UNL     1      11.831  12.211  20.021  0.00  0.00    +0.000 A 
ATOM     30  C   UNL     1      10.737  11.365  20.196  0.00  0.00    +0.000 A 
ENDBRANCH  24  25
ENDBRANCH  23  24
ENDBRANCH  22  23
ENDBRANCH   4  22
TORSDOF 8
ENDMDL
MODEL 8
REMARK VINA RESULT:      -7.8      0.972      1.753
REMARK  Name = 
REMARK  10 active torsions:
REMARK  status: ('A' for Active; 'I' for Inactive)
REMARK    1  A    between atoms: C_1  and  O_2
REMARK    2  A    between atoms: O_2  and  C_3
REMARK    3  A    between atoms: C_6  and  N_7
REMARK    4  A    between atoms: C_10  and  C_11
REMARK    5  A    between atoms: C_11  and  C_12
REMARK    6  A    between atoms: C_12  and  C_13
REMARK    7  A    between atoms: C_13  and  C_14
REMARK    8  A    between atoms: C_20  and  C_21
REMARK    9  A    between atoms: C_24  and  S_25
REMARK   10  A    between atoms: S_25  and  C_26
REMARK                            x       y       z     vdW  Elec       q    Type
REMARK                         _______ _______ _______ _____ _____    ______ ____
ROOT
ATOM      1  N   UNL     1       5.668   5.715  18.204  0.00  0.00    +0.000 N 
ATOM      2  C   UNL     1       6.829   6.080  18.788  0.00  0.00    +0.000 C 
ATOM      3  O   UNL     1       7.375   5.797  19.830  0.00  0.00    +0.000 OA
ATOM      4  C   UNL     1       7.215   6.959  17.586  0.00  0.00    +0.000 C 
ATOM      5  C   UNL     1       5.884   6.432  16.944  0.00  0.00    +0.000 C 
ENDROOT
BRANCH   1   9
ATOM      6  C   UNL     1       2.652   3.125  19.568  0.00  0.00    +0.000 A 
ATOM      7  C   UNL     1       2.328   4.310  18.915  0.00  0.00    +0.000 A 
ATOM      8  C   UNL     1       3.335   5.154  18.452  0.00  0.00    +0.000 A 
ATOM      9  C   UNL     1       4.685   4.832  18.638  0.00  0.00    +0.000 A 
ATOM     10  C   UNL     1       5.007   3.636  19.282  0.00  0.00    +0.000 A 
ATOM     11  C   UNL     1       3.994   2.795  19.763  0.00  0.00    +0.000 A 
BRANCH   6  13
ATOM     12  C   UNL     1       0.570   2.164  19.031  0.00  0.00    +0.000 C 
ATOM     13  O   UNL     1       1.583   2.394  20.000  0.00  0.00    +0.000 OA
ENDBRANCH   6  13
ENDBRANCH   1   9
BRANCH   5  14
ATOM     14  C   UNL     1       6.055   5.577  15.613  0.00  0.00    +0.000 A 
ATOM     15  C   UNL     1       5.014   4.786  15.087  0.00  0.00    +0.000 A 
ATOM     16  C   UNL     1       5.181   4.002  13.942  0.00  0.00    +0.000 A 
ATOM     17  C   UNL     1       6.401   3.983  13.264  0.00  0.00    +0.000 A 
ATOM     18  C   UNL     1       7.449   4.758  13.763  0.00  0.00    +0.000 A 
ATOM     19  C   UNL     1       7.274   5.541  14.912  0.00  0.00    +0.000 A 
BRANCH  17  20
ATOM     20  S   UNL     1       6.543   2.911  11.846  0.00  0.00    +0.000 S 
ATOM     21  C   UNL     1       4.812   2.686  11.361  0.00  0.00    +0.000 C 
ENDBRANCH  17  20
ENDBRANCH   5  14
BRANCH   4  22
ATOM     22  C   UNL     1       7.374   8.445  17.885  0.00  0.00    +0.000 C 
BRANCH  22  23
ATOM     23  C   UNL     1       8.846   8.815  18.119  0.00  0.00    +0.000 C 
BRANCH  23  24
ATOM     24  C   UNL     1       9.022   9.968  19.111  0.00  0.00    +0.000 C 
BRANCH  24  25
ATOM     25  C   UNL     1       9.702  11.159  18.487  0.00  0.00    +0.000 A 
ATOM     26  C   UNL     1       8.941  12.233  18.005  0.00  0.00    +0.000 A 
ATOM     27  C   UNL     1       9.570  13.342  17.439  0.00  0.00    +0.000 A 
ATOM     28  C   UNL     1      10.959  13.380  17.342  0.00  0.00    +0.000 A 
ATOM     29  C   UNL     1      11.719  12.310  17.809  0.00  0.00    +0.000 A 
ATOM     30  C   UNL     1      11.094  11.201  18.378  0.00  0.00    +0.000 A 
ENDBRANCH  24  25
ENDBRANCH  23  24
ENDBRANCH  22  23
ENDBRANCH   4  22
TORSDOF 8
ENDMDL
MODEL 9
REMARK VINA RESULT:      -7.8      0.769      1.359
REMARK  Name = 
REMARK  10 active torsions:
REMARK  status: ('A' for Active; 'I' for Inactive)
REMARK    1  A    between atoms: C_1  and  O_2
REMARK    2  A    between atoms: O_2  and  C_3
REMARK    3  A    between atoms: C_6  and  N_7
REMARK    4  A    between atoms: C_10  and  C_11
REMARK    5  A    between atoms: C_11  and  C_12
REMARK    6  A    between atoms: C_12  and  C_13
REMARK    7  A    between atoms: C_13  and  C_14
REMARK    8  A    between atoms: C_20  and  C_21
REMARK    9  A    between atoms: C_24  and  S_25
REMARK   10  A    between atoms: S_25  and  C_26
REMARK                            x       y       z     vdW  Elec       q    Type
REMARK                         _______ _______ _______ _____ _____    ______ ____
ROOT
ATOM      1  N   UNL     1       6.002   5.627  18.941  0.00  0.00    +0.000 N 
ATOM      2  C   UNL     1       7.236   5.657  19.490  0.00  0.00    +0.000 C 
ATOM      3  O   UNL     1       7.733   5.163  20.477  0.00  0.00    +0.000 OA
ATOM      4  C   UNL     1       7.780   6.524  18.343  0.00  0.00    +0.000 C 
ATOM      5  C   UNL     1       6.341   6.384  17.732  0.00  0.00    +0.000 C 
ENDROOT
BRANCH   1   9
ATOM      6  C   UNL     1       2.529   3.568  20.107  0.00  0.00    +0.000 A 
ATOM      7  C   UNL     1       3.672   2.873  19.725  0.00  0.00    +0.000 A 
ATOM      8  C   UNL     1       4.823   3.564  19.357  0.00  0.00    +0.000 A 
ATOM      9  C   UNL     1       4.853   4.964  19.356  0.00  0.00    +0.000 A 
ATOM     10  C   UNL     1       3.708   5.659  19.751  0.00  0.00    +0.000 A 
ATOM     11  C   UNL     1       2.544   4.963  20.107  0.00  0.00    +0.000 A 
BRANCH   6  13
ATOM     12  C   UNL     1       0.628   2.420  19.324  0.00  0.00    +0.000 C 
ATOM     13  O   UNL     1       1.455   2.785  20.420  0.00  0.00    +0.000 OA
ENDBRANCH   6  13
ENDBRANCH   1   9
BRANCH   5  14
ATOM     14  C   UNL     1       6.260   5.634  16.331  0.00  0.00    +0.000 A 
ATOM     15  C   UNL     1       5.033   5.260  15.747  0.00  0.00    +0.000 A 
ATOM     16  C   UNL     1       4.967   4.563  14.537  0.00  0.00    +0.000 A 
ATOM     17  C   UNL     1       6.131   4.218  13.850  0.00  0.00    +0.000 A 
ATOM     18  C   UNL     1       7.360   4.577  14.406  0.00  0.00    +0.000 A 
ATOM     19  C   UNL     1       7.419   5.275  15.619  0.00  0.00    +0.000 A 
BRANCH  17  20
ATOM     20  S   UNL     1       5.957   3.280  12.343  0.00  0.00    +0.000 S 
ATOM     21  C   UNL     1       7.286   3.957  11.316  0.00  0.00    +0.000 C 
ENDBRANCH  17  20
ENDBRANCH   5  14
BRANCH   4  22
ATOM     22  C   UNL     1       8.297   7.899  18.748  0.00  0.00    +0.000 C 
BRANCH  22  23
ATOM     23  C   UNL     1       8.330   8.861  17.551  0.00  0.00    +0.000 C 
BRANCH  23  24
ATOM     24  C   UNL     1       7.905  10.286  17.917  0.00  0.00    +0.000 C 
BRANCH  24  25
ATOM     25  C   UNL     1       9.084  11.168  18.239  0.00  0.00    +0.000 A 
ATOM     26  C   UNL     1      10.007  10.782  19.221  0.00  0.00    +0.000 A 
ATOM     27  C   UNL     1      11.106  11.592  19.509  0.00  0.00    +0.000 A 
ATOM     28  C   UNL     1      11.282  12.794  18.828  0.00  0.00    +0.000 A 
ATOM     29  C   UNL     1      10.361  13.188  17.861  0.00  0.00    +0.000 A 
ATOM     30  C   UNL     1       9.263  12.380  17.567  0.00  0.00    +0.000 A 
ENDBRANCH  24  25
ENDBRANCH  23  24
ENDBRANCH  22  23
ENDBRANCH   4  22
TORSDOF 8
ENDMDL
