MODEL 1
REMARK VINA RESULT:      -7.4      0.000      0.000
REMARK  Name = 
REMARK  10 active torsions:
REMARK  status: ('A' for Active; 'I' for Inactive)
REMARK    1  A    between atoms: O_1  and  C_2
REMARK    2  A    between atoms: C_2  and  C_3
REMARK    3  A    between atoms: C_2  and  C_18
REMARK    4  A    between atoms: C_3  and  N_4
REMARK    5  A    between atoms: N_4  and  C_5
REMARK    6  A    between atoms: C_5  and  C_6
REMARK    7  A    between atoms: C_6  and  N_7
REMARK    8  A    between atoms: N_7  and  C_8
REMARK    9  A    between atoms: C_13  and  C_14
REMARK   10  A    between atoms: C_18  and  N_19
REMARK                            x       y       z     vdW  Elec       q    Type
REMARK                         _______ _______ _______ _____ _____    ______ ____
ROOT
ATOM      1  N   UNL     1       1.362   2.621  19.823  0.00  0.00    +0.000 NA
ATOM      2  H   UNL     1       1.009   1.725  20.166  0.00  0.00    +0.000 HD
ENDROOT
BRANCH   1   3
ATOM      3  C   UNL     1       2.652   2.384  19.150  0.00  0.00    +0.000 C 
BRANCH   3   4
ATOM      4  C   UNL     1       2.981   3.477  18.122  0.00  0.00    +0.000 C 
BRANCH   4   5
ATOM      5  O   UNL     1       1.814   3.700  17.322  0.00  0.00    +0.000 OA
ATOM      6  H   UNL     1       1.270   4.331  17.826  0.00  0.00    +0.000 HD
ENDBRANCH   4   5
BRANCH   4   7
ATOM      7  C   UNL     1       4.158   3.008  17.257  0.00  0.00    +0.000 C 
BRANCH   7   8
ATOM      8  N   UNL     1       4.968   4.112  16.769  0.00  0.00    +0.000 N 
ATOM      9  C   UNL     1       4.913   4.574  15.479  0.00  0.00    +0.000 A 
ATOM     10  C   UNL     1       5.762   5.650  15.380  0.00  0.00    +0.000 A 
ATOM     11  C   UNL     1       6.382   5.829  16.646  0.00  0.00    +0.000 A 
ATOM     12  C   UNL     1       7.324   6.751  17.142  0.00  0.00    +0.000 A 
ATOM     13  C   UNL     1       7.759   6.649  18.466  0.00  0.00    +0.000 A 
ATOM     14  C   UNL     1       7.267   5.646  19.296  0.00  0.00    +0.000 A 
ATOM     15  C   UNL     1       6.321   4.726  18.833  0.00  0.00    +0.000 A 
ATOM     16  C   UNL     1       5.887   4.837  17.501  0.00  0.00    +0.000 A 
ENDBRANCH   7   8
ENDBRANCH   4   7
ENDBRANCH   3   4
ENDBRANCH   1   3
BRANCH   1  17
ATOM     17  C   UNL     1       1.501   3.530  20.981  0.00  0.00    +0.000 C 
BRANCH  17  18
ATOM     18  C   UNL     1       1.108   4.980  20.658  0.00  0.00    +0.000 C 
BRANCH  18  19
ATOM     19  N   UNL     1       2.176   5.947  20.931  0.00  0.00    +0.000 N 
ATOM     20  H   UNL     1       3.079   5.497  21.074  0.00  0.00    +0.000 HD
BRANCH  19  21
ATOM     21  C   UNL     1       2.275   6.906  19.899  0.00  0.00    +0.000 A 
ATOM     22  N   UNL     1       2.980   6.564  18.792  0.00  0.00    +0.000 NA
ATOM     23  C   UNL     1       3.071   7.423  17.761  0.00  0.00    +0.000 A 
ATOM     24  C   UNL     1       2.460   8.653  17.753  0.00  0.00    +0.000 A 
ATOM     25  C   UNL     1       1.729   9.010  18.877  0.00  0.00    +0.000 A 
ATOM     26  C   UNL     1       1.630   8.133  19.979  0.00  0.00    +0.000 A 
BRANCH  26  27
ATOM     27  C   UNL     1       0.832   8.582  21.167  0.00  0.00    +0.000 C 
ATOM     28  F   UNL     1       1.488   8.576  22.361  0.00  0.00    +0.000 F 
ATOM     29  F   UNL     1       0.394   9.870  21.018  0.00  0.00    +0.000 F 
ATOM     30  F   UNL     1      -0.297   7.841  21.351  0.00  0.00    +0.000 F 
ENDBRANCH  26  27
ENDBRANCH  19  21
ENDBRANCH  18  19
ENDBRANCH  17  18
ENDBRANCH   1  17
TORSDOF 10
ENDMDL
MODEL 2
REMARK VINA RESULT:      -7.2      1.922      2.377
REMARK  Name = 
REMARK  10 active torsions:
REMARK  status: ('A' for Active; 'I' for Inactive)
REMARK    1  A    between atoms: O_1  and  C_2
REMARK    2  A    between atoms: C_2  and  C_3
REMARK    3  A    between atoms: C_2  and  C_18
REMARK    4  A    between atoms: C_3  and  N_4
REMARK    5  A    between atoms: N_4  and  C_5
REMARK    6  A    between atoms: C_5  and  C_6
REMARK    7  A    between atoms: C_6  and  N_7
REMARK    8  A    between atoms: N_7  and  C_8
REMARK    9  A    between atoms: C_13  and  C_14
REMARK   10  A    between atoms: C_18  and  N_19
REMARK                            x       y       z     vdW  Elec       q    Type
REMARK                         _______ _______ _______ _____ _____    ______ ____
ROOT
ATOM      1  N   UNL     1       2.391   2.877  20.495  0.00  0.00    +0.000 NA
ATOM      2  H   UNL     1       2.784   2.134  21.075  0.00  0.00    +0.000 HD
ENDROOT
BRANCH   1   3
ATOM      3  C   UNL     1       3.457   3.391  19.616  0.00  0.00    +0.000 C 
BRANCH   3   4
ATOM      4  C   UNL     1       3.244   2.992  18.148  0.00  0.00    +0.000 C 
BRANCH   4   5
ATOM      5  O   UNL     1       2.452   1.799  18.123  0.00  0.00    +0.000 OA
ATOM      6  H   UNL     1       2.513   1.466  17.209  0.00  0.00    +0.000 HD
ENDBRANCH   4   5
BRANCH   4   7
ATOM      7  C   UNL     1       4.611   2.758  17.493  0.00  0.00    +0.000 C 
BRANCH   7   8
ATOM      8  N   UNL     1       5.174   3.972  16.926  0.00  0.00    +0.000 N 
ATOM      9  C   UNL     1       4.851   4.441  15.678  0.00  0.00    +0.000 A 
ATOM     10  C   UNL     1       5.519   5.626  15.488  0.00  0.00    +0.000 A 
ATOM     11  C   UNL     1       6.303   5.872  16.647  0.00  0.00    +0.000 A 
ATOM     12  C   UNL     1       7.177   6.911  17.024  0.00  0.00    +0.000 A 
ATOM     13  C   UNL     1       7.828   6.851  18.259  0.00  0.00    +0.000 A 
ATOM     14  C   UNL     1       7.616   5.777  19.118  0.00  0.00    +0.000 A 
ATOM     15  C   UNL     1       6.742   4.739  18.775  0.00  0.00    +0.000 A 
ATOM     16  C   UNL     1       6.090   4.808  17.532  0.00  0.00    +0.000 A 
ENDBRANCH   7   8
ENDBRANCH   4   7
ENDBRANCH   3   4
ENDBRANCH   1   3
BRANCH   1  17
ATOM     17  C   UNL     1       1.861   3.926  21.393  0.00  0.00    +0.000 C 
BRANCH  17  18
ATOM     18  C   UNL     1       1.423   5.194  20.644  0.00  0.00    +0.000 C 
BRANCH  18  19
ATOM     19  N   UNL     1       2.200   6.382  21.008  0.00  0.00    +0.000 N 
ATOM     20  H   UNL     1       3.193   6.272  20.811  0.00  0.00    +0.000 HD
BRANCH  19  21
ATOM     21  C   UNL     1       1.707   7.536  20.360  0.00  0.00    +0.000 A 
ATOM     22  N   UNL     1       0.895   8.356  21.074  0.00  0.00    +0.000 NA
ATOM     23  C   UNL     1       0.431   9.491  20.520  0.00  0.00    +0.000 A 
ATOM     24  C   UNL     1       0.755   9.891  19.247  0.00  0.00    +0.000 A 
ATOM     25  C   UNL     1       1.593   9.065  18.512  0.00  0.00    +0.000 A 
ATOM     26  C   UNL     1       2.081   7.861  19.063  0.00  0.00    +0.000 A 
BRANCH  26  27
ATOM     27  C   UNL     1       2.976   7.008  18.213  0.00  0.00    +0.000 C 
ATOM     28  F   UNL     1       2.386   5.931  17.624  0.00  0.00    +0.000 F 
ATOM     29  F   UNL     1       3.508   7.723  17.175  0.00  0.00    +0.000 F 
ATOM     30  F   UNL     1       4.048   6.525  18.900  0.00  0.00    +0.000 F 
ENDBRANCH  26  27
ENDBRANCH  19  21
ENDBRANCH  18  19
ENDBRANCH  17  18
ENDBRANCH   1  17
TORSDOF 10
ENDMDL
MODEL 3
REMARK VINA RESULT:      -7.1      1.054      2.012
REMARK  Name = 
REMARK  10 active torsions:
REMARK  status: ('A' for Active; 'I' for Inactive)
REMARK    1  A    between atoms: O_1  and  C_2
REMARK    2  A    between atoms: C_2  and  C_3
REMARK    3  A    between atoms: C_2  and  C_18
REMARK    4  A    between atoms: C_3  and  N_4
REMARK    5  A    between atoms: N_4  and  C_5
REMARK    6  A    between atoms: C_5  and  C_6
REMARK    7  A    between atoms: C_6  and  N_7
REMARK    8  A    between atoms: N_7  and  C_8
REMARK    9  A    between atoms: C_13  and  C_14
REMARK   10  A    between atoms: C_18  and  N_19
REMARK                            x       y       z     vdW  Elec       q    Type
REMARK                         _______ _______ _______ _____ _____    ______ ____
ROOT
ATOM      1  N   UNL     1       1.104   2.895  20.810  0.00  0.00    +0.000 NA
ATOM      2  H   UNL     1       0.801   2.362  21.627  0.00  0.00    +0.000 HD
ENDROOT
BRANCH   1   3
ATOM      3  C   UNL     1       2.023   2.053  20.021  0.00  0.00    +0.000 C 
BRANCH   3   4
ATOM      4  C   UNL     1       2.256   2.611  18.609  0.00  0.00    +0.000 C 
BRANCH   4   5
ATOM      5  O   UNL     1       1.330   1.973  17.721  0.00  0.00    +0.000 OA
ATOM      6  H   UNL     1       1.878   1.489  17.078  0.00  0.00    +0.000 HD
ENDBRANCH   4   5
BRANCH   4   7
ATOM      7  C   UNL     1       3.704   2.320  18.193  0.00  0.00    +0.000 C 
BRANCH   7   8
ATOM      8  N   UNL     1       4.541   3.508  18.214  0.00  0.00    +0.000 N 
ATOM      9  C   UNL     1       4.724   4.282  19.331  0.00  0.00    +0.000 A 
ATOM     10  C   UNL     1       5.608   5.283  19.010  0.00  0.00    +0.000 A 
ATOM     11  C   UNL     1       5.952   5.134  17.639  0.00  0.00    +0.000 A 
ATOM     12  C   UNL     1       6.799   5.847  16.769  0.00  0.00    +0.000 A 
ATOM     13  C   UNL     1       6.912   5.449  15.435  0.00  0.00    +0.000 A 
ATOM     14  C   UNL     1       6.196   4.354  14.961  0.00  0.00    +0.000 A 
ATOM     15  C   UNL     1       5.357   3.619  15.808  0.00  0.00    +0.000 A 
ATOM     16  C   UNL     1       5.251   4.025  17.149  0.00  0.00    +0.000 A 
ENDBRANCH   7   8
ENDBRANCH   4   7
ENDBRANCH   3   4
ENDBRANCH   1   3
BRANCH   1  17
ATOM     17  C   UNL     1       1.761   4.131  21.287  0.00  0.00    +0.000 C 
BRANCH  17  18
ATOM     18  C   UNL     1       1.402   5.367  20.446  0.00  0.00    +0.000 C 
BRANCH  18  19
ATOM     19  N   UNL     1       2.098   6.584  20.876  0.00  0.00    +0.000 N 
ATOM     20  H   UNL     1       3.082   6.417  21.078  0.00  0.00    +0.000 HD
BRANCH  19  21
ATOM     21  C   UNL     1       1.971   7.613  19.917  0.00  0.00    +0.000 A 
ATOM     22  N   UNL     1       2.651   7.469  18.751  0.00  0.00    +0.000 NA
ATOM     23  C   UNL     1       2.532   8.398  17.786  0.00  0.00    +0.000 A 
ATOM     24  C   UNL     1       1.728   9.504  17.903  0.00  0.00    +0.000 A 
ATOM     25  C   UNL     1       1.022   9.657  19.087  0.00  0.00    +0.000 A 
ATOM     26  C   UNL     1       1.139   8.705  20.124  0.00  0.00    +0.000 A 
BRANCH  26  27
ATOM     27  C   UNL     1       0.355   8.933  21.382  0.00  0.00    +0.000 C 
ATOM     28  F   UNL     1      -0.596   8.001  21.667  0.00  0.00    +0.000 F 
ATOM     29  F   UNL     1       1.170   8.945  22.482  0.00  0.00    +0.000 F 
ATOM     30  F   UNL     1      -0.279  10.139  21.395  0.00  0.00    +0.000 F 
ENDBRANCH  26  27
ENDBRANCH  19  21
ENDBRANCH  18  19
ENDBRANCH  17  18
ENDBRANCH   1  17
TORSDOF 10
ENDMDL
MODEL 4
REMARK VINA RESULT:      -7.1      1.115      1.377
REMARK  Name = 
REMARK  10 active torsions:
REMARK  status: ('A' for Active; 'I' for Inactive)
REMARK    1  A    between atoms: O_1  and  C_2
REMARK    2  A    between atoms: C_2  and  C_3
REMARK    3  A    between atoms: C_2  and  C_18
REMARK    4  A    between atoms: C_3  and  N_4
REMARK    5  A    between atoms: N_4  and  C_5
REMARK    6  A    between atoms: C_5  and  C_6
REMARK    7  A    between atoms: C_6  and  N_7
REMARK    8  A    between atoms: N_7  and  C_8
REMARK    9  A    between atoms: C_13  and  C_14
REMARK   10  A    between atoms: C_18  and  N_19
REMARK                            x       y       z     vdW  Elec       q    Type
REMARK                         _______ _______ _______ _____ _____    ______ ____
ROOT
ATOM      1  N   UNL     1       1.661   2.802  20.436  0.00  0.00    +0.000 NA
ATOM      2  H   UNL     1       2.478   2.190  20.401  0.00  0.00    +0.000 HD
ENDROOT
BRANCH   1   3
ATOM      3  C   UNL     1       1.219   3.064  19.053  0.00  0.00    +0.000 C 
BRANCH   3   4
ATOM      4  C   UNL     1       2.341   2.838  18.030  0.00  0.00    +0.000 C 
BRANCH   4   5
ATOM      5  O   UNL     1       3.406   2.139  18.686  0.00  0.00    +0.000 OA
ATOM      6  H   UNL     1       3.401   2.461  19.605  0.00  0.00    +0.000 HD
ENDBRANCH   4   5
BRANCH   4   7
ATOM      7  C   UNL     1       2.818   4.199  17.507  0.00  0.00    +0.000 C 
BRANCH   7   8
ATOM      8  N   UNL     1       4.200   4.171  17.057  0.00  0.00    +0.000 N 
ATOM      9  C   UNL     1       4.586   3.688  15.833  0.00  0.00    +0.000 A 
ATOM     10  C   UNL     1       5.944   3.863  15.720  0.00  0.00    +0.000 A 
ATOM     11  C   UNL     1       6.408   4.444  16.930  0.00  0.00    +0.000 A 
ATOM     12  C   UNL     1       7.678   4.845  17.388  0.00  0.00    +0.000 A 
ATOM     13  C   UNL     1       7.812   5.381  18.671  0.00  0.00    +0.000 A 
ATOM     14  C   UNL     1       6.701   5.523  19.497  0.00  0.00    +0.000 A 
ATOM     15  C   UNL     1       5.425   5.145  19.062  0.00  0.00    +0.000 A 
ATOM     16  C   UNL     1       5.299   4.609  17.769  0.00  0.00    +0.000 A 
ENDBRANCH   7   8
ENDBRANCH   4   7
ENDBRANCH   3   4
ENDBRANCH   1   3
BRANCH   1  17
ATOM     17  C   UNL     1       2.050   4.044  21.136  0.00  0.00    +0.000 C 
BRANCH  17  18
ATOM     18  C   UNL     1       1.385   5.300  20.550  0.00  0.00    +0.000 C 
BRANCH  18  19
ATOM     19  N   UNL     1       2.001   6.550  21.003  0.00  0.00    +0.000 N 
ATOM     20  H   UNL     1       2.970   6.423  21.290  0.00  0.00    +0.000 HD
BRANCH  19  21
ATOM     21  C   UNL     1       1.922   7.551  20.010  0.00  0.00    +0.000 A 
ATOM     22  N   UNL     1       2.616   7.350  18.861  0.00  0.00    +0.000 NA
ATOM     23  C   UNL     1       2.541   8.250  17.865  0.00  0.00    +0.000 A 
ATOM     24  C   UNL     1       1.769   9.383  17.933  0.00  0.00    +0.000 A 
ATOM     25  C   UNL     1       1.048   9.594  19.100  0.00  0.00    +0.000 A 
ATOM     26  C   UNL     1       1.119   8.673  20.167  0.00  0.00    +0.000 A 
BRANCH  26  27
ATOM     27  C   UNL     1       0.322   8.964  21.404  0.00  0.00    +0.000 C 
ATOM     28  F   UNL     1      -0.386  10.127  21.395  0.00  0.00    +0.000 F 
ATOM     29  F   UNL     1      -0.611   7.991  21.637  0.00  0.00    +0.000 F 
ATOM     30  F   UNL     1       1.091   8.997  22.529  0.00  0.00    +0.000 F 
ENDBRANCH  26  27
ENDBRANCH  19  21
ENDBRANCH  18  19
ENDBRANCH  17  18
ENDBRANCH   1  17
TORSDOF 10
ENDMDL
MODEL 5
REMARK VINA RESULT:      -7.0      3.446      6.046
REMARK  Name = 
REMARK  10 active torsions:
REMARK  status: ('A' for Active; 'I' for Inactive)
REMARK    1  A    between atoms: O_1  and  C_2
REMARK    2  A    between atoms: C_2  and  C_3
REMARK    3  A    between atoms: C_2  and  C_18
REMARK    4  A    between atoms: C_3  and  N_4
REMARK    5  A    between atoms: N_4  and  C_5
REMARK    6  A    between atoms: C_5  and  C_6
REMARK    7  A    between atoms: C_6  and  N_7
REMARK    8  A    between atoms: N_7  and  C_8
REMARK    9  A    between atoms: C_13  and  C_14
REMARK   10  A    between atoms: C_18  and  N_19
REMARK                            x       y       z     vdW  Elec       q    Type
REMARK                         _______ _______ _______ _____ _____    ______ ____
ROOT
ATOM      1  N   UNL     1       2.230   2.349  19.727  0.00  0.00    +0.000 NA
ATOM      2  H   UNL     1       1.602   2.712  19.008  0.00  0.00    +0.000 HD
ENDROOT
BRANCH   1   3
ATOM      3  C   UNL     1       2.078   3.179  20.937  0.00  0.00    +0.000 C 
BRANCH   3   4
ATOM      4  C   UNL     1       1.590   4.598  20.612  0.00  0.00    +0.000 C 
BRANCH   4   5
ATOM      5  O   UNL     1       0.920   4.559  19.347  0.00  0.00    +0.000 OA
ATOM      6  H   UNL     1       0.008   4.279  19.544  0.00  0.00    +0.000 HD
ENDBRANCH   4   5
BRANCH   4   7
ATOM      7  C   UNL     1       2.800   5.541  20.563  0.00  0.00    +0.000 C 
BRANCH   7   8
ATOM      8  N   UNL     1       2.615   6.640  19.630  0.00  0.00    +0.000 N 
ATOM      9  C   UNL     1       3.145   6.652  18.365  0.00  0.00    +0.000 A 
ATOM     10  C   UNL     1       2.731   7.807  17.746  0.00  0.00    +0.000 A 
ATOM     11  C   UNL     1       1.947   8.540  18.678  0.00  0.00    +0.000 A 
ATOM     12  C   UNL     1       1.268   9.772  18.615  0.00  0.00    +0.000 A 
ATOM     13  C   UNL     1       0.583  10.241  19.739  0.00  0.00    +0.000 A 
ATOM     14  C   UNL     1       0.566   9.499  20.916  0.00  0.00    +0.000 A 
ATOM     15  C   UNL     1       1.221   8.265  21.001  0.00  0.00    +0.000 A 
ATOM     16  C   UNL     1       1.905   7.800  19.866  0.00  0.00    +0.000 A 
ENDBRANCH   7   8
ENDBRANCH   4   7
ENDBRANCH   3   4
ENDBRANCH   1   3
BRANCH   1  17
ATOM     17  C   UNL     1       3.609   2.396  19.195  0.00  0.00    +0.000 C 
BRANCH  17  18
ATOM     18  C   UNL     1       3.725   3.202  17.892  0.00  0.00    +0.000 C 
BRANCH  18  19
ATOM     19  N   UNL     1       5.052   3.122  17.274  0.00  0.00    +0.000 N 
ATOM     20  H   UNL     1       5.003   3.015  16.262  0.00  0.00    +0.000 HD
BRANCH  19  21
ATOM     21  C   UNL     1       5.840   4.247  17.601  0.00  0.00    +0.000 A 
ATOM     22  N   UNL     1       6.042   4.508  18.917  0.00  0.00    +0.000 NA
ATOM     23  C   UNL     1       6.820   5.542  19.285  0.00  0.00    +0.000 A 
ATOM     24  C   UNL     1       7.454   6.361  18.385  0.00  0.00    +0.000 A 
ATOM     25  C   UNL     1       7.261   6.099  17.036  0.00  0.00    +0.000 A 
ATOM     26  C   UNL     1       6.438   5.029  16.622  0.00  0.00    +0.000 A 
BRANCH  26  27
ATOM     27  C   UNL     1       6.263   4.803  15.149  0.00  0.00    +0.000 C 
ATOM     28  F   UNL     1       5.985   3.524  14.773  0.00  0.00    +0.000 F 
ATOM     29  F   UNL     1       5.227   5.545  14.650  0.00  0.00    +0.000 F 
ATOM     30  F   UNL     1       7.354   5.183  14.427  0.00  0.00    +0.000 F 
ENDBRANCH  26  27
ENDBRANCH  19  21
ENDBRANCH  18  19
ENDBRANCH  17  18
ENDBRANCH   1  17
TORSDOF 10
ENDMDL
MODEL 6
REMARK VINA RESULT:      -7.0      3.552      6.405
REMARK  Name = 
REMARK  10 active torsions:
REMARK  status: ('A' for Active; 'I' for Inactive)
REMARK    1  A    between atoms: O_1  and  C_2
REMARK    2  A    between atoms: C_2  and  C_3
REMARK    3  A    between atoms: C_2  and  C_18
REMARK    4  A    between atoms: C_3  and  N_4
REMARK    5  A    between atoms: N_4  and  C_5
REMARK    6  A    between atoms: C_5  and  C_6
REMARK    7  A    between atoms: C_6  and  N_7
REMARK    8  A    between atoms: N_7  and  C_8
REMARK    9  A    between atoms: C_13  and  C_14
REMARK   10  A    between atoms: C_18  and  N_19
REMARK                            x       y       z     vdW  Elec       q    Type
REMARK                         _______ _______ _______ _____ _____    ______ ____
ROOT
ATOM      1  N   UNL     1       2.482   2.255  19.512  0.00  0.00    +0.000 NA
ATOM      2  H   UNL     1       1.480   2.435  19.433  0.00  0.00    +0.000 HD
ENDROOT
BRANCH   1   3
ATOM      3  C   UNL     1       3.111   3.411  20.178  0.00  0.00    +0.000 C 
BRANCH   3   4
ATOM      4  C   UNL     1       2.113   4.551  20.431  0.00  0.00    +0.000 C 
BRANCH   4   5
ATOM      5  O   UNL     1       0.843   4.156  19.896  0.00  0.00    +0.000 OA
ATOM      6  H   UNL     1       0.989   3.277  19.504  0.00  0.00    +0.000 HD
ENDBRANCH   4   5
BRANCH   4   7
ATOM      7  C   UNL     1       2.627   5.823  19.743  0.00  0.00    +0.000 C 
BRANCH   7   8
ATOM      8  N   UNL     1       1.908   7.014  20.164  0.00  0.00    +0.000 N 
ATOM      9  C   UNL     1       1.252   7.114  21.364  0.00  0.00    +0.000 A 
ATOM     10  C   UNL     1       0.734   8.384  21.456  0.00  0.00    +0.000 A 
ATOM     11  C   UNL     1       1.060   9.072  20.257  0.00  0.00    +0.000 A 
ATOM     12  C   UNL     1       0.804  10.375  19.788  0.00  0.00    +0.000 A 
ATOM     13  C   UNL     1       1.255  10.753  18.520  0.00  0.00    +0.000 A 
ATOM     14  C   UNL     1       1.955   9.853  17.722  0.00  0.00    +0.000 A 
ATOM     15  C   UNL     1       2.234   8.557  18.169  0.00  0.00    +0.000 A 
ATOM     16  C   UNL     1       1.779   8.186  19.446  0.00  0.00    +0.000 A 
ENDBRANCH   7   8
ENDBRANCH   4   7
ENDBRANCH   3   4
ENDBRANCH   1   3
BRANCH   1  17
ATOM     17  C   UNL     1       3.017   2.044  18.150  0.00  0.00    +0.000 C 
BRANCH  17  18
ATOM     18  C   UNL     1       3.651   3.309  17.550  0.00  0.00    +0.000 C 
BRANCH  18  19
ATOM     19  N   UNL     1       5.039   3.117  17.121  0.00  0.00    +0.000 N 
ATOM     20  H   UNL     1       5.115   2.929  16.123  0.00  0.00    +0.000 HD
BRANCH  19  21
ATOM     21  C   UNL     1       5.840   4.229  17.463  0.00  0.00    +0.000 A 
ATOM     22  N   UNL     1       6.014   4.494  18.782  0.00  0.00    +0.000 NA
ATOM     23  C   UNL     1       6.802   5.515  19.164  0.00  0.00    +0.000 A 
ATOM     24  C   UNL     1       7.475   6.316  18.276  0.00  0.00    +0.000 A 
ATOM     25  C   UNL     1       7.312   6.049  16.925  0.00  0.00    +0.000 A 
ATOM     26  C   UNL     1       6.479   4.993  16.495  0.00  0.00    +0.000 A 
BRANCH  26  27
ATOM     27  C   UNL     1       6.338   4.762  15.020  0.00  0.00    +0.000 C 
ATOM     28  F   UNL     1       6.374   3.463  14.615  0.00  0.00    +0.000 F 
ATOM     29  F   UNL     1       5.144   5.239  14.551  0.00  0.00    +0.000 F 
ATOM     30  F   UNL     1       7.290   5.412  14.293  0.00  0.00    +0.000 F 
ENDBRANCH  26  27
ENDBRANCH  19  21
ENDBRANCH  18  19
ENDBRANCH  17  18
ENDBRANCH   1  17
TORSDOF 10
ENDMDL
MODEL 7
REMARK VINA RESULT:      -6.9      5.211      7.473
REMARK  Name = 
REMARK  10 active torsions:
REMARK  status: ('A' for Active; 'I' for Inactive)
REMARK    1  A    between atoms: O_1  and  C_2
REMARK    2  A    between atoms: C_2  and  C_3
REMARK    3  A    between atoms: C_2  and  C_18
REMARK    4  A    between atoms: C_3  and  N_4
REMARK    5  A    between atoms: N_4  and  C_5
REMARK    6  A    between atoms: C_5  and  C_6
REMARK    7  A    between atoms: C_6  and  N_7
REMARK    8  A    between atoms: N_7  and  C_8
REMARK    9  A    between atoms: C_13  and  C_14
REMARK   10  A    between atoms: C_18  and  N_19
REMARK                            x       y       z     vdW  Elec       q    Type
REMARK                         _______ _______ _______ _____ _____    ______ ____
ROOT
ATOM      1  N   UNL     1       7.864   7.241  17.293  0.00  0.00    +0.000 NA
ATOM      2  H   UNL     1       7.335   6.959  16.466  0.00  0.00    +0.000 HD
ENDROOT
BRANCH   1   3
ATOM      3  C   UNL     1       7.560   6.294  18.383  0.00  0.00    +0.000 C 
BRANCH   3   4
ATOM      4  C   UNL     1       6.993   4.966  17.859  0.00  0.00    +0.000 C 
BRANCH   4   5
ATOM      5  O   UNL     1       8.077   4.207  17.310  0.00  0.00    +0.000 OA
ATOM      6  H   UNL     1       8.502   4.794  16.660  0.00  0.00    +0.000 HD
ENDBRANCH   4   5
BRANCH   4   7
ATOM      7  C   UNL     1       5.934   5.265  16.790  0.00  0.00    +0.000 C 
BRANCH   7   8
ATOM      8  N   UNL     1       4.595   5.368  17.344  0.00  0.00    +0.000 N 
ATOM      9  C   UNL     1       3.990   6.564  17.637  0.00  0.00    +0.000 A 
ATOM     10  C   UNL     1       2.721   6.294  18.089  0.00  0.00    +0.000 A 
ATOM     11  C   UNL     1       2.557   4.883  18.103  0.00  0.00    +0.000 A 
ATOM     12  C   UNL     1       1.491   4.034  18.460  0.00  0.00    +0.000 A 
ATOM     13  C   UNL     1       1.654   2.649  18.376  0.00  0.00    +0.000 A 
ATOM     14  C   UNL     1       2.858   2.104  17.941  0.00  0.00    +0.000 A 
ATOM     15  C   UNL     1       3.929   2.924  17.568  0.00  0.00    +0.000 A 
ATOM     16  C   UNL     1       3.756   4.316  17.652  0.00  0.00    +0.000 A 
ENDBRANCH   7   8
ENDBRANCH   4   7
ENDBRANCH   3   4
ENDBRANCH   1   3
BRANCH   1  17
ATOM     17  C   UNL     1       7.470   8.624  17.638  0.00  0.00    +0.000 C 
BRANCH  17  18
ATOM     18  C   UNL     1       8.625   9.450  18.226  0.00  0.00    +0.000 C 
BRANCH  18  19
ATOM     19  N   UNL     1       8.295  10.867  18.403  0.00  0.00    +0.000 N 
ATOM     20  H   UNL     1       7.930  11.067  19.333  0.00  0.00    +0.000 HD
BRANCH  19  21
ATOM     21  C   UNL     1       9.411  11.691  18.138  0.00  0.00    +0.000 A 
ATOM     22  N   UNL     1      10.631  11.098  18.096  0.00  0.00    +0.000 NA
ATOM     23  C   UNL     1      11.723  11.828  17.805  0.00  0.00    +0.000 A 
ATOM     24  C   UNL     1      11.674  13.170  17.520  0.00  0.00    +0.000 A 
ATOM     25  C   UNL     1      10.431  13.785  17.551  0.00  0.00    +0.000 A 
ATOM     26  C   UNL     1       9.270  13.046  17.869  0.00  0.00    +0.000 A 
BRANCH  26  27
ATOM     27  C   UNL     1       7.958  13.771  17.893  0.00  0.00    +0.000 C 
ATOM     28  F   UNL     1       6.940  13.183  17.206  0.00  0.00    +0.000 F 
ATOM     29  F   UNL     1       7.484  13.903  19.170  0.00  0.00    +0.000 F 
ATOM     30  F   UNL     1       8.052  15.044  17.415  0.00  0.00    +0.000 F 
ENDBRANCH  26  27
ENDBRANCH  19  21
ENDBRANCH  18  19
ENDBRANCH  17  18
ENDBRANCH   1  17
TORSDOF 10
ENDMDL
MODEL 8
REMARK VINA RESULT:      -6.9      1.301      1.810
REMARK  Name = 
REMARK  10 active torsions:
REMARK  status: ('A' for Active; 'I' for Inactive)
REMARK    1  A    between atoms: O_1  and  C_2
REMARK    2  A    between atoms: C_2  and  C_3
REMARK    3  A    between atoms: C_2  and  C_18
REMARK    4  A    between atoms: C_3  and  N_4
REMARK    5  A    between atoms: N_4  and  C_5
REMARK    6  A    between atoms: C_5  and  C_6
REMARK    7  A    between atoms: C_6  and  N_7
REMARK    8  A    between atoms: N_7  and  C_8
REMARK    9  A    between atoms: C_13  and  C_14
REMARK   10  A    between atoms: C_18  and  N_19
REMARK                            x       y       z     vdW  Elec       q    Type
REMARK                         _______ _______ _______ _____ _____    ______ ____
ROOT
ATOM      1  N   UNL     1       2.831   4.182  20.461  0.00  0.00    +0.000 NA
ATOM      2  H   UNL     1       3.679   4.709  20.246  0.00  0.00    +0.000 HD
ENDROOT
BRANCH   1   3
ATOM      3  C   UNL     1       2.624   3.183  19.396  0.00  0.00    +0.000 C 
BRANCH   3   4
ATOM      4  C   UNL     1       2.818   3.778  17.993  0.00  0.00    +0.000 C 
BRANCH   4   5
ATOM      5  O   UNL     1       1.702   3.385  17.186  0.00  0.00    +0.000 OA
ATOM      6  H   UNL     1       1.235   2.704  17.702  0.00  0.00    +0.000 HD
ENDBRANCH   4   5
BRANCH   4   7
ATOM      7  C   UNL     1       4.133   3.248  17.407  0.00  0.00    +0.000 C 
BRANCH   7   8
ATOM      8  N   UNL     1       4.984   4.309  16.895  0.00  0.00    +0.000 N 
ATOM      9  C   UNL     1       4.933   4.758  15.600  0.00  0.00    +0.000 A 
ATOM     10  C   UNL     1       5.828   5.794  15.478  0.00  0.00    +0.000 A 
ATOM     11  C   UNL     1       6.471   5.961  16.734  0.00  0.00    +0.000 A 
ATOM     12  C   UNL     1       7.459   6.846  17.206  0.00  0.00    +0.000 A 
ATOM     13  C   UNL     1       7.906   6.741  18.526  0.00  0.00    +0.000 A 
ATOM     14  C   UNL     1       7.381   5.770  19.374  0.00  0.00    +0.000 A 
ATOM     15  C   UNL     1       6.389   4.887  18.934  0.00  0.00    +0.000 A 
ATOM     16  C   UNL     1       5.943   5.001  17.607  0.00  0.00    +0.000 A 
ENDBRANCH   7   8
ENDBRANCH   4   7
ENDBRANCH   3   4
ENDBRANCH   1   3
BRANCH   1  17
ATOM     17  C   UNL     1       1.707   5.139  20.546  0.00  0.00    +0.000 C 
BRANCH  17  18
ATOM     18  C   UNL     1       2.111   6.576  20.180  0.00  0.00    +0.000 C 
BRANCH  18  19
ATOM     19  N   UNL     1       1.563   7.584  21.093  0.00  0.00    +0.000 N 
ATOM     20  H   UNL     1       2.204   7.808  21.853  0.00  0.00    +0.000 HD
BRANCH  19  21
ATOM     21  C   UNL     1       1.207   8.763  20.402  0.00  0.00    +0.000 A 
ATOM     22  N   UNL     1       1.613   8.879  19.113  0.00  0.00    +0.000 NA
ATOM     23  C   UNL     1       1.265   9.962  18.394  0.00  0.00    +0.000 A 
ATOM     24  C   UNL     1       0.487  10.976  18.894  0.00  0.00    +0.000 A 
ATOM     25  C   UNL     1       0.058  10.863  20.209  0.00  0.00    +0.000 A 
ATOM     26  C   UNL     1       0.421   9.745  20.991  0.00  0.00    +0.000 A 
BRANCH  26  27
ATOM     27  C   UNL     1      -0.066   9.687  22.408  0.00  0.00    +0.000 C 
ATOM     28  F   UNL     1      -0.943   8.685  22.695  0.00  0.00    +0.000 F 
ATOM     29  F   UNL     1       0.968   9.506  23.285  0.00  0.00    +0.000 F 
ATOM     30  F   UNL     1      -0.670  10.844  22.803  0.00  0.00    +0.000 F 
ENDBRANCH  26  27
ENDBRANCH  19  21
ENDBRANCH  18  19
ENDBRANCH  17  18
ENDBRANCH   1  17
TORSDOF 10
ENDMDL
MODEL 9
REMARK VINA RESULT:      -6.9      5.359      7.719
REMARK  Name = 
REMARK  10 active torsions:
REMARK  status: ('A' for Active; 'I' for Inactive)
REMARK    1  A    between atoms: O_1  and  C_2
REMARK    2  A    between atoms: C_2  and  C_3
REMARK    3  A    between atoms: C_2  and  C_18
REMARK    4  A    between atoms: C_3  and  N_4
REMARK    5  A    between atoms: N_4  and  C_5
REMARK    6  A    between atoms: C_5  and  C_6
REMARK    7  A    between atoms: C_6  and  N_7
REMARK    8  A    between atoms: N_7  and  C_8
REMARK    9  A    between atoms: C_13  and  C_14
REMARK   10  A    between atoms: C_18  and  N_19
REMARK                            x       y       z     vdW  Elec       q    Type
REMARK                         _______ _______ _______ _____ _____    ______ ____
ROOT
ATOM      1  N   UNL     1       7.609   7.797  17.252  0.00  0.00    +0.000 NA
ATOM      2  H   UNL     1       6.754   8.351  17.174  0.00  0.00    +0.000 HD
ENDROOT
BRANCH   1   3
ATOM      3  C   UNL     1       7.232   6.396  17.515  0.00  0.00    +0.000 C 
BRANCH   3   4
ATOM      4  C   UNL     1       5.911   6.010  16.833  0.00  0.00    +0.000 C 
BRANCH   4   5
ATOM      5  O   UNL     1       5.726   6.873  15.704  0.00  0.00    +0.000 OA
ATOM      6  H   UNL     1       5.101   7.559  16.001  0.00  0.00    +0.000 HD
ENDBRANCH   4   5
BRANCH   4   7
ATOM      7  C   UNL     1       4.765   6.171  17.841  0.00  0.00    +0.000 C 
BRANCH   7   8
ATOM      8  N   UNL     1       3.853   5.039  17.835  0.00  0.00    +0.000 N 
ATOM      9  C   UNL     1       3.863   4.068  16.866  0.00  0.00    +0.000 A 
ATOM     10  C   UNL     1       2.914   3.132  17.199  0.00  0.00    +0.000 A 
ATOM     11  C   UNL     1       2.280   3.565  18.395  0.00  0.00    +0.000 A 
ATOM     12  C   UNL     1       1.253   3.028  19.196  0.00  0.00    +0.000 A 
ATOM     13  C   UNL     1       0.830   3.722  20.333  0.00  0.00    +0.000 A 
ATOM     14  C   UNL     1       1.417   4.936  20.678  0.00  0.00    +0.000 A 
ATOM     15  C   UNL     1       2.448   5.485  19.907  0.00  0.00    +0.000 A 
ATOM     16  C   UNL     1       2.869   4.779  18.767  0.00  0.00    +0.000 A 
ENDBRANCH   7   8
ENDBRANCH   4   7
ENDBRANCH   3   4
ENDBRANCH   1   3
BRANCH   1  17
ATOM     17  C   UNL     1       8.424   8.365  18.347  0.00  0.00    +0.000 C 
BRANCH  17  18
ATOM     18  C   UNL     1       8.648   9.879  18.207  0.00  0.00    +0.000 C 
BRANCH  18  19
ATOM     19  N   UNL     1       9.429  10.455  19.306  0.00  0.00    +0.000 N 
ATOM     20  H   UNL     1      10.098   9.793  19.695  0.00  0.00    +0.000 HD
BRANCH  19  21
ATOM     21  C   UNL     1      10.097  11.631  18.900  0.00  0.00    +0.000 A 
ATOM     22  N   UNL     1      10.627  11.650  17.651  0.00  0.00    +0.000 NA
ATOM     23  C   UNL     1      11.237  12.759  17.197  0.00  0.00    +0.000 A 
ATOM     24  C   UNL     1      11.342  13.913  17.933  0.00  0.00    +0.000 A 
ATOM     25  C   UNL     1      10.795  13.908  19.209  0.00  0.00    +0.000 A 
ATOM     26  C   UNL     1      10.162  12.753  19.716  0.00  0.00    +0.000 A 
BRANCH  26  27
ATOM     27  C   UNL     1       9.599  12.809  21.106  0.00  0.00    +0.000 C 
ATOM     28  F   UNL     1       8.244  12.716  21.202  0.00  0.00    +0.000 F 
ATOM     29  F   UNL     1      10.074  11.786  21.879  0.00  0.00    +0.000 F 
ATOM     30  F   UNL     1       9.949  13.948  21.767  0.00  0.00    +0.000 F 
ENDBRANCH  26  27
ENDBRANCH  19  21
ENDBRANCH  18  19
ENDBRANCH  17  18
ENDBRANCH   1  17
TORSDOF 10
ENDMDL
