MODEL 1
REMARK VINA RESULT:      -8.1      0.000      0.000
REMARK  Name = 
REMARK  7 active torsions:
REMARK  status: ('A' for Active; 'I' for Inactive)
REMARK    1  A    between atoms: C_1  and  C_2
REMARK    2  A    between atoms: C_2  and  N_3
REMARK    3  A    between atoms: C_2  and  C_9
REMARK    4  A    between atoms: N_6  and  C_7
REMARK    5  A    between atoms: N_6  and  C_8
REMARK    6  A    between atoms: C_12  and  O_13
REMARK    7  A    between atoms: O_13  and  C_14
REMARK                            x       y       z     vdW  Elec       q    Type
REMARK                         _______ _______ _______ _____ _____    ______ ____
ROOT
ATOM      1  C   UNL     1       1.221   8.567  21.286  0.00  0.00    +0.000 C 
ATOM      2  C   UNL     1       1.252   9.185  22.689  0.00  0.00    +0.000 C 
ATOM      3  C   UNL     1       0.034  10.101  22.789  0.00  0.00    +0.000 C 
ATOM      4  N   UNL     1      -0.290  10.404  21.412  0.00  0.00    +0.000 N 
ATOM      5  C   UNL     1      -1.034  11.504  21.055  0.00  0.00    +0.000 A 
ATOM      6  C   UNL     1      -1.437  11.704  19.753  0.00  0.00    +0.000 A 
ATOM      7  C   UNL     1      -2.122  12.860  19.480  0.00  0.00    +0.000 A 
ATOM      8  N   UNL     1      -2.419  13.774  20.409  0.00  0.00    +0.000 NA
ATOM      9  C   UNL     1      -2.009  13.535  21.662  0.00  0.00    +0.000 A 
ATOM     10  N   UNL     1      -2.284  14.477  22.617  0.00  0.00    +0.000 N 
ATOM     11  C   UNL     1      -1.791  14.363  23.985  0.00  0.00    +0.000 C 
ATOM     12  C   UNL     1      -2.970  14.385  24.969  0.00  0.00    +0.000 C 
ATOM     13  O   UNL     1      -3.831  15.519  24.754  0.00  0.00    +0.000 OA
ATOM     14  C   UNL     1      -4.361  15.490  23.416  0.00  0.00    +0.000 C 
ATOM     15  C   UNL     1      -3.240  15.552  22.367  0.00  0.00    +0.000 C 
ATOM     16  N   UNL     1      -1.329  12.421  22.000  0.00  0.00    +0.000 NA
ATOM     17  C   UNL     1       0.132   9.339  20.517  0.00  0.00    +0.000 C 
ENDROOT
BRANCH   1  18
ATOM     18  O   UNL     1       0.916   7.166  21.337  0.00  0.00    +0.000 OA
BRANCH  18  22
ATOM     19  C   UNL     1       2.927   4.429  18.848  0.00  0.00    +0.000 A 
ATOM     20  C   UNL     1       2.069   4.024  19.883  0.00  0.00    +0.000 A 
ATOM     21  C   UNL     1       1.409   4.970  20.685  0.00  0.00    +0.000 A 
ATOM     22  C   UNL     1       1.594   6.338  20.476  0.00  0.00    +0.000 A 
ATOM     23  C   UNL     1       2.415   6.747  19.426  0.00  0.00    +0.000 A 
ATOM     24  C   UNL     1       3.068   5.803  18.620  0.00  0.00    +0.000 A 
BRANCH  19  26
ATOM     25  C   UNL     1       3.566   1.964  18.562  0.00  0.00    +0.000 C 
ATOM     26  C   UNL     1       3.618   3.384  17.977  0.00  0.00    +0.000 C 
BRANCH  26  27
ATOM     27  N   UNL     1       4.999   3.783  17.748  0.00  0.00    +0.000 N 
ATOM     28  C   UNL     1       5.444   4.150  16.505  0.00  0.00    +0.000 C 
ATOM     29  O   UNL     1       4.695   4.146  15.535  0.00  0.00    +0.000 OA
ATOM     30  N   UNL     1       6.782   4.499  16.416  0.00  0.00    +0.000 N 
ATOM     31  C   UNL     1       7.778   4.449  17.479  0.00  0.00    +0.000 C 
ATOM     32  C   UNL     1       7.303   4.891  15.114  0.00  0.00    +0.000 C 
ATOM     33  H   UNL     1       5.526   4.052  18.558  0.00  0.00    +0.000 HD
ENDBRANCH  26  27
ENDBRANCH  19  26
ENDBRANCH  18  22
ENDBRANCH   1  18
TORSDOF 4
ENDMDL
MODEL 2
REMARK VINA RESULT:      -7.9      2.769      3.451
REMARK  Name = 
REMARK  7 active torsions:
REMARK  status: ('A' for Active; 'I' for Inactive)
REMARK    1  A    between atoms: C_1  and  C_2
REMARK    2  A    between atoms: C_2  and  N_3
REMARK    3  A    between atoms: C_2  and  C_9
REMARK    4  A    between atoms: N_6  and  C_7
REMARK    5  A    between atoms: N_6  and  C_8
REMARK    6  A    between atoms: C_12  and  O_13
REMARK    7  A    between atoms: O_13  and  C_14
REMARK                            x       y       z     vdW  Elec       q    Type
REMARK                         _______ _______ _______ _____ _____    ______ ____
ROOT
ATOM      1  C   UNL     1       0.918  10.041  19.931  0.00  0.00    +0.000 C 
ATOM      2  C   UNL     1       0.249  11.082  20.837  0.00  0.00    +0.000 C 
ATOM      3  C   UNL     1      -1.239  11.070  20.491  0.00  0.00    +0.000 C 
ATOM      4  N   UNL     1      -1.283  10.520  19.153  0.00  0.00    +0.000 N 
ATOM      5  C   UNL     1      -2.350  10.718  18.310  0.00  0.00    +0.000 A 
ATOM      6  C   UNL     1      -2.428  10.082  17.091  0.00  0.00    +0.000 A 
ATOM      7  C   UNL     1      -3.498  10.389  16.290  0.00  0.00    +0.000 A 
ATOM      8  N   UNL     1      -4.456  11.251  16.646  0.00  0.00    +0.000 NA
ATOM      9  C   UNL     1      -4.340  11.843  17.842  0.00  0.00    +0.000 A 
ATOM     10  N   UNL     1      -5.301  12.749  18.205  0.00  0.00    +0.000 N 
ATOM     11  C   UNL     1      -5.212  13.525  19.436  0.00  0.00    +0.000 C 
ATOM     12  C   UNL     1      -6.457  13.277  20.302  0.00  0.00    +0.000 C 
ATOM     13  O   UNL     1      -7.676  13.491  19.566  0.00  0.00    +0.000 OA
ATOM     14  C   UNL     1      -7.732  12.605  18.433  0.00  0.00    +0.000 C 
ATOM     15  C   UNL     1      -6.559  12.853  17.471  0.00  0.00    +0.000 C 
ATOM     16  N   UNL     1      -3.313  11.590  18.677  0.00  0.00    +0.000 NA
ATOM     17  C   UNL     1      -0.155   9.638  18.901  0.00  0.00    +0.000 C 
ENDROOT
BRANCH   1  18
ATOM     18  O   UNL     1       1.362   8.902  20.681  0.00  0.00    +0.000 OA
BRANCH  18  22
ATOM     19  C   UNL     1       2.863   5.484  18.733  0.00  0.00    +0.000 A 
ATOM     20  C   UNL     1       2.289   5.436  20.014  0.00  0.00    +0.000 A 
ATOM     21  C   UNL     1       1.790   6.599  20.624  0.00  0.00    +0.000 A 
ATOM     22  C   UNL     1       1.858   7.833  19.976  0.00  0.00    +0.000 A 
ATOM     23  C   UNL     1       2.393   7.881  18.689  0.00  0.00    +0.000 A 
ATOM     24  C   UNL     1       2.883   6.719  18.075  0.00  0.00    +0.000 A 
BRANCH  19  26
ATOM     25  C   UNL     1       3.129   2.943  18.919  0.00  0.00    +0.000 C 
ATOM     26  C   UNL     1       3.380   4.206  18.081  0.00  0.00    +0.000 C 
BRANCH  26  27
ATOM     27  N   UNL     1       4.801   4.348  17.799  0.00  0.00    +0.000 N 
ATOM     28  C   UNL     1       5.272   4.453  16.516  0.00  0.00    +0.000 C 
ATOM     29  O   UNL     1       4.511   4.420  15.555  0.00  0.00    +0.000 OA
ATOM     30  N   UNL     1       6.645   4.573  16.379  0.00  0.00    +0.000 N 
ATOM     31  C   UNL     1       7.643   4.528  17.441  0.00  0.00    +0.000 C 
ATOM     32  C   UNL     1       7.193   4.682  15.035  0.00  0.00    +0.000 C 
ATOM     33  H   UNL     1       5.379   4.649  18.560  0.00  0.00    +0.000 HD
ENDBRANCH  26  27
ENDBRANCH  19  26
ENDBRANCH  18  22
ENDBRANCH   1  18
TORSDOF 4
ENDMDL
MODEL 3
REMARK VINA RESULT:      -7.9      1.147      1.263
REMARK  Name = 
REMARK  7 active torsions:
REMARK  status: ('A' for Active; 'I' for Inactive)
REMARK    1  A    between atoms: C_1  and  C_2
REMARK    2  A    between atoms: C_2  and  N_3
REMARK    3  A    between atoms: C_2  and  C_9
REMARK    4  A    between atoms: N_6  and  C_7
REMARK    5  A    between atoms: N_6  and  C_8
REMARK    6  A    between atoms: C_12  and  O_13
REMARK    7  A    between atoms: O_13  and  C_14
REMARK                            x       y       z     vdW  Elec       q    Type
REMARK                         _______ _______ _______ _____ _____    ______ ____
ROOT
ATOM      1  C   UNL     1       1.285   8.606  21.341  0.00  0.00    +0.000 C 
ATOM      2  C   UNL     1       0.774   9.264  22.629  0.00  0.00    +0.000 C 
ATOM      3  C   UNL     1      -0.208  10.353  22.202  0.00  0.00    +0.000 C 
ATOM      4  N   UNL     1       0.170  10.650  20.838  0.00  0.00    +0.000 N 
ATOM      5  C   UNL     1      -0.161  11.834  20.223  0.00  0.00    +0.000 A 
ATOM      6  C   UNL     1       0.098  12.044  18.886  0.00  0.00    +0.000 A 
ATOM      7  C   UNL     1      -0.211  13.278  18.374  0.00  0.00    +0.000 A 
ATOM      8  N   UNL     1      -0.755  14.259  19.102  0.00  0.00    +0.000 NA
ATOM      9  C   UNL     1      -0.991  14.008  20.396  0.00  0.00    +0.000 A 
ATOM     10  N   UNL     1      -1.523  15.014  21.158  0.00  0.00    +0.000 N 
ATOM     11  C   UNL     1      -1.720  14.879  22.596  0.00  0.00    +0.000 C 
ATOM     12  C   UNL     1      -3.198  15.111  22.945  0.00  0.00    +0.000 C 
ATOM     13  O   UNL     1      -3.691  16.351  22.405  0.00  0.00    +0.000 OA
ATOM     14  C   UNL     1      -3.562  16.352  20.972  0.00  0.00    +0.000 C 
ATOM     15  C   UNL     1      -2.094  16.209  20.542  0.00  0.00    +0.000 C 
ATOM     16  N   UNL     1      -0.710  12.818  20.965  0.00  0.00    +0.000 NA
ATOM     17  C   UNL     1       0.787   9.503  20.192  0.00  0.00    +0.000 C 
ENDROOT
BRANCH   1  18
ATOM     18  O   UNL     1       0.786   7.269  21.202  0.00  0.00    +0.000 OA
BRANCH  18  22
ATOM     19  C   UNL     1       2.994   4.352  19.116  0.00  0.00    +0.000 A 
ATOM     20  C   UNL     1       1.879   4.037  19.909  0.00  0.00    +0.000 A 
ATOM     21  C   UNL     1       1.163   5.041  20.580  0.00  0.00    +0.000 A 
ATOM     22  C   UNL     1       1.546   6.380  20.482  0.00  0.00    +0.000 A 
ATOM     23  C   UNL     1       2.630   6.705  19.667  0.00  0.00    +0.000 A 
ATOM     24  C   UNL     1       3.340   5.703  18.989  0.00  0.00    +0.000 A 
BRANCH  19  26
ATOM     25  C   UNL     1       3.839   1.935  19.173  0.00  0.00    +0.000 C 
ATOM     26  C   UNL     1       3.745   3.248  18.380  0.00  0.00    +0.000 C 
BRANCH  26  27
ATOM     27  N   UNL     1       5.077   3.720  18.028  0.00  0.00    +0.000 N 
ATOM     28  C   UNL     1       5.406   4.045  16.739  0.00  0.00    +0.000 C 
ATOM     29  O   UNL     1       4.591   3.941  15.829  0.00  0.00    +0.000 OA
ATOM     30  N   UNL     1       6.708   4.472  16.532  0.00  0.00    +0.000 N 
ATOM     31  C   UNL     1       7.778   4.542  17.518  0.00  0.00    +0.000 C 
ATOM     32  C   UNL     1       7.107   4.824  15.177  0.00  0.00    +0.000 C 
ATOM     33  H   UNL     1       5.641   4.065  18.782  0.00  0.00    +0.000 HD
ENDBRANCH  26  27
ENDBRANCH  19  26
ENDBRANCH  18  22
ENDBRANCH   1  18
TORSDOF 4
ENDMDL
MODEL 4
REMARK VINA RESULT:      -7.8      1.853      3.004
REMARK  Name = 
REMARK  7 active torsions:
REMARK  status: ('A' for Active; 'I' for Inactive)
REMARK    1  A    between atoms: C_1  and  C_2
REMARK    2  A    between atoms: C_2  and  N_3
REMARK    3  A    between atoms: C_2  and  C_9
REMARK    4  A    between atoms: N_6  and  C_7
REMARK    5  A    between atoms: N_6  and  C_8
REMARK    6  A    between atoms: C_12  and  O_13
REMARK    7  A    between atoms: O_13  and  C_14
REMARK                            x       y       z     vdW  Elec       q    Type
REMARK                         _______ _______ _______ _____ _____    ______ ____
ROOT
ATOM      1  C   UNL     1      -0.456  10.343  19.712  0.00  0.00    +0.000 C 
ATOM      2  C   UNL     1      -1.052  11.369  18.741  0.00  0.00    +0.000 C 
ATOM      3  C   UNL     1      -1.539  12.542  19.590  0.00  0.00    +0.000 C 
ATOM      4  N   UNL     1      -1.725  11.967  20.905  0.00  0.00    +0.000 N 
ATOM      5  C   UNL     1      -2.536  12.545  21.853  0.00  0.00    +0.000 A 
ATOM      6  C   UNL     1      -2.599  12.053  23.138  0.00  0.00    +0.000 A 
ATOM      7  C   UNL     1      -3.482  12.655  23.997  0.00  0.00    +0.000 A 
ATOM      8  N   UNL     1      -4.256  13.688  23.649  0.00  0.00    +0.000 NA
ATOM      9  C   UNL     1      -4.157  14.134  22.390  0.00  0.00    +0.000 A 
ATOM     10  N   UNL     1      -4.965  15.175  22.014  0.00  0.00    +0.000 N 
ATOM     11  C   UNL     1      -5.012  15.665  20.642  0.00  0.00    +0.000 C 
ATOM     12  C   UNL     1      -4.662  17.161  20.609  0.00  0.00    +0.000 C 
ATOM     13  O   UNL     1      -5.468  17.923  21.526  0.00  0.00    +0.000 OA
ATOM     14  C   UNL     1      -5.274  17.445  22.870  0.00  0.00    +0.000 C 
ATOM     15  C   UNL     1      -5.686  15.970  23.004  0.00  0.00    +0.000 C 
ATOM     16  N   UNL     1      -3.313  13.588  21.493  0.00  0.00    +0.000 NA
ATOM     17  C   UNL     1      -0.847  10.829  21.120  0.00  0.00    +0.000 C 
ENDROOT
BRANCH   1  18
ATOM     18  O   UNL     1       0.970  10.260  19.576  0.00  0.00    +0.000 OA
BRANCH  18  22
ATOM     19  C   UNL     1       2.622   6.416  19.101  0.00  0.00    +0.000 A 
ATOM     20  C   UNL     1       2.061   6.856  20.310  0.00  0.00    +0.000 A 
ATOM     21  C   UNL     1       1.511   8.143  20.424  0.00  0.00    +0.000 A 
ATOM     22  C   UNL     1       1.513   9.021  19.338  0.00  0.00    +0.000 A 
ATOM     23  C   UNL     1       2.035   8.577  18.124  0.00  0.00    +0.000 A 
ATOM     24  C   UNL     1       2.576   7.289  18.007  0.00  0.00    +0.000 A 
BRANCH  19  26
ATOM     25  C   UNL     1       2.969   4.153  20.251  0.00  0.00    +0.000 C 
ATOM     26  C   UNL     1       3.197   5.007  18.994  0.00  0.00    +0.000 C 
BRANCH  26  27
ATOM     27  N   UNL     1       4.619   5.087  18.692  0.00  0.00    +0.000 N 
ATOM     28  C   UNL     1       5.114   4.723  17.467  0.00  0.00    +0.000 C 
ATOM     29  O   UNL     1       4.376   4.306  16.581  0.00  0.00    +0.000 OA
ATOM     30  N   UNL     1       6.486   4.835  17.306  0.00  0.00    +0.000 N 
ATOM     31  C   UNL     1       7.461   5.226  18.317  0.00  0.00    +0.000 C 
ATOM     32  C   UNL     1       7.059   4.455  16.024  0.00  0.00    +0.000 C 
ATOM     33  H   UNL     1       5.170   5.671  19.291  0.00  0.00    +0.000 HD
ENDBRANCH  26  27
ENDBRANCH  19  26
ENDBRANCH  18  22
ENDBRANCH   1  18
TORSDOF 4
ENDMDL
MODEL 5
REMARK VINA RESULT:      -7.8      1.860      2.696
REMARK  Name = 
REMARK  7 active torsions:
REMARK  status: ('A' for Active; 'I' for Inactive)
REMARK    1  A    between atoms: C_1  and  C_2
REMARK    2  A    between atoms: C_2  and  N_3
REMARK    3  A    between atoms: C_2  and  C_9
REMARK    4  A    between atoms: N_6  and  C_7
REMARK    5  A    between atoms: N_6  and  C_8
REMARK    6  A    between atoms: C_12  and  O_13
REMARK    7  A    between atoms: O_13  and  C_14
REMARK                            x       y       z     vdW  Elec       q    Type
REMARK                         _______ _______ _______ _____ _____    ______ ____
ROOT
ATOM      1  C   UNL     1       1.926   8.434  19.046  0.00  0.00    +0.000 C 
ATOM      2  C   UNL     1       1.418   8.291  20.485  0.00  0.00    +0.000 C 
ATOM      3  C   UNL     1       0.273   9.289  20.646  0.00  0.00    +0.000 C 
ATOM      4  N   UNL     1       0.517  10.270  19.610  0.00  0.00    +0.000 N 
ATOM      5  C   UNL     1      -0.010  11.539  19.659  0.00  0.00    +0.000 A 
ATOM      6  C   UNL     1       0.130  12.414  18.605  0.00  0.00    +0.000 A 
ATOM      7  C   UNL     1      -0.374  13.679  18.768  0.00  0.00    +0.000 A 
ATOM      8  N   UNL     1      -0.995  14.082  19.882  0.00  0.00    +0.000 NA
ATOM      9  C   UNL     1      -1.109  13.196  20.879  0.00  0.00    +0.000 A 
ATOM     10  N   UNL     1      -1.719  13.607  22.035  0.00  0.00    +0.000 N 
ATOM     11  C   UNL     1      -1.800  12.756  23.216  0.00  0.00    +0.000 C 
ATOM     12  C   UNL     1      -3.270  12.564  23.622  0.00  0.00    +0.000 C 
ATOM     13  O   UNL     1      -3.958  13.820  23.762  0.00  0.00    +0.000 OA
ATOM     14  C   UNL     1      -3.926  14.543  22.518  0.00  0.00    +0.000 C 
ATOM     15  C   UNL     1      -2.484  14.851  22.087  0.00  0.00    +0.000 C 
ATOM     16  N   UNL     1      -0.635  11.938  20.787  0.00  0.00    +0.000 NA
ATOM     17  C   UNL     1       1.237   9.694  18.487  0.00  0.00    +0.000 C 
ENDROOT
BRANCH   1  18
ATOM     18  O   UNL     1       1.602   7.280  18.258  0.00  0.00    +0.000 OA
BRANCH  18  22
ATOM     19  C   UNL     1       4.885   4.849  17.236  0.00  0.00    +0.000 A 
ATOM     20  C   UNL     1       4.989   6.241  17.385  0.00  0.00    +0.000 A 
ATOM     21  C   UNL     1       3.871   7.015  17.737  0.00  0.00    +0.000 A 
ATOM     22  C   UNL     1       2.625   6.420  17.942  0.00  0.00    +0.000 A 
ATOM     23  C   UNL     1       2.523   5.034  17.832  0.00  0.00    +0.000 A 
ATOM     24  C   UNL     1       3.640   4.260  17.489  0.00  0.00    +0.000 A 
BRANCH  19  26
ATOM     25  C   UNL     1       7.433   4.630  17.386  0.00  0.00    +0.000 C 
ATOM     26  C   UNL     1       6.116   4.026  16.872  0.00  0.00    +0.000 C 
BRANCH  26  27
ATOM     27  N   UNL     1       6.173   3.853  15.428  0.00  0.00    +0.000 N 
ATOM     28  C   UNL     1       6.942   4.665  14.636  0.00  0.00    +0.000 C 
ATOM     29  O   UNL     1       7.606   5.577  15.117  0.00  0.00    +0.000 OA
ATOM     30  N   UNL     1       6.903   4.405  13.276  0.00  0.00    +0.000 N 
ATOM     31  C   UNL     1       6.081   3.414  12.593  0.00  0.00    +0.000 C 
ATOM     32  C   UNL     1       7.700   5.245  12.394  0.00  0.00    +0.000 C 
ATOM     33  H   UNL     1       5.868   2.966  15.072  0.00  0.00    +0.000 HD
ENDBRANCH  26  27
ENDBRANCH  19  26
ENDBRANCH  18  22
ENDBRANCH   1  18
TORSDOF 4
ENDMDL
MODEL 6
REMARK VINA RESULT:      -7.8      5.265     10.265
REMARK  Name = 
REMARK  7 active torsions:
REMARK  status: ('A' for Active; 'I' for Inactive)
REMARK    1  A    between atoms: C_1  and  C_2
REMARK    2  A    between atoms: C_2  and  N_3
REMARK    3  A    between atoms: C_2  and  C_9
REMARK    4  A    between atoms: N_6  and  C_7
REMARK    5  A    between atoms: N_6  and  C_8
REMARK    6  A    between atoms: C_12  and  O_13
REMARK    7  A    between atoms: O_13  and  C_14
REMARK                            x       y       z     vdW  Elec       q    Type
REMARK                         _______ _______ _______ _____ _____    ______ ____
ROOT
ATOM      1  C   UNL     1       0.110  11.040  20.147  0.00  0.00    +0.000 C 
ATOM      2  C   UNL     1      -0.448   9.919  21.032  0.00  0.00    +0.000 C 
ATOM      3  C   UNL     1       0.577   8.787  20.999  0.00  0.00    +0.000 C 
ATOM      4  N   UNL     1       1.317   9.020  19.778  0.00  0.00    +0.000 N 
ATOM      5  C   UNL     1       2.035   8.029  19.152  0.00  0.00    +0.000 A 
ATOM      6  C   UNL     1       2.834   8.302  18.063  0.00  0.00    +0.000 A 
ATOM      7  C   UNL     1       3.463   7.241  17.465  0.00  0.00    +0.000 A 
ATOM      8  N   UNL     1       3.346   5.981  17.896  0.00  0.00    +0.000 NA
ATOM      9  C   UNL     1       2.560   5.764  18.959  0.00  0.00    +0.000 A 
ATOM     10  N   UNL     1       2.410   4.473  19.393  0.00  0.00    +0.000 N 
ATOM     11  C   UNL     1       1.497   4.117  20.472  0.00  0.00    +0.000 C 
ATOM     12  C   UNL     1       2.269   3.409  21.597  0.00  0.00    +0.000 C 
ATOM     13  O   UNL     1       3.045   2.302  21.104  0.00  0.00    +0.000 OA
ATOM     14  C   UNL     1       3.996   2.762  20.126  0.00  0.00    +0.000 C 
ATOM     15  C   UNL     1       3.293   3.409  18.922  0.00  0.00    +0.000 C 
ATOM     16  N   UNL     1       1.910   6.760  19.593  0.00  0.00    +0.000 NA
ATOM     17  C   UNL     1       1.320  10.427  19.416  0.00  0.00    +0.000 C 
ENDROOT
BRANCH   1  18
ATOM     18  O   UNL     1       0.505  12.176  20.928  0.00  0.00    +0.000 OA
BRANCH  18  22
ATOM     19  C   UNL     1       2.519  15.373  19.070  0.00  0.00    +0.000 A 
ATOM     20  C   UNL     1       3.122  14.559  20.041  0.00  0.00    +0.000 A 
ATOM     21  C   UNL     1       2.418  13.496  20.630  0.00  0.00    +0.000 A 
ATOM     22  C   UNL     1       1.098  13.224  20.268  0.00  0.00    +0.000 A 
ATOM     23  C   UNL     1       0.505  14.006  19.277  0.00  0.00    +0.000 A 
ATOM     24  C   UNL     1       1.210  15.062  18.682  0.00  0.00    +0.000 A 
BRANCH  19  26
ATOM     25  C   UNL     1       2.755  16.951  17.065  0.00  0.00    +0.000 C 
ATOM     26  C   UNL     1       3.309  16.510  18.429  0.00  0.00    +0.000 C 
BRANCH  26  27
ATOM     27  N   UNL     1       4.705  16.118  18.302  0.00  0.00    +0.000 N 
ATOM     28  C   UNL     1       5.712  16.848  18.877  0.00  0.00    +0.000 C 
ATOM     29  O   UNL     1       5.473  17.868  19.514  0.00  0.00    +0.000 OA
ATOM     30  N   UNL     1       6.999  16.376  18.675  0.00  0.00    +0.000 N 
ATOM     31  C   UNL     1       7.400  15.235  17.862  0.00  0.00    +0.000 C 
ATOM     32  C   UNL     1       8.102  17.121  19.263  0.00  0.00    +0.000 C 
ATOM     33  H   UNL     1       4.878  15.167  18.035  0.00  0.00    +0.000 HD
ENDBRANCH  26  27
ENDBRANCH  19  26
ENDBRANCH  18  22
ENDBRANCH   1  18
TORSDOF 4
ENDMDL
MODEL 7
REMARK VINA RESULT:      -7.7      2.823      3.947
REMARK  Name = 
REMARK  7 active torsions:
REMARK  status: ('A' for Active; 'I' for Inactive)
REMARK    1  A    between atoms: C_1  and  C_2
REMARK    2  A    between atoms: C_2  and  N_3
REMARK    3  A    between atoms: C_2  and  C_9
REMARK    4  A    between atoms: N_6  and  C_7
REMARK    5  A    between atoms: N_6  and  C_8
REMARK    6  A    between atoms: C_12  and  O_13
REMARK    7  A    between atoms: O_13  and  C_14
REMARK                            x       y       z     vdW  Elec       q    Type
REMARK                         _______ _______ _______ _____ _____    ______ ____
ROOT
ATOM      1  C   UNL     1      -0.682  10.589  20.133  0.00  0.00    +0.000 C 
ATOM      2  C   UNL     1      -1.654  10.541  18.948  0.00  0.00    +0.000 C 
ATOM      3  C   UNL     1      -2.425  11.859  18.961  0.00  0.00    +0.000 C 
ATOM      4  N   UNL     1      -2.310  12.318  20.329  0.00  0.00    +0.000 N 
ATOM      5  C   UNL     1      -3.186  13.224  20.878  0.00  0.00    +0.000 A 
ATOM      6  C   UNL     1      -2.983  13.742  22.138  0.00  0.00    +0.000 A 
ATOM      7  C   UNL     1      -3.942  14.592  22.628  0.00  0.00    +0.000 A 
ATOM      8  N   UNL     1      -5.034  14.940  21.940  0.00  0.00    +0.000 NA
ATOM      9  C   UNL     1      -5.186  14.413  20.718  0.00  0.00    +0.000 A 
ATOM     10  N   UNL     1      -6.315  14.742  20.014  0.00  0.00    +0.000 N 
ATOM     11  C   UNL     1      -6.627  14.142  18.723  0.00  0.00    +0.000 C 
ATOM     12  C   UNL     1      -6.785  15.241  17.660  0.00  0.00    +0.000 C 
ATOM     13  O   UNL     1      -7.718  16.257  18.070  0.00  0.00    +0.000 OA
ATOM     14  C   UNL     1      -7.273  16.873  19.292  0.00  0.00    +0.000 C 
ATOM     15  C   UNL     1      -7.173  15.848  20.432  0.00  0.00    +0.000 C 
ATOM     16  N   UNL     1      -4.285  13.570  20.176  0.00  0.00    +0.000 NA
ATOM     17  C   UNL     1      -1.096  11.823  20.958  0.00  0.00    +0.000 C 
ENDROOT
BRANCH   1  18
ATOM     18  O   UNL     1       0.677  10.701  19.691  0.00  0.00    +0.000 OA
BRANCH  18  22
ATOM     19  C   UNL     1       2.648   7.088  18.799  0.00  0.00    +0.000 A 
ATOM     20  C   UNL     1       2.087   7.355  20.057  0.00  0.00    +0.000 A 
ATOM     21  C   UNL     1       1.428   8.570  20.311  0.00  0.00    +0.000 A 
ATOM     22  C   UNL     1       1.320   9.546  19.319  0.00  0.00    +0.000 A 
ATOM     23  C   UNL     1       1.843   9.272  18.056  0.00  0.00    +0.000 A 
ATOM     24  C   UNL     1       2.492   8.056  17.799  0.00  0.00    +0.000 A 
BRANCH  19  26
ATOM     25  C   UNL     1       3.470   4.875  19.792  0.00  0.00    +0.000 C 
ATOM     26  C   UNL     1       3.341   5.755  18.539  0.00  0.00    +0.000 C 
BRANCH  26  27
ATOM     27  N   UNL     1       4.654   5.997  17.958  0.00  0.00    +0.000 N 
ATOM     28  C   UNL     1       5.156   5.202  16.961  0.00  0.00    +0.000 C 
ATOM     29  O   UNL     1       4.520   4.248  16.527  0.00  0.00    +0.000 OA
ATOM     30  N   UNL     1       6.421   5.530  16.499  0.00  0.00    +0.000 N 
ATOM     31  C   UNL     1       7.298   6.578  17.006  0.00  0.00    +0.000 C 
ATOM     32  C   UNL     1       6.999   4.711  15.444  0.00  0.00    +0.000 C 
ATOM     33  H   UNL     1       5.044   6.909  18.104  0.00  0.00    +0.000 HD
ENDBRANCH  26  27
ENDBRANCH  19  26
ENDBRANCH  18  22
ENDBRANCH   1  18
TORSDOF 4
ENDMDL
MODEL 8
REMARK VINA RESULT:      -7.7      1.658      2.241
REMARK  Name = 
REMARK  7 active torsions:
REMARK  status: ('A' for Active; 'I' for Inactive)
REMARK    1  A    between atoms: C_1  and  C_2
REMARK    2  A    between atoms: C_2  and  N_3
REMARK    3  A    between atoms: C_2  and  C_9
REMARK    4  A    between atoms: N_6  and  C_7
REMARK    5  A    between atoms: N_6  and  C_8
REMARK    6  A    between atoms: C_12  and  O_13
REMARK    7  A    between atoms: O_13  and  C_14
REMARK                            x       y       z     vdW  Elec       q    Type
REMARK                         _______ _______ _______ _____ _____    ______ ____
ROOT
ATOM      1  C   UNL     1       1.834   8.533  20.088  0.00  0.00    +0.000 C 
ATOM      2  C   UNL     1       1.171   8.409  21.465  0.00  0.00    +0.000 C 
ATOM      3  C   UNL     1      -0.088   9.271  21.423  0.00  0.00    +0.000 C 
ATOM      4  N   UNL     1       0.171  10.217  20.359  0.00  0.00    +0.000 N 
ATOM      5  C   UNL     1      -0.495  11.415  20.260  0.00  0.00    +0.000 A 
ATOM      6  C   UNL     1      -0.325  12.242  19.171  0.00  0.00    +0.000 A 
ATOM      7  C   UNL     1      -0.982  13.445  19.189  0.00  0.00    +0.000 A 
ATOM      8  N   UNL     1      -1.776  13.833  20.192  0.00  0.00    +0.000 NA
ATOM      9  C   UNL     1      -1.914  12.995  21.228  0.00  0.00    +0.000 A 
ATOM     10  N   UNL     1      -2.703  13.393  22.274  0.00  0.00    +0.000 N 
ATOM     11  C   UNL     1      -2.834  12.604  23.493  0.00  0.00    +0.000 C 
ATOM     12  C   UNL     1      -4.313  12.261  23.737  0.00  0.00    +0.000 C 
ATOM     13  O   UNL     1      -5.148  13.432  23.710  0.00  0.00    +0.000 OA
ATOM     14  C   UNL     1      -5.043  14.086  22.432  0.00  0.00    +0.000 C 
ATOM     15  C   UNL     1      -3.602  14.538  22.152  0.00  0.00    +0.000 C 
ATOM     16  N   UNL     1      -1.295  11.798  21.277  0.00  0.00    +0.000 NA
ATOM     17  C   UNL     1       1.083   9.670  19.368  0.00  0.00    +0.000 C 
ENDROOT
BRANCH   1  18
ATOM     18  O   UNL     1       1.739   7.308  19.349  0.00  0.00    +0.000 OA
BRANCH  18  22
ATOM     19  C   UNL     1       5.328   5.470  18.134  0.00  0.00    +0.000 A 
ATOM     20  C   UNL     1       4.569   5.008  19.221  0.00  0.00    +0.000 A 
ATOM     21  C   UNL     1       3.371   5.643  19.587  0.00  0.00    +0.000 A 
ATOM     22  C   UNL     1       2.907   6.756  18.883  0.00  0.00    +0.000 A 
ATOM     23  C   UNL     1       3.637   7.197  17.780  0.00  0.00    +0.000 A 
ATOM     24  C   UNL     1       4.828   6.558  17.408  0.00  0.00    +0.000 A 
BRANCH  19  26
ATOM     25  C   UNL     1       7.835   5.177  18.575  0.00  0.00    +0.000 C 
ATOM     26  C   UNL     1       6.615   4.752  17.742  0.00  0.00    +0.000 C 
BRANCH  26  27
ATOM     27  N   UNL     1       6.875   4.965  16.325  0.00  0.00    +0.000 N 
ATOM     28  C   UNL     1       6.322   4.160  15.364  0.00  0.00    +0.000 C 
ATOM     29  O   UNL     1       5.593   3.221  15.664  0.00  0.00    +0.000 OA
ATOM     30  N   UNL     1       6.654   4.460  14.053  0.00  0.00    +0.000 N 
ATOM     31  C   UNL     1       7.579   5.487  13.593  0.00  0.00    +0.000 C 
ATOM     32  C   UNL     1       6.094   3.629  12.997  0.00  0.00    +0.000 C 
ATOM     33  H   UNL     1       7.226   5.868  16.067  0.00  0.00    +0.000 HD
ENDBRANCH  26  27
ENDBRANCH  19  26
ENDBRANCH  18  22
ENDBRANCH   1  18
TORSDOF 4
ENDMDL
MODEL 9
REMARK VINA RESULT:      -7.7      1.833      2.713
REMARK  Name = 
REMARK  7 active torsions:
REMARK  status: ('A' for Active; 'I' for Inactive)
REMARK    1  A    between atoms: C_1  and  C_2
REMARK    2  A    between atoms: C_2  and  N_3
REMARK    3  A    between atoms: C_2  and  C_9
REMARK    4  A    between atoms: N_6  and  C_7
REMARK    5  A    between atoms: N_6  and  C_8
REMARK    6  A    between atoms: C_12  and  O_13
REMARK    7  A    between atoms: O_13  and  C_14
REMARK                            x       y       z     vdW  Elec       q    Type
REMARK                         _______ _______ _______ _____ _____    ______ ____
ROOT
ATOM      1  C   UNL     1       2.007   8.674  19.313  0.00  0.00    +0.000 C 
ATOM      2  C   UNL     1       1.234   8.487  20.624  0.00  0.00    +0.000 C 
ATOM      3  C   UNL     1       0.064   9.468  20.584  0.00  0.00    +0.000 C 
ATOM      4  N   UNL     1       0.487  10.479  19.639  0.00  0.00    +0.000 N 
ATOM      5  C   UNL     1      -0.060  11.740  19.615  0.00  0.00    +0.000 A 
ATOM      6  C   UNL     1       0.266  12.644  18.628  0.00  0.00    +0.000 A 
ATOM      7  C   UNL     1      -0.280  13.898  18.722  0.00  0.00    +0.000 A 
ATOM      8  N   UNL     1      -1.110  14.266  19.704  0.00  0.00    +0.000 NA
ATOM      9  C   UNL     1      -1.400  13.352  20.639  0.00  0.00    +0.000 A 
ATOM     10  N   UNL     1      -2.227  13.726  21.665  0.00  0.00    +0.000 N 
ATOM     11  C   UNL     1      -2.520  12.843  22.788  0.00  0.00    +0.000 C 
ATOM     12  C   UNL     1      -4.037  12.624  22.898  0.00  0.00    +0.000 C 
ATOM     13  O   UNL     1      -4.760  13.868  22.933  0.00  0.00    +0.000 OA
ATOM     14  C   UNL     1      -4.500  14.625  21.736  0.00  0.00    +0.000 C 
ATOM     15  C   UNL     1      -3.007  14.959  21.598  0.00  0.00    +0.000 C 
ATOM     16  N   UNL     1      -0.896  12.102  20.611  0.00  0.00    +0.000 NA
ATOM     17  C   UNL     1       1.418   9.940  18.662  0.00  0.00    +0.000 C 
ENDROOT
BRANCH   1  18
ATOM     18  O   UNL     1       1.859   7.538  18.451  0.00  0.00    +0.000 OA
BRANCH  18  22
ATOM     19  C   UNL     1       5.350   5.340  17.604  0.00  0.00    +0.000 A 
ATOM     20  C   UNL     1       5.171   6.669  17.189  0.00  0.00    +0.000 A 
ATOM     21  C   UNL     1       3.994   7.371  17.501  0.00  0.00    +0.000 A 
ATOM     22  C   UNL     1       2.970   6.762  18.228  0.00  0.00    +0.000 A 
ATOM     23  C   UNL     1       3.157   5.455  18.675  0.00  0.00    +0.000 A 
ATOM     24  C   UNL     1       4.334   4.756  18.372  0.00  0.00    +0.000 A 
BRANCH  19  26
ATOM     25  C   UNL     1       7.826   5.003  18.167  0.00  0.00    +0.000 C 
ATOM     26  C   UNL     1       6.643   4.604  17.271  0.00  0.00    +0.000 C 
BRANCH  26  27
ATOM     27  N   UNL     1       6.977   4.823  15.871  0.00  0.00    +0.000 N 
ATOM     28  C   UNL     1       6.442   4.048  14.876  0.00  0.00    +0.000 C 
ATOM     29  O   UNL     1       5.667   3.132  15.129  0.00  0.00    +0.000 OA
ATOM     30  N   UNL     1       6.846   4.349  13.585  0.00  0.00    +0.000 N 
ATOM     31  C   UNL     1       7.828   5.348  13.181  0.00  0.00    +0.000 C 
ATOM     32  C   UNL     1       6.308   3.550  12.494  0.00  0.00    +0.000 C 
ATOM     33  H   UNL     1       7.372   5.715  15.641  0.00  0.00    +0.000 HD
ENDBRANCH  26  27
ENDBRANCH  19  26
ENDBRANCH  18  22
ENDBRANCH   1  18
TORSDOF 4
ENDMDL
