MODEL 1
REMARK VINA RESULT:      -7.9      0.000      0.000
REMARK  Name = 
REMARK  14 active torsions:
REMARK  status: ('A' for Active; 'I' for Inactive)
REMARK    1  A    between atoms: C_1  and  O_2
REMARK    2  A    between atoms: O_2  and  C_3
REMARK    3  A    between atoms: C_3  and  C_5
REMARK    4  A    between atoms: C_5  and  N_6
REMARK    5  A    between atoms: N_6  and  C_7
REMARK    6  A    between atoms: C_7  and  C_8
REMARK    7  A    between atoms: C_7  and  C_14
REMARK    8  A    between atoms: C_16  and  C_17
REMARK    9  A    between atoms: C_20  and  N_21
REMARK   10  A    between atoms: C_22  and  C_24
REMARK   11  A    between atoms: C_24  and  N_25
REMARK   12  A    between atoms: C_26  and  O_28
REMARK   13  A    between atoms: O_28  and  C_29
REMARK   14  A    between atoms: C_29  and  C_30
REMARK                            x       y       z     vdW  Elec       q    Type
REMARK                         _______ _______ _______ _____ _____    ______ ____
ROOT
ATOM      1  C   UNL     1       0.414  10.373  19.857  0.00  0.00    +0.000 A 
ATOM      2  C   UNL     1      -0.466  10.901  20.839  0.00  0.00    +0.000 A 
ATOM      3  C   UNL     1      -0.541  10.396  22.138  0.00  0.00    +0.000 A 
ATOM      4  C   UNL     1      -1.400  11.058  23.172  0.00  0.00    +0.000 C 
ATOM      5  C   UNL     1       0.231   9.291  22.459  0.00  0.00    +0.000 A 
ATOM      6  C   UNL     1       1.084   8.728  21.505  0.00  0.00    +0.000 A 
ATOM      7  C   UNL     1       1.219   9.255  20.207  0.00  0.00    +0.000 A 
ENDROOT
BRANCH   7   8
ATOM      8  N   UNL     1       2.125   8.641  19.286  0.00  0.00    +0.000 N 
ATOM      9  C   UNL     1       2.413   7.276  19.202  0.00  0.00    +0.000 C 
ATOM     10  O   UNL     1       1.952   6.386  19.914  0.00  0.00    +0.000 OA
ATOM     11  H   UNL     1       2.615   9.245  18.638  0.00  0.00    +0.000 HD
BRANCH   9  12
ATOM     12  C   UNL     1       3.354   6.882  18.054  0.00  0.00    +0.000 C 
BRANCH  12  13
ATOM     13  N   UNL     1       4.144   5.726  18.410  0.00  0.00    +0.000 N 
ATOM     14  C   UNL     1       4.482   4.794  17.471  0.00  0.00    +0.000 C 
ATOM     15  O   UNL     1       4.239   4.921  16.276  0.00  0.00    +0.000 OA
ATOM     16  H   UNL     1       4.160   5.407  19.372  0.00  0.00    +0.000 HD
BRANCH  14  17
ATOM     17  O   UNL     1       5.018   3.705  18.067  0.00  0.00    +0.000 OA
BRANCH  17  18
ATOM     18  C   UNL     1       4.166   2.554  18.119  0.00  0.00    +0.000 C 
BRANCH  18  19
ATOM     19  C   UNL     1       3.074   2.649  19.160  0.00  0.00    +0.000 A 
ATOM     20  C   UNL     1       3.374   2.654  20.529  0.00  0.00    +0.000 A 
ATOM     21  C   UNL     1       2.362   2.820  21.479  0.00  0.00    +0.000 A 
ATOM     22  C   UNL     1       1.038   2.982  21.072  0.00  0.00    +0.000 A 
ATOM     23  C   UNL     1       0.727   2.979  19.713  0.00  0.00    +0.000 A 
ATOM     24  C   UNL     1       1.739   2.813  18.764  0.00  0.00    +0.000 A 
ENDBRANCH  18  19
ENDBRANCH  17  18
ENDBRANCH  14  17
ENDBRANCH  12  13
ENDBRANCH   9  12
ENDBRANCH   7   8
BRANCH   1  25
ATOM     25  C   UNL     1       0.508  11.139  18.527  0.00  0.00    +0.000 C 
BRANCH  25  26
ATOM     26  C   UNL     1       1.183  12.510  18.680  0.00  0.00    +0.000 A 
ATOM     27  C   UNL     1       0.444  13.671  18.979  0.00  0.00    +0.000 A 
ATOM     28  C   UNL     1       1.035  14.935  18.910  0.00  0.00    +0.000 A 
ATOM     29  C   UNL     1       2.370  15.059  18.539  0.00  0.00    +0.000 A 
ATOM     30  C   UNL     1       3.123  13.920  18.265  0.00  0.00    +0.000 A 
ATOM     31  C   UNL     1       2.537  12.654  18.340  0.00  0.00    +0.000 A 
ENDBRANCH  25  26
BRANCH  25  32
ATOM     32  N   UNL     1      -0.822  11.304  17.882  0.00  0.00    +0.000 NA
ATOM     33  H   UNL     1      -1.462  11.770  18.525  0.00  0.00    +0.000 HD
BRANCH  32  34
ATOM     34  C   UNL     1      -1.412  10.021  17.459  0.00  0.00    +0.000 C 
BRANCH  34  35
ATOM     35  C   UNL     1      -2.812  10.213  16.890  0.00  0.00    +0.000 C 
ATOM     36  O   UNL     1      -3.846   9.780  17.384  0.00  0.00    +0.000 OA
BRANCH  35  38
ATOM     37  C   UNL     1      -3.240  10.179  14.578  0.00  0.00    +0.000 C 
ATOM     38  O   UNL     1      -2.726  10.888  15.705  0.00  0.00    +0.000 OA
ENDBRANCH  35  38
ENDBRANCH  34  35
ENDBRANCH  32  34
ENDBRANCH  25  32
ENDBRANCH   1  25
TORSDOF 12
ENDMDL
MODEL 2
REMARK VINA RESULT:      -7.9      0.777      1.536
REMARK  Name = 
REMARK  14 active torsions:
REMARK  status: ('A' for Active; 'I' for Inactive)
REMARK    1  A    between atoms: C_1  and  O_2
REMARK    2  A    between atoms: O_2  and  C_3
REMARK    3  A    between atoms: C_3  and  C_5
REMARK    4  A    between atoms: C_5  and  N_6
REMARK    5  A    between atoms: N_6  and  C_7
REMARK    6  A    between atoms: C_7  and  C_8
REMARK    7  A    between atoms: C_7  and  C_14
REMARK    8  A    between atoms: C_16  and  C_17
REMARK    9  A    between atoms: C_20  and  N_21
REMARK   10  A    between atoms: C_22  and  C_24
REMARK   11  A    between atoms: C_24  and  N_25
REMARK   12  A    between atoms: C_26  and  O_28
REMARK   13  A    between atoms: O_28  and  C_29
REMARK   14  A    between atoms: C_29  and  C_30
REMARK                            x       y       z     vdW  Elec       q    Type
REMARK                         _______ _______ _______ _____ _____    ______ ____
ROOT
ATOM      1  C   UNL     1       0.197  10.358  19.738  0.00  0.00    +0.000 A 
ATOM      2  C   UNL     1      -0.631  10.824  20.794  0.00  0.00    +0.000 A 
ATOM      3  C   UNL     1      -0.548  10.328  22.096  0.00  0.00    +0.000 A 
ATOM      4  C   UNL     1      -1.361  10.928  23.201  0.00  0.00    +0.000 C 
ATOM      5  C   UNL     1       0.337   9.292  22.348  0.00  0.00    +0.000 A 
ATOM      6  C   UNL     1       1.144   8.790  21.324  0.00  0.00    +0.000 A 
ATOM      7  C   UNL     1       1.118   9.313  20.017  0.00  0.00    +0.000 A 
ENDROOT
BRANCH   7   8
ATOM      8  N   UNL     1       1.985   8.766  19.020  0.00  0.00    +0.000 N 
ATOM      9  C   UNL     1       2.456   7.450  18.971  0.00  0.00    +0.000 C 
ATOM     10  O   UNL     1       2.219   6.558  19.785  0.00  0.00    +0.000 OA
ATOM     11  H   UNL     1       2.300   9.383  18.282  0.00  0.00    +0.000 HD
BRANCH   9  12
ATOM     12  C   UNL     1       3.297   7.108  17.733  0.00  0.00    +0.000 C 
BRANCH  12  13
ATOM     13  N   UNL     1       3.440   5.677  17.588  0.00  0.00    +0.000 N 
ATOM     14  C   UNL     1       4.536   5.031  18.084  0.00  0.00    +0.000 C 
ATOM     15  O   UNL     1       5.398   5.583  18.760  0.00  0.00    +0.000 OA
ATOM     16  H   UNL     1       2.944   5.197  16.846  0.00  0.00    +0.000 HD
BRANCH  14  17
ATOM     17  O   UNL     1       4.564   3.754  17.640  0.00  0.00    +0.000 OA
BRANCH  17  18
ATOM     18  C   UNL     1       3.307   3.066  17.675  0.00  0.00    +0.000 C 
BRANCH  18  19
ATOM     19  C   UNL     1       2.672   3.027  19.046  0.00  0.00    +0.000 A 
ATOM     20  C   UNL     1       1.314   3.327  19.227  0.00  0.00    +0.000 A 
ATOM     21  C   UNL     1       0.721   3.212  20.487  0.00  0.00    +0.000 A 
ATOM     22  C   UNL     1       1.478   2.796  21.583  0.00  0.00    +0.000 A 
ATOM     23  C   UNL     1       2.829   2.494  21.416  0.00  0.00    +0.000 A 
ATOM     24  C   UNL     1       3.420   2.609  20.156  0.00  0.00    +0.000 A 
ENDBRANCH  18  19
ENDBRANCH  17  18
ENDBRANCH  14  17
ENDBRANCH  12  13
ENDBRANCH   9  12
ENDBRANCH   7   8
BRANCH   1  25
ATOM     25  C   UNL     1       0.108  11.116  18.403  0.00  0.00    +0.000 C 
BRANCH  25  26
ATOM     26  C   UNL     1       0.817  12.479  18.447  0.00  0.00    +0.000 A 
ATOM     27  C   UNL     1       2.221  12.584  18.435  0.00  0.00    +0.000 A 
ATOM     28  C   UNL     1       2.850  13.807  18.684  0.00  0.00    +0.000 A 
ATOM     29  C   UNL     1       2.087  14.940  18.950  0.00  0.00    +0.000 A 
ATOM     30  C   UNL     1       0.697  14.859  18.940  0.00  0.00    +0.000 A 
ATOM     31  C   UNL     1       0.065  13.640  18.684  0.00  0.00    +0.000 A 
ENDBRANCH  25  26
BRANCH  25  32
ATOM     32  N   UNL     1      -1.298  11.296  17.954  0.00  0.00    +0.000 NA
ATOM     33  H   UNL     1      -1.912  11.367  18.766  0.00  0.00    +0.000 HD
BRANCH  32  34
ATOM     34  C   UNL     1      -1.765  10.197  17.090  0.00  0.00    +0.000 C 
BRANCH  34  35
ATOM     35  C   UNL     1      -3.020  10.588  16.321  0.00  0.00    +0.000 C 
ATOM     36  O   UNL     1      -3.066  10.872  15.131  0.00  0.00    +0.000 OA
BRANCH  35  38
ATOM     37  C   UNL     1      -4.987  11.712  16.952  0.00  0.00    +0.000 C 
ATOM     38  O   UNL     1      -4.078  10.637  17.185  0.00  0.00    +0.000 OA
ENDBRANCH  35  38
ENDBRANCH  34  35
ENDBRANCH  32  34
ENDBRANCH  25  32
ENDBRANCH   1  25
TORSDOF 12
ENDMDL
MODEL 3
REMARK VINA RESULT:      -7.9      3.042      8.253
REMARK  Name = 
REMARK  14 active torsions:
REMARK  status: ('A' for Active; 'I' for Inactive)
REMARK    1  A    between atoms: C_1  and  O_2
REMARK    2  A    between atoms: O_2  and  C_3
REMARK    3  A    between atoms: C_3  and  C_5
REMARK    4  A    between atoms: C_5  and  N_6
REMARK    5  A    between atoms: N_6  and  C_7
REMARK    6  A    between atoms: C_7  and  C_8
REMARK    7  A    between atoms: C_7  and  C_14
REMARK    8  A    between atoms: C_16  and  C_17
REMARK    9  A    between atoms: C_20  and  N_21
REMARK   10  A    between atoms: C_22  and  C_24
REMARK   11  A    between atoms: C_24  and  N_25
REMARK   12  A    between atoms: C_26  and  O_28
REMARK   13  A    between atoms: O_28  and  C_29
REMARK   14  A    between atoms: C_29  and  C_30
REMARK                            x       y       z     vdW  Elec       q    Type
REMARK                         _______ _______ _______ _____ _____    ______ ____
ROOT
ATOM      1  C   UNL     1       2.419   5.565  18.970  0.00  0.00    +0.000 A 
ATOM      2  C   UNL     1       2.298   4.222  18.521  0.00  0.00    +0.000 A 
ATOM      3  C   UNL     1       1.659   3.229  19.266  0.00  0.00    +0.000 A 
ATOM      4  C   UNL     1       1.455   1.857  18.704  0.00  0.00    +0.000 C 
ATOM      5  C   UNL     1       1.183   3.559  20.526  0.00  0.00    +0.000 A 
ATOM      6  C   UNL     1       1.315   4.863  21.009  0.00  0.00    +0.000 A 
ATOM      7  C   UNL     1       1.904   5.894  20.253  0.00  0.00    +0.000 A 
ENDROOT
BRANCH   7   8
ATOM      8  N   UNL     1       1.989   7.212  20.800  0.00  0.00    +0.000 N 
ATOM      9  C   UNL     1       0.917   7.988  21.248  0.00  0.00    +0.000 C 
ATOM     10  O   UNL     1      -0.273   7.674  21.226  0.00  0.00    +0.000 OA
ATOM     11  H   UNL     1       2.907   7.634  20.865  0.00  0.00    +0.000 HD
BRANCH   9  12
ATOM     12  C   UNL     1       1.307   9.332  21.880  0.00  0.00    +0.000 C 
BRANCH  12  13
ATOM     13  N   UNL     1       0.203  10.262  21.835  0.00  0.00    +0.000 N 
ATOM     14  C   UNL     1       0.417  11.591  21.608  0.00  0.00    +0.000 C 
ATOM     15  O   UNL     1       1.515  12.060  21.328  0.00  0.00    +0.000 OA
ATOM     16  H   UNL     1      -0.667  10.030  22.301  0.00  0.00    +0.000 HD
BRANCH  14  17
ATOM     17  O   UNL     1      -0.718  12.291  21.832  0.00  0.00    +0.000 OA
BRANCH  17  18
ATOM     18  C   UNL     1      -1.437  11.928  23.019  0.00  0.00    +0.000 C 
BRANCH  18  19
ATOM     19  C   UNL     1      -2.897  12.314  22.991  0.00  0.00    +0.000 A 
ATOM     20  C   UNL     1      -3.654  12.383  24.169  0.00  0.00    +0.000 A 
ATOM     21  C   UNL     1      -4.982  12.817  24.138  0.00  0.00    +0.000 A 
ATOM     22  C   UNL     1      -5.571  13.186  22.928  0.00  0.00    +0.000 A 
ATOM     23  C   UNL     1      -4.829  13.123  21.750  0.00  0.00    +0.000 A 
ATOM     24  C   UNL     1      -3.501  12.690  21.782  0.00  0.00    +0.000 A 
ENDBRANCH  18  19
ENDBRANCH  17  18
ENDBRANCH  14  17
ENDBRANCH  12  13
ENDBRANCH   9  12
ENDBRANCH   7   8
BRANCH   1  25
ATOM     25  C   UNL     1       2.996   6.580  17.969  0.00  0.00    +0.000 C 
BRANCH  25  26
ATOM     26  C   UNL     1       4.496   6.373  17.713  0.00  0.00    +0.000 A 
ATOM     27  C   UNL     1       5.039   6.414  16.414  0.00  0.00    +0.000 A 
ATOM     28  C   UNL     1       6.359   6.021  16.175  0.00  0.00    +0.000 A 
ATOM     29  C   UNL     1       7.154   5.580  17.229  0.00  0.00    +0.000 A 
ATOM     30  C   UNL     1       6.641   5.557  18.524  0.00  0.00    +0.000 A 
ATOM     31  C   UNL     1       5.325   5.957  18.767  0.00  0.00    +0.000 A 
ENDBRANCH  25  26
BRANCH  25  32
ATOM     32  N   UNL     1       2.748   7.984  18.391  0.00  0.00    +0.000 NA
ATOM     33  H   UNL     1       2.437   8.002  19.363  0.00  0.00    +0.000 HD
BRANCH  32  34
ATOM     34  C   UNL     1       1.744   8.662  17.551  0.00  0.00    +0.000 C 
BRANCH  34  35
ATOM     35  C   UNL     1       1.307   9.986  18.164  0.00  0.00    +0.000 C 
ATOM     36  O   UNL     1       2.013  10.979  18.292  0.00  0.00    +0.000 OA
BRANCH  35  38
ATOM     37  C   UNL     1      -0.801  11.010  18.360  0.00  0.00    +0.000 C 
ATOM     38  O   UNL     1       0.020   9.870  18.611  0.00  0.00    +0.000 OA
ENDBRANCH  35  38
ENDBRANCH  34  35
ENDBRANCH  32  34
ENDBRANCH  25  32
ENDBRANCH   1  25
TORSDOF 12
ENDMDL
MODEL 4
REMARK VINA RESULT:      -7.8      2.587      8.944
REMARK  Name = 
REMARK  14 active torsions:
REMARK  status: ('A' for Active; 'I' for Inactive)
REMARK    1  A    between atoms: C_1  and  O_2
REMARK    2  A    between atoms: O_2  and  C_3
REMARK    3  A    between atoms: C_3  and  C_5
REMARK    4  A    between atoms: C_5  and  N_6
REMARK    5  A    between atoms: N_6  and  C_7
REMARK    6  A    between atoms: C_7  and  C_8
REMARK    7  A    between atoms: C_7  and  C_14
REMARK    8  A    between atoms: C_16  and  C_17
REMARK    9  A    between atoms: C_20  and  N_21
REMARK   10  A    between atoms: C_22  and  C_24
REMARK   11  A    between atoms: C_24  and  N_25
REMARK   12  A    between atoms: C_26  and  O_28
REMARK   13  A    between atoms: O_28  and  C_29
REMARK   14  A    between atoms: C_29  and  C_30
REMARK                            x       y       z     vdW  Elec       q    Type
REMARK                         _______ _______ _______ _____ _____    ______ ____
ROOT
ATOM      1  C   UNL     1       3.547   5.102  19.531  0.00  0.00    +0.000 A 
ATOM      2  C   UNL     1       3.500   3.928  20.331  0.00  0.00    +0.000 A 
ATOM      3  C   UNL     1       2.311   3.408  20.843  0.00  0.00    +0.000 A 
ATOM      4  C   UNL     1       2.296   2.107  21.584  0.00  0.00    +0.000 C 
ATOM      5  C   UNL     1       1.136   4.108  20.613  0.00  0.00    +0.000 A 
ATOM      6  C   UNL     1       1.153   5.283  19.857  0.00  0.00    +0.000 A 
ATOM      7  C   UNL     1       2.332   5.795  19.282  0.00  0.00    +0.000 A 
ENDROOT
BRANCH   7   8
ATOM      8  N   UNL     1       2.275   6.993  18.503  0.00  0.00    +0.000 N 
ATOM      9  C   UNL     1       1.982   8.273  18.982  0.00  0.00    +0.000 C 
ATOM     10  O   UNL     1       1.706   8.574  20.142  0.00  0.00    +0.000 OA
ATOM     11  H   UNL     1       2.454   6.914  17.510  0.00  0.00    +0.000 HD
BRANCH   9  12
ATOM     12  C   UNL     1       2.085   9.395  17.939  0.00  0.00    +0.000 C 
BRANCH  12  13
ATOM     13  N   UNL     1       0.922  10.250  17.986  0.00  0.00    +0.000 N 
ATOM     14  C   UNL     1       0.958  11.444  18.648  0.00  0.00    +0.000 C 
ATOM     15  O   UNL     1       1.979  11.911  19.143  0.00  0.00    +0.000 OA
ATOM     16  H   UNL     1       0.000   9.851  17.850  0.00  0.00    +0.000 HD
BRANCH  14  17
ATOM     17  O   UNL     1      -0.288  11.958  18.751  0.00  0.00    +0.000 OA
BRANCH  17  18
ATOM     18  C   UNL     1      -1.307  11.021  19.123  0.00  0.00    +0.000 C 
BRANCH  18  19
ATOM     19  C   UNL     1      -2.546  11.092  18.261  0.00  0.00    +0.000 A 
ATOM     20  C   UNL     1      -3.704  11.745  18.704  0.00  0.00    +0.000 A 
ATOM     21  C   UNL     1      -4.816  11.871  17.867  0.00  0.00    +0.000 A 
ATOM     22  C   UNL     1      -4.784  11.344  16.575  0.00  0.00    +0.000 A 
ATOM     23  C   UNL     1      -3.638  10.693  16.122  0.00  0.00    +0.000 A 
ATOM     24  C   UNL     1      -2.527  10.568  16.960  0.00  0.00    +0.000 A 
ENDBRANCH  18  19
ENDBRANCH  17  18
ENDBRANCH  14  17
ENDBRANCH  12  13
ENDBRANCH   9  12
ENDBRANCH   7   8
BRANCH   1  25
ATOM     25  C   UNL     1       4.904   5.456  18.899  0.00  0.00    +0.000 C 
BRANCH  25  26
ATOM     26  C   UNL     1       4.952   5.156  17.394  0.00  0.00    +0.000 A 
ATOM     27  C   UNL     1       5.128   3.846  16.905  0.00  0.00    +0.000 A 
ATOM     28  C   UNL     1       5.377   3.615  15.549  0.00  0.00    +0.000 A 
ATOM     29  C   UNL     1       5.457   4.686  14.664  0.00  0.00    +0.000 A 
ATOM     30  C   UNL     1       5.260   5.985  15.126  0.00  0.00    +0.000 A 
ATOM     31  C   UNL     1       5.004   6.219  16.479  0.00  0.00    +0.000 A 
ENDBRANCH  25  26
BRANCH  25  32
ATOM     32  N   UNL     1       6.035   4.773  19.583  0.00  0.00    +0.000 NA
ATOM     33  H   UNL     1       5.716   4.385  20.472  0.00  0.00    +0.000 HD
BRANCH  32  34
ATOM     34  C   UNL     1       7.176   5.673  19.832  0.00  0.00    +0.000 C 
BRANCH  34  35
ATOM     35  C   UNL     1       7.902   6.021  18.539  0.00  0.00    +0.000 C 
ATOM     36  O   UNL     1       8.116   5.249  17.613  0.00  0.00    +0.000 OA
BRANCH  35  38
ATOM     37  C   UNL     1       7.783   8.179  17.612  0.00  0.00    +0.000 C 
ATOM     38  O   UNL     1       8.337   7.315  18.604  0.00  0.00    +0.000 OA
ENDBRANCH  35  38
ENDBRANCH  34  35
ENDBRANCH  32  34
ENDBRANCH  25  32
ENDBRANCH   1  25
TORSDOF 12
ENDMDL
MODEL 5
REMARK VINA RESULT:      -7.7      2.694      8.058
REMARK  Name = 
REMARK  14 active torsions:
REMARK  status: ('A' for Active; 'I' for Inactive)
REMARK    1  A    between atoms: C_1  and  O_2
REMARK    2  A    between atoms: O_2  and  C_3
REMARK    3  A    between atoms: C_3  and  C_5
REMARK    4  A    between atoms: C_5  and  N_6
REMARK    5  A    between atoms: N_6  and  C_7
REMARK    6  A    between atoms: C_7  and  C_8
REMARK    7  A    between atoms: C_7  and  C_14
REMARK    8  A    between atoms: C_16  and  C_17
REMARK    9  A    between atoms: C_20  and  N_21
REMARK   10  A    between atoms: C_22  and  C_24
REMARK   11  A    between atoms: C_24  and  N_25
REMARK   12  A    between atoms: C_26  and  O_28
REMARK   13  A    between atoms: O_28  and  C_29
REMARK   14  A    between atoms: C_29  and  C_30
REMARK                            x       y       z     vdW  Elec       q    Type
REMARK                         _______ _______ _______ _____ _____    ______ ____
ROOT
ATOM      1  C   UNL     1       2.441   5.595  18.909  0.00  0.00    +0.000 A 
ATOM      2  C   UNL     1       2.251   4.263  18.451  0.00  0.00    +0.000 A 
ATOM      3  C   UNL     1       1.520   3.314  19.167  0.00  0.00    +0.000 A 
ATOM      4  C   UNL     1       1.249   1.958  18.591  0.00  0.00    +0.000 C 
ATOM      5  C   UNL     1       1.017   3.672  20.408  0.00  0.00    +0.000 A 
ATOM      6  C   UNL     1       1.213   4.965  20.901  0.00  0.00    +0.000 A 
ATOM      7  C   UNL     1       1.898   5.956  20.172  0.00  0.00    +0.000 A 
ENDROOT
BRANCH   7   8
ATOM      8  N   UNL     1       2.047   7.265  20.727  0.00  0.00    +0.000 N 
ATOM      9  C   UNL     1       1.015   8.081  21.200  0.00  0.00    +0.000 C 
ATOM     10  O   UNL     1      -0.186   7.815  21.197  0.00  0.00    +0.000 OA
ATOM     11  H   UNL     1       2.982   7.649  20.778  0.00  0.00    +0.000 HD
BRANCH   9  12
ATOM     12  C   UNL     1       1.472   9.402  21.834  0.00  0.00    +0.000 C 
BRANCH  12  13
ATOM     13  N   UNL     1       0.581  10.481  21.473  0.00  0.00    +0.000 N 
ATOM     14  C   UNL     1      -0.349  10.946  22.358  0.00  0.00    +0.000 C 
ATOM     15  O   UNL     1      -0.423  10.566  23.522  0.00  0.00    +0.000 OA
ATOM     16  H   UNL     1       0.389  10.666  20.495  0.00  0.00    +0.000 HD
BRANCH  14  17
ATOM     17  O   UNL     1      -1.206  11.786  21.735  0.00  0.00    +0.000 OA
BRANCH  17  18
ATOM     18  C   UNL     1      -1.184  11.731  20.302  0.00  0.00    +0.000 C 
BRANCH  18  19
ATOM     19  C   UNL     1      -2.551  11.838  19.667  0.00  0.00    +0.000 A 
ATOM     20  C   UNL     1      -3.596  12.526  20.300  0.00  0.00    +0.000 A 
ATOM     21  C   UNL     1      -4.832  12.684  19.667  0.00  0.00    +0.000 A 
ATOM     22  C   UNL     1      -5.039  12.155  18.393  0.00  0.00    +0.000 A 
ATOM     23  C   UNL     1      -4.008  11.470  17.752  0.00  0.00    +0.000 A 
ATOM     24  C   UNL     1      -2.773  11.313  18.385  0.00  0.00    +0.000 A 
ENDBRANCH  18  19
ENDBRANCH  17  18
ENDBRANCH  14  17
ENDBRANCH  12  13
ENDBRANCH   9  12
ENDBRANCH   7   8
BRANCH   1  25
ATOM     25  C   UNL     1       3.121   6.572  17.936  0.00  0.00    +0.000 C 
BRANCH  25  26
ATOM     26  C   UNL     1       4.598   6.229  17.689  0.00  0.00    +0.000 A 
ATOM     27  C   UNL     1       5.151   6.224  16.394  0.00  0.00    +0.000 A 
ATOM     28  C   UNL     1       6.431   5.713  16.162  0.00  0.00    +0.000 A 
ATOM     29  C   UNL     1       7.176   5.198  17.219  0.00  0.00    +0.000 A 
ATOM     30  C   UNL     1       6.655   5.219  18.511  0.00  0.00    +0.000 A 
ATOM     31  C   UNL     1       5.378   5.736  18.746  0.00  0.00    +0.000 A 
ENDBRANCH  25  26
BRANCH  25  32
ATOM     32  N   UNL     1       3.002   7.984  18.386  0.00  0.00    +0.000 NA
ATOM     33  H   UNL     1       2.477   8.025  19.259  0.00  0.00    +0.000 HD
BRANCH  32  34
ATOM     34  C   UNL     1       2.344   8.846  17.387  0.00  0.00    +0.000 C 
BRANCH  34  35
ATOM     35  C   UNL     1       1.283   9.731  18.027  0.00  0.00    +0.000 C 
ATOM     36  O   UNL     1       0.077   9.656  17.825  0.00  0.00    +0.000 OA
BRANCH  35  38
ATOM     37  C   UNL     1       2.093  11.933  18.186  0.00  0.00    +0.000 C 
ATOM     38  O   UNL     1       1.895  10.667  18.814  0.00  0.00    +0.000 OA
ENDBRANCH  35  38
ENDBRANCH  34  35
ENDBRANCH  32  34
ENDBRANCH  25  32
ENDBRANCH   1  25
TORSDOF 12
ENDMDL
MODEL 6
REMARK VINA RESULT:      -7.7      3.118      8.466
REMARK  Name = 
REMARK  14 active torsions:
REMARK  status: ('A' for Active; 'I' for Inactive)
REMARK    1  A    between atoms: C_1  and  O_2
REMARK    2  A    between atoms: O_2  and  C_3
REMARK    3  A    between atoms: C_3  and  C_5
REMARK    4  A    between atoms: C_5  and  N_6
REMARK    5  A    between atoms: N_6  and  C_7
REMARK    6  A    between atoms: C_7  and  C_8
REMARK    7  A    between atoms: C_7  and  C_14
REMARK    8  A    between atoms: C_16  and  C_17
REMARK    9  A    between atoms: C_20  and  N_21
REMARK   10  A    between atoms: C_22  and  C_24
REMARK   11  A    between atoms: C_24  and  N_25
REMARK   12  A    between atoms: C_26  and  O_28
REMARK   13  A    between atoms: O_28  and  C_29
REMARK   14  A    between atoms: C_29  and  C_30
REMARK                            x       y       z     vdW  Elec       q    Type
REMARK                         _______ _______ _______ _____ _____    ______ ____
ROOT
ATOM      1  C   UNL     1       2.451   5.568  18.934  0.00  0.00    +0.000 A 
ATOM      2  C   UNL     1       2.226   4.272  18.396  0.00  0.00    +0.000 A 
ATOM      3  C   UNL     1       1.451   3.308  19.043  0.00  0.00    +0.000 A 
ATOM      4  C   UNL     1       1.146   1.998  18.384  0.00  0.00    +0.000 C 
ATOM      5  C   UNL     1       0.937   3.611  20.294  0.00  0.00    +0.000 A 
ATOM      6  C   UNL     1       1.167   4.865  20.865  0.00  0.00    +0.000 A 
ATOM      7  C   UNL     1       1.896   5.873  20.206  0.00  0.00    +0.000 A 
ENDROOT
BRANCH   7   8
ATOM      8  N   UNL     1       2.078   7.142  20.840  0.00  0.00    +0.000 N 
ATOM      9  C   UNL     1       1.063   7.980  21.311  0.00  0.00    +0.000 C 
ATOM     10  O   UNL     1      -0.148   7.772  21.240  0.00  0.00    +0.000 OA
ATOM     11  H   UNL     1       3.026   7.478  20.954  0.00  0.00    +0.000 HD
BRANCH   9  12
ATOM     12  C   UNL     1       1.548   9.242  22.037  0.00  0.00    +0.000 C 
BRANCH  12  13
ATOM     13  N   UNL     1       0.806  10.403  21.603  0.00  0.00    +0.000 N 
ATOM     14  C   UNL     1      -0.197  10.920  22.372  0.00  0.00    +0.000 C 
ATOM     15  O   UNL     1      -0.461  10.515  23.499  0.00  0.00    +0.000 OA
ATOM     16  H   UNL     1       0.766  10.632  20.616  0.00  0.00    +0.000 HD
BRANCH  14  17
ATOM     17  O   UNL     1      -0.889  11.848  21.673  0.00  0.00    +0.000 OA
BRANCH  17  18
ATOM     18  C   UNL     1      -2.182  12.173  22.202  0.00  0.00    +0.000 C 
BRANCH  18  19
ATOM     19  C   UNL     1      -2.160  13.281  23.229  0.00  0.00    +0.000 A 
ATOM     20  C   UNL     1      -1.094  14.188  23.299  0.00  0.00    +0.000 A 
ATOM     21  C   UNL     1      -1.123  15.254  24.202  0.00  0.00    +0.000 A 
ATOM     22  C   UNL     1      -2.218  15.426  25.048  0.00  0.00    +0.000 A 
ATOM     23  C   UNL     1      -3.286  14.531  24.988  0.00  0.00    +0.000 A 
ATOM     24  C   UNL     1      -3.256  13.467  24.085  0.00  0.00    +0.000 A 
ENDBRANCH  18  19
ENDBRANCH  17  18
ENDBRANCH  14  17
ENDBRANCH  12  13
ENDBRANCH   9  12
ENDBRANCH   7   8
BRANCH   1  25
ATOM     25  C   UNL     1       3.181   6.576  18.031  0.00  0.00    +0.000 C 
BRANCH  25  26
ATOM     26  C   UNL     1       4.709   6.459  18.127  0.00  0.00    +0.000 A 
ATOM     27  C   UNL     1       5.558   7.026  17.157  0.00  0.00    +0.000 A 
ATOM     28  C   UNL     1       6.926   6.737  17.143  0.00  0.00    +0.000 A 
ATOM     29  C   UNL     1       7.464   5.877  18.096  0.00  0.00    +0.000 A 
ATOM     30  C   UNL     1       6.643   5.328  19.079  0.00  0.00    +0.000 A 
ATOM     31  C   UNL     1       5.278   5.621  19.099  0.00  0.00    +0.000 A 
ENDBRANCH  25  26
BRANCH  25  32
ATOM     32  N   UNL     1       2.767   7.977  18.307  0.00  0.00    +0.000 NA
ATOM     33  H   UNL     1       2.550   8.083  19.299  0.00  0.00    +0.000 HD
BRANCH  32  34
ATOM     34  C   UNL     1       1.598   8.393  17.511  0.00  0.00    +0.000 C 
BRANCH  34  35
ATOM     35  C   UNL     1       0.994   9.687  18.041  0.00  0.00    +0.000 C 
ATOM     36  O   UNL     1       1.564  10.494  18.764  0.00  0.00    +0.000 OA
BRANCH  35  38
ATOM     37  C   UNL     1      -1.207  10.269  18.627  0.00  0.00    +0.000 C 
ATOM     38  O   UNL     1      -0.309   9.772  17.636  0.00  0.00    +0.000 OA
ENDBRANCH  35  38
ENDBRANCH  34  35
ENDBRANCH  32  34
ENDBRANCH  25  32
ENDBRANCH   1  25
TORSDOF 12
ENDMDL
MODEL 7
REMARK VINA RESULT:      -7.7      2.439      4.764
REMARK  Name = 
REMARK  14 active torsions:
REMARK  status: ('A' for Active; 'I' for Inactive)
REMARK    1  A    between atoms: C_1  and  O_2
REMARK    2  A    between atoms: O_2  and  C_3
REMARK    3  A    between atoms: C_3  and  C_5
REMARK    4  A    between atoms: C_5  and  N_6
REMARK    5  A    between atoms: N_6  and  C_7
REMARK    6  A    between atoms: C_7  and  C_8
REMARK    7  A    between atoms: C_7  and  C_14
REMARK    8  A    between atoms: C_16  and  C_17
REMARK    9  A    between atoms: C_20  and  N_21
REMARK   10  A    between atoms: C_22  and  C_24
REMARK   11  A    between atoms: C_24  and  N_25
REMARK   12  A    between atoms: C_26  and  O_28
REMARK   13  A    between atoms: O_28  and  C_29
REMARK   14  A    between atoms: C_29  and  C_30
REMARK                            x       y       z     vdW  Elec       q    Type
REMARK                         _______ _______ _______ _____ _____    ______ ____
ROOT
ATOM      1  C   UNL     1      -1.199  11.523  20.409  0.00  0.00    +0.000 A 
ATOM      2  C   UNL     1      -2.011  12.228  21.338  0.00  0.00    +0.000 A 
ATOM      3  C   UNL     1      -2.018  11.945  22.705  0.00  0.00    +0.000 A 
ATOM      4  C   UNL     1      -2.802  12.790  23.661  0.00  0.00    +0.000 C 
ATOM      5  C   UNL     1      -1.248  10.886  23.159  0.00  0.00    +0.000 A 
ATOM      6  C   UNL     1      -0.462  10.153  22.266  0.00  0.00    +0.000 A 
ATOM      7  C   UNL     1      -0.395  10.456  20.893  0.00  0.00    +0.000 A 
ENDROOT
BRANCH   7   8
ATOM      8  N   UNL     1       0.444   9.676  20.038  0.00  0.00    +0.000 N 
ATOM      9  C   UNL     1       1.260   8.612  20.433  0.00  0.00    +0.000 C 
ATOM     10  O   UNL     1       1.404   8.188  21.579  0.00  0.00    +0.000 OA
ATOM     11  H   UNL     1       0.462   9.915  19.054  0.00  0.00    +0.000 HD
BRANCH   9  12
ATOM     12  C   UNL     1       1.982   7.888  19.288  0.00  0.00    +0.000 C 
BRANCH  12  13
ATOM     13  N   UNL     1       2.800   6.810  19.795  0.00  0.00    +0.000 N 
ATOM     14  C   UNL     1       2.667   5.542  19.307  0.00  0.00    +0.000 C 
ATOM     15  O   UNL     1       1.943   5.256  18.359  0.00  0.00    +0.000 OA
ATOM     16  H   UNL     1       3.212   6.885  20.718  0.00  0.00    +0.000 HD
BRANCH  14  17
ATOM     17  O   UNL     1       3.361   4.672  20.075  0.00  0.00    +0.000 OA
BRANCH  17  18
ATOM     18  C   UNL     1       4.238   3.791  19.361  0.00  0.00    +0.000 C 
BRANCH  18  19
ATOM     19  C   UNL     1       5.273   4.506  18.525  0.00  0.00    +0.000 A 
ATOM     20  C   UNL     1       6.264   5.301  19.118  0.00  0.00    +0.000 A 
ATOM     21  C   UNL     1       7.262   5.895  18.340  0.00  0.00    +0.000 A 
ATOM     22  C   UNL     1       7.281   5.702  16.958  0.00  0.00    +0.000 A 
ATOM     23  C   UNL     1       6.302   4.914  16.356  0.00  0.00    +0.000 A 
ATOM     24  C   UNL     1       5.305   4.321  17.135  0.00  0.00    +0.000 A 
ENDBRANCH  18  19
ENDBRANCH  17  18
ENDBRANCH  14  17
ENDBRANCH  12  13
ENDBRANCH   9  12
ENDBRANCH   7   8
BRANCH   1  25
ATOM     25  C   UNL     1      -1.171  12.058  18.968  0.00  0.00    +0.000 C 
BRANCH  25  26
ATOM     26  C   UNL     1      -2.143  11.314  18.040  0.00  0.00    +0.000 A 
ATOM     27  C   UNL     1      -1.706  10.295  17.172  0.00  0.00    +0.000 A 
ATOM     28  C   UNL     1      -2.555   9.774  16.192  0.00  0.00    +0.000 A 
ATOM     29  C   UNL     1      -3.852  10.264  16.063  0.00  0.00    +0.000 A 
ATOM     30  C   UNL     1      -4.309  11.254  16.931  0.00  0.00    +0.000 A 
ATOM     31  C   UNL     1      -3.464  11.771  17.916  0.00  0.00    +0.000 A 
ENDBRANCH  25  26
BRANCH  25  32
ATOM     32  N   UNL     1       0.198  12.028  18.387  0.00  0.00    +0.000 NA
ATOM     33  H   UNL     1       0.760  11.323  18.864  0.00  0.00    +0.000 HD
BRANCH  32  34
ATOM     34  C   UNL     1       0.882  13.331  18.476  0.00  0.00    +0.000 C 
BRANCH  34  35
ATOM     35  C   UNL     1       2.090  13.264  19.400  0.00  0.00    +0.000 C 
ATOM     36  O   UNL     1       2.065  12.945  20.583  0.00  0.00    +0.000 OA
BRANCH  35  38
ATOM     37  C   UNL     1       3.873  14.794  19.304  0.00  0.00    +0.000 C 
ATOM     38  O   UNL     1       3.200  13.681  18.719  0.00  0.00    +0.000 OA
ENDBRANCH  35  38
ENDBRANCH  34  35
ENDBRANCH  32  34
ENDBRANCH  25  32
ENDBRANCH   1  25
TORSDOF 12
ENDMDL
MODEL 8
REMARK VINA RESULT:      -7.7      3.100      8.609
REMARK  Name = 
REMARK  14 active torsions:
REMARK  status: ('A' for Active; 'I' for Inactive)
REMARK    1  A    between atoms: C_1  and  O_2
REMARK    2  A    between atoms: O_2  and  C_3
REMARK    3  A    between atoms: C_3  and  C_5
REMARK    4  A    between atoms: C_5  and  N_6
REMARK    5  A    between atoms: N_6  and  C_7
REMARK    6  A    between atoms: C_7  and  C_8
REMARK    7  A    between atoms: C_7  and  C_14
REMARK    8  A    between atoms: C_16  and  C_17
REMARK    9  A    between atoms: C_20  and  N_21
REMARK   10  A    between atoms: C_22  and  C_24
REMARK   11  A    between atoms: C_24  and  N_25
REMARK   12  A    between atoms: C_26  and  O_28
REMARK   13  A    between atoms: O_28  and  C_29
REMARK   14  A    between atoms: C_29  and  C_30
REMARK                            x       y       z     vdW  Elec       q    Type
REMARK                         _______ _______ _______ _____ _____    ______ ____
ROOT
ATOM      1  C   UNL     1       2.444   5.536  18.822  0.00  0.00    +0.000 A 
ATOM      2  C   UNL     1       2.253   4.207  18.356  0.00  0.00    +0.000 A 
ATOM      3  C   UNL     1       1.599   3.229  19.107  0.00  0.00    +0.000 A 
ATOM      4  C   UNL     1       1.320   1.875  18.530  0.00  0.00    +0.000 C 
ATOM      5  C   UNL     1       1.179   3.556  20.387  0.00  0.00    +0.000 A 
ATOM      6  C   UNL     1       1.379   4.845  20.885  0.00  0.00    +0.000 A 
ATOM      7  C   UNL     1       1.985   5.864  20.126  0.00  0.00    +0.000 A 
ENDROOT
BRANCH   7   8
ATOM      8  N   UNL     1       2.142   7.168  20.691  0.00  0.00    +0.000 N 
ATOM      9  C   UNL     1       1.111   8.013  21.110  0.00  0.00    +0.000 C 
ATOM     10  O   UNL     1      -0.096   7.783  21.044  0.00  0.00    +0.000 OA
ATOM     11  H   UNL     1       3.084   7.525  20.792  0.00  0.00    +0.000 HD
BRANCH   9  12
ATOM     12  C   UNL     1       1.572   9.321  21.770  0.00  0.00    +0.000 C 
BRANCH  12  13
ATOM     13  N   UNL     1       0.466  10.240  21.918  0.00  0.00    +0.000 N 
ATOM     14  C   UNL     1      -0.241  10.301  23.084  0.00  0.00    +0.000 C 
ATOM     15  O   UNL     1       0.067   9.677  24.094  0.00  0.00    +0.000 OA
ATOM     16  H   UNL     1      -0.014  10.583  21.093  0.00  0.00    +0.000 HD
BRANCH  14  17
ATOM     17  O   UNL     1      -1.351  11.055  22.916  0.00  0.00    +0.000 OA
BRANCH  17  18
ATOM     18  C   UNL     1      -1.116  12.404  22.492  0.00  0.00    +0.000 C 
BRANCH  18  19
ATOM     19  C   UNL     1      -1.784  13.443  23.362  0.00  0.00    +0.000 A 
ATOM     20  C   UNL     1      -3.118  13.302  23.769  0.00  0.00    +0.000 A 
ATOM     21  C   UNL     1      -3.700  14.230  24.637  0.00  0.00    +0.000 A 
ATOM     22  C   UNL     1      -2.956  15.312  25.108  0.00  0.00    +0.000 A 
ATOM     23  C   UNL     1      -1.628  15.463  24.711  0.00  0.00    +0.000 A 
ATOM     24  C   UNL     1      -1.047  14.535  23.844  0.00  0.00    +0.000 A 
ENDBRANCH  18  19
ENDBRANCH  17  18
ENDBRANCH  14  17
ENDBRANCH  12  13
ENDBRANCH   9  12
ENDBRANCH   7   8
BRANCH   1  25
ATOM     25  C   UNL     1       3.029   6.544  17.818  0.00  0.00    +0.000 C 
BRANCH  25  26
ATOM     26  C   UNL     1       4.499   6.258  17.480  0.00  0.00    +0.000 A 
ATOM     27  C   UNL     1       4.969   6.265  16.152  0.00  0.00    +0.000 A 
ATOM     28  C   UNL     1       6.251   5.802  15.841  0.00  0.00    +0.000 A 
ATOM     29  C   UNL     1       7.080   5.324  16.851  0.00  0.00    +0.000 A 
ATOM     30  C   UNL     1       6.642   5.333  18.174  0.00  0.00    +0.000 A 
ATOM     31  C   UNL     1       5.364   5.802  18.487  0.00  0.00    +0.000 A 
ENDBRANCH  25  26
BRANCH  25  32
ATOM     32  N   UNL     1       2.886   7.948  18.288  0.00  0.00    +0.000 NA
ATOM     33  H   UNL     1       2.699   7.958  19.291  0.00  0.00    +0.000 HD
BRANCH  32  34
ATOM     34  C   UNL     1       1.811   8.675  17.589  0.00  0.00    +0.000 C 
BRANCH  34  35
ATOM     35  C   UNL     1       1.752  10.134  18.024  0.00  0.00    +0.000 C 
ATOM     36  O   UNL     1       2.623  10.972  17.827  0.00  0.00    +0.000 OA
BRANCH  35  38
ATOM     37  C   UNL     1      -0.590   9.922  18.065  0.00  0.00    +0.000 C 
ATOM     38  O   UNL     1       0.600  10.344  18.730  0.00  0.00    +0.000 OA
ENDBRANCH  35  38
ENDBRANCH  34  35
ENDBRANCH  32  34
ENDBRANCH  25  32
ENDBRANCH   1  25
TORSDOF 12
ENDMDL
MODEL 9
REMARK VINA RESULT:      -7.7      2.633      8.261
REMARK  Name = 
REMARK  14 active torsions:
REMARK  status: ('A' for Active; 'I' for Inactive)
REMARK    1  A    between atoms: C_1  and  O_2
REMARK    2  A    between atoms: O_2  and  C_3
REMARK    3  A    between atoms: C_3  and  C_5
REMARK    4  A    between atoms: C_5  and  N_6
REMARK    5  A    between atoms: N_6  and  C_7
REMARK    6  A    between atoms: C_7  and  C_8
REMARK    7  A    between atoms: C_7  and  C_14
REMARK    8  A    between atoms: C_16  and  C_17
REMARK    9  A    between atoms: C_20  and  N_21
REMARK   10  A    between atoms: C_22  and  C_24
REMARK   11  A    between atoms: C_24  and  N_25
REMARK   12  A    between atoms: C_26  and  O_28
REMARK   13  A    between atoms: O_28  and  C_29
REMARK   14  A    between atoms: C_29  and  C_30
REMARK                            x       y       z     vdW  Elec       q    Type
REMARK                         _______ _______ _______ _____ _____    ______ ____
ROOT
ATOM      1  C   UNL     1       2.483   5.581  18.939  0.00  0.00    +0.000 A 
ATOM      2  C   UNL     1       2.291   4.267  18.432  0.00  0.00    +0.000 A 
ATOM      3  C   UNL     1       1.540   3.300  19.101  0.00  0.00    +0.000 A 
ATOM      4  C   UNL     1       1.269   1.967  18.474  0.00  0.00    +0.000 C 
ATOM      5  C   UNL     1       1.015   3.620  20.343  0.00  0.00    +0.000 A 
ATOM      6  C   UNL     1       1.212   4.894  20.884  0.00  0.00    +0.000 A 
ATOM      7  C   UNL     1       1.918   5.903  20.202  0.00  0.00    +0.000 A 
ENDROOT
BRANCH   7   8
ATOM      8  N   UNL     1       2.066   7.192  20.805  0.00  0.00    +0.000 N 
ATOM      9  C   UNL     1       1.036   7.982  21.321  0.00  0.00    +0.000 C 
ATOM     10  O   UNL     1      -0.164   7.709  21.324  0.00  0.00    +0.000 OA
ATOM     11  H   UNL     1       3.000   7.579  20.858  0.00  0.00    +0.000 HD
BRANCH   9  12
ATOM     12  C   UNL     1       1.493   9.282  21.999  0.00  0.00    +0.000 C 
BRANCH  12  13
ATOM     13  N   UNL     1       0.842  10.428  21.405  0.00  0.00    +0.000 N 
ATOM     14  C   UNL     1      -0.127  11.110  22.082  0.00  0.00    +0.000 C 
ATOM     15  O   UNL     1      -0.431  10.874  23.247  0.00  0.00    +0.000 OA
ATOM     16  H   UNL     1       0.829  10.530  20.397  0.00  0.00    +0.000 HD
BRANCH  14  17
ATOM     17  O   UNL     1      -0.741  11.988  21.258  0.00  0.00    +0.000 OA
BRANCH  17  18
ATOM     18  C   UNL     1      -0.489  13.371  21.539  0.00  0.00    +0.000 C 
BRANCH  18  19
ATOM     19  C   UNL     1       0.688  13.943  20.785  0.00  0.00    +0.000 A 
ATOM     20  C   UNL     1       0.691  14.012  19.385  0.00  0.00    +0.000 A 
ATOM     21  C   UNL     1       1.752  14.614  18.703  0.00  0.00    +0.000 A 
ATOM     22  C   UNL     1       2.826  15.153  19.412  0.00  0.00    +0.000 A 
ATOM     23  C   UNL     1       2.835  15.091  20.805  0.00  0.00    +0.000 A 
ATOM     24  C   UNL     1       1.774  14.490  21.485  0.00  0.00    +0.000 A 
ENDBRANCH  18  19
ENDBRANCH  17  18
ENDBRANCH  14  17
ENDBRANCH  12  13
ENDBRANCH   9  12
ENDBRANCH   7   8
BRANCH   1  25
ATOM     25  C   UNL     1       3.190   6.584  18.012  0.00  0.00    +0.000 C 
BRANCH  25  26
ATOM     26  C   UNL     1       4.711   6.378  17.967  0.00  0.00    +0.000 A 
ATOM     27  C   UNL     1       5.459   6.634  16.801  0.00  0.00    +0.000 A 
ATOM     28  C   UNL     1       6.799   6.248  16.708  0.00  0.00    +0.000 A 
ATOM     29  C   UNL     1       7.410   5.599  17.777  0.00  0.00    +0.000 A 
ATOM     30  C   UNL     1       6.693   5.360  18.947  0.00  0.00    +0.000 A 
ATOM     31  C   UNL     1       5.356   5.752  19.045  0.00  0.00    +0.000 A 
ENDBRANCH  25  26
BRANCH  25  32
ATOM     32  N   UNL     1       2.885   7.994  18.378  0.00  0.00    +0.000 NA
ATOM     33  H   UNL     1       2.646   8.049  19.368  0.00  0.00    +0.000 HD
BRANCH  32  34
ATOM     34  C   UNL     1       1.782   8.562  17.582  0.00  0.00    +0.000 C 
BRANCH  34  35
ATOM     35  C   UNL     1       1.285   9.873  18.177  0.00  0.00    +0.000 C 
ATOM     36  O   UNL     1       1.951  10.893  18.308  0.00  0.00    +0.000 OA
BRANCH  35  38
ATOM     37  C   UNL     1      -0.943  10.604  18.006  0.00  0.00    +0.000 C 
ATOM     38  O   UNL     1      -0.004   9.712  18.603  0.00  0.00    +0.000 OA
ENDBRANCH  35  38
ENDBRANCH  34  35
ENDBRANCH  32  34
ENDBRANCH  25  32
ENDBRANCH   1  25
TORSDOF 12
ENDMDL
