MODEL 1
REMARK VINA RESULT:      -8.4      0.000      0.000
REMARK  Name = 
REMARK  10 active torsions:
REMARK  status: ('A' for Active; 'I' for Inactive)
REMARK    1  A    between atoms: C_1  and  C_2
REMARK    2  A    between atoms: C_5  and  C_6
REMARK    3  A    between atoms: C_8  and  C_9
REMARK    4  A    between atoms: N_11  and  C_12
REMARK    5  A    between atoms: C_12  and  C_13
REMARK    6  A    between atoms: C_16  and  C_17
REMARK    7  A    between atoms: N_25  and  C_26
REMARK    8  A    between atoms: C_26  and  C_27
REMARK    9  A    between atoms: C_27  and  C_28
REMARK   10  A    between atoms: C_27  and  C_29
REMARK                            x       y       z     vdW  Elec       q    Type
REMARK                         _______ _______ _______ _____ _____    ______ ____
ROOT
ATOM      1  C   UNL     1       2.418   7.545  18.877  0.00  0.00    +0.000 A 
ATOM      2  C   UNL     1       3.395   7.573  17.853  0.00  0.00    +0.000 A 
ATOM      3  C   UNL     1       4.206   6.467  17.572  0.00  0.00    +0.000 A 
ATOM      4  C   UNL     1       4.058   5.270  18.291  0.00  0.00    +0.000 A 
ATOM      5  C   UNL     1       3.111   5.250  19.324  0.00  0.00    +0.000 A 
ATOM      6  C   UNL     1       2.314   6.355  19.637  0.00  0.00    +0.000 A 
ATOM      7  N   UNL     1       1.492   6.061  20.706  0.00  0.00    +0.000 NA
ATOM      8  C   UNL     1       1.746   4.818  21.022  0.00  0.00    +0.000 A 
ATOM      9  N   UNL     1       2.704   4.278  20.212  0.00  0.00    +0.000 N 
ENDROOT
BRANCH   1  14
ATOM     10  C   UNL     1      -0.908  12.053  20.106  0.00  0.00    +0.000 C 
ATOM     11  C   UNL     1      -0.063  10.880  19.729  0.00  0.00    +0.000 A 
ATOM     12  C   UNL     1       0.084  10.487  18.403  0.00  0.00    +0.000 A 
ATOM     13  C   UNL     1       0.884   9.391  18.097  0.00  0.00    +0.000 A 
ATOM     14  C   UNL     1       1.523   8.687  19.120  0.00  0.00    +0.000 A 
ATOM     15  N   UNL     1       1.393   9.068  20.420  0.00  0.00    +0.000 NA
ATOM     16  C   UNL     1       0.609  10.136  20.692  0.00  0.00    +0.000 A 
ENDBRANCH   1  14
BRANCH   3  17
ATOM     17  C   UNL     1       5.205   6.504  16.465  0.00  0.00    +0.000 C 
ATOM     18  O   UNL     1       4.984   7.173  15.459  0.00  0.00    +0.000 OA
ATOM     19  N   UNL     1       6.342   5.744  16.624  0.00  0.00    +0.000 N 
ATOM     20  H   UNL     1       6.451   5.134  17.423  0.00  0.00    +0.000 HD
BRANCH  19  21
ATOM     21  C   UNL     1       7.379   5.707  15.615  0.00  0.00    +0.000 C 
BRANCH  21  22
ATOM     22  C   UNL     1       7.000   4.925  14.382  0.00  0.00    +0.000 A 
ATOM     23  C   UNL     1       6.072   3.893  14.457  0.00  0.00    +0.000 A 
ATOM     24  N   UNL     1       5.796   3.072  13.410  0.00  0.00    +0.000 NA
ATOM     25  C   UNL     1       6.467   3.329  12.264  0.00  0.00    +0.000 A 
ATOM     26  C   UNL     1       6.268   2.397  11.108  0.00  0.00    +0.000 C 
ATOM     27  C   UNL     1       7.350   4.400  12.170  0.00  0.00    +0.000 A 
ATOM     28  N   UNL     1       7.638   5.214  13.216  0.00  0.00    +0.000 NA
ENDBRANCH  21  22
ENDBRANCH  19  21
ENDBRANCH   3  17
BRANCH   9  29
ATOM     29  C   UNL     1       3.111   2.887  20.251  0.00  0.00    +0.000 C 
BRANCH  29  30
ATOM     30  C   UNL     1       2.414   1.988  19.216  0.00  0.00    +0.000 C 
ATOM     31  C   UNL     1       1.082   2.565  18.727  0.00  0.00    +0.000 C 
ATOM     32  C   UNL     1       3.341   1.783  18.014  0.00  0.00    +0.000 C 
ENDBRANCH  29  30
ENDBRANCH   9  29
TORSDOF 6
ENDMDL
MODEL 2
REMARK VINA RESULT:      -7.7      3.743      7.317
REMARK  Name = 
REMARK  10 active torsions:
REMARK  status: ('A' for Active; 'I' for Inactive)
REMARK    1  A    between atoms: C_1  and  C_2
REMARK    2  A    between atoms: C_5  and  C_6
REMARK    3  A    between atoms: C_8  and  C_9
REMARK    4  A    between atoms: N_11  and  C_12
REMARK    5  A    between atoms: C_12  and  C_13
REMARK    6  A    between atoms: C_16  and  C_17
REMARK    7  A    between atoms: N_25  and  C_26
REMARK    8  A    between atoms: C_26  and  C_27
REMARK    9  A    between atoms: C_27  and  C_28
REMARK   10  A    between atoms: C_27  and  C_29
REMARK                            x       y       z     vdW  Elec       q    Type
REMARK                         _______ _______ _______ _____ _____    ______ ____
ROOT
ATOM      1  C   UNL     1      -1.164  11.367  18.704  0.00  0.00    +0.000 A 
ATOM      2  C   UNL     1      -0.554  10.141  19.062  0.00  0.00    +0.000 A 
ATOM      3  C   UNL     1       0.806  10.055  19.380  0.00  0.00    +0.000 A 
ATOM      4  C   UNL     1       1.616  11.202  19.376  0.00  0.00    +0.000 A 
ATOM      5  C   UNL     1       1.020  12.412  18.994  0.00  0.00    +0.000 A 
ATOM      6  C   UNL     1      -0.330  12.509  18.645  0.00  0.00    +0.000 A 
ATOM      7  N   UNL     1      -0.637  13.808  18.293  0.00  0.00    +0.000 NA
ATOM      8  C   UNL     1       0.468  14.492  18.446  0.00  0.00    +0.000 A 
ATOM      9  N   UNL     1       1.493  13.701  18.881  0.00  0.00    +0.000 N 
ENDROOT
BRANCH   1  14
ATOM     10  C   UNL     1      -6.805  11.995  17.878  0.00  0.00    +0.000 C 
ATOM     11  C   UNL     1      -5.333  11.796  18.044  0.00  0.00    +0.000 A 
ATOM     12  C   UNL     1      -4.566  11.191  17.054  0.00  0.00    +0.000 A 
ATOM     13  C   UNL     1      -3.198  11.030  17.249  0.00  0.00    +0.000 A 
ATOM     14  C   UNL     1      -2.608  11.463  18.439  0.00  0.00    +0.000 A 
ATOM     15  N   UNL     1      -3.348  12.063  19.410  0.00  0.00    +0.000 NA
ATOM     16  C   UNL     1      -4.676  12.208  19.197  0.00  0.00    +0.000 A 
ENDBRANCH   1  14
BRANCH   3  17
ATOM     17  C   UNL     1       1.423   8.759  19.790  0.00  0.00    +0.000 C 
ATOM     18  O   UNL     1       1.377   8.401  20.964  0.00  0.00    +0.000 OA
ATOM     19  N   UNL     1       2.049   8.027  18.807  0.00  0.00    +0.000 N 
ATOM     20  H   UNL     1       2.148   8.393  17.871  0.00  0.00    +0.000 HD
BRANCH  19  21
ATOM     21  C   UNL     1       2.678   6.754  19.092  0.00  0.00    +0.000 C 
BRANCH  21  22
ATOM     22  C   UNL     1       3.498   6.213  17.947  0.00  0.00    +0.000 A 
ATOM     23  C   UNL     1       3.489   4.855  17.649  0.00  0.00    +0.000 A 
ATOM     24  N   UNL     1       4.308   4.298  16.720  0.00  0.00    +0.000 NA
ATOM     25  C   UNL     1       5.134   5.151  16.072  0.00  0.00    +0.000 A 
ATOM     26  C   UNL     1       6.122   4.576  15.105  0.00  0.00    +0.000 C 
ATOM     27  C   UNL     1       5.101   6.519  16.324  0.00  0.00    +0.000 A 
ATOM     28  N   UNL     1       4.293   7.077  17.260  0.00  0.00    +0.000 NA
ENDBRANCH  21  22
ENDBRANCH  19  21
ENDBRANCH   3  17
BRANCH   9  29
ATOM     29  C   UNL     1       2.805  14.199  19.245  0.00  0.00    +0.000 C 
BRANCH  29  30
ATOM     30  C   UNL     1       3.500  15.028  18.152  0.00  0.00    +0.000 C 
ATOM     31  C   UNL     1       3.426  16.535  18.410  0.00  0.00    +0.000 C 
ATOM     32  C   UNL     1       4.969  14.608  18.054  0.00  0.00    +0.000 C 
ENDBRANCH  29  30
ENDBRANCH   9  29
TORSDOF 6
ENDMDL
MODEL 3
REMARK VINA RESULT:      -7.7      2.089      7.923
REMARK  Name = 
REMARK  10 active torsions:
REMARK  status: ('A' for Active; 'I' for Inactive)
REMARK    1  A    between atoms: C_1  and  C_2
REMARK    2  A    between atoms: C_5  and  C_6
REMARK    3  A    between atoms: C_8  and  C_9
REMARK    4  A    between atoms: N_11  and  C_12
REMARK    5  A    between atoms: C_12  and  C_13
REMARK    6  A    between atoms: C_16  and  C_17
REMARK    7  A    between atoms: N_25  and  C_26
REMARK    8  A    between atoms: C_26  and  C_27
REMARK    9  A    between atoms: C_27  and  C_28
REMARK   10  A    between atoms: C_27  and  C_29
REMARK                            x       y       z     vdW  Elec       q    Type
REMARK                         _______ _______ _______ _____ _____    ______ ____
ROOT
ATOM      1  C   UNL     1       4.248   5.982  17.049  0.00  0.00    +0.000 A 
ATOM      2  C   UNL     1       3.628   7.253  17.111  0.00  0.00    +0.000 A 
ATOM      3  C   UNL     1       2.790   7.618  18.172  0.00  0.00    +0.000 A 
ATOM      4  C   UNL     1       2.551   6.730  19.233  0.00  0.00    +0.000 A 
ATOM      5  C   UNL     1       3.140   5.461  19.158  0.00  0.00    +0.000 A 
ATOM      6  C   UNL     1       3.956   5.071  18.093  0.00  0.00    +0.000 A 
ATOM      7  N   UNL     1       4.377   3.769  18.269  0.00  0.00    +0.000 NA
ATOM      8  C   UNL     1       3.870   3.379  19.410  0.00  0.00    +0.000 A 
ATOM      9  N   UNL     1       3.127   4.365  19.994  0.00  0.00    +0.000 N 
ENDROOT
BRANCH   1  14
ATOM     10  C   UNL     1       8.138   4.702  13.035  0.00  0.00    +0.000 C 
ATOM     11  C   UNL     1       7.083   5.004  14.049  0.00  0.00    +0.000 A 
ATOM     12  C   UNL     1       5.844   4.373  14.018  0.00  0.00    +0.000 A 
ATOM     13  C   UNL     1       4.893   4.683  14.985  0.00  0.00    +0.000 A 
ATOM     14  C   UNL     1       5.182   5.631  15.969  0.00  0.00    +0.000 A 
ATOM     15  N   UNL     1       6.394   6.248  16.013  0.00  0.00    +0.000 NA
ATOM     16  C   UNL     1       7.302   5.930  15.062  0.00  0.00    +0.000 A 
ENDBRANCH   1  14
BRANCH   3  17
ATOM     17  C   UNL     1       2.176   8.976  18.238  0.00  0.00    +0.000 C 
ATOM     18  O   UNL     1       2.506   9.840  17.430  0.00  0.00    +0.000 OA
ATOM     19  N   UNL     1       1.266   9.201  19.246  0.00  0.00    +0.000 N 
ATOM     20  H   UNL     1       1.085   8.498  19.948  0.00  0.00    +0.000 HD
BRANCH  19  21
ATOM     21  C   UNL     1       0.606  10.480  19.403  0.00  0.00    +0.000 C 
BRANCH  21  22
ATOM     22  C   UNL     1      -0.747  10.551  18.739  0.00  0.00    +0.000 A 
ATOM     23  C   UNL     1      -1.018   9.798  17.602  0.00  0.00    +0.000 A 
ATOM     24  N   UNL     1      -2.168   9.925  16.890  0.00  0.00    +0.000 NA
ATOM     25  C   UNL     1      -3.061  10.824  17.364  0.00  0.00    +0.000 A 
ATOM     26  C   UNL     1      -4.303  11.069  16.565  0.00  0.00    +0.000 C 
ATOM     27  C   UNL     1      -2.818  11.534  18.535  0.00  0.00    +0.000 A 
ATOM     28  N   UNL     1      -1.666  11.419  19.242  0.00  0.00    +0.000 NA
ENDBRANCH  21  22
ENDBRANCH  19  21
ENDBRANCH   3  17
BRANCH   9  29
ATOM     29  C   UNL     1       2.536   4.264  21.314  0.00  0.00    +0.000 C 
BRANCH  29  30
ATOM     30  C   UNL     1       1.238   3.441  21.370  0.00  0.00    +0.000 C 
ATOM     31  C   UNL     1       0.648   3.164  19.985  0.00  0.00    +0.000 C 
ATOM     32  C   UNL     1       1.512   2.108  22.072  0.00  0.00    +0.000 C 
ENDBRANCH  29  30
ENDBRANCH   9  29
TORSDOF 6
ENDMDL
MODEL 4
REMARK VINA RESULT:      -7.7      4.067      8.378
REMARK  Name = 
REMARK  10 active torsions:
REMARK  status: ('A' for Active; 'I' for Inactive)
REMARK    1  A    between atoms: C_1  and  C_2
REMARK    2  A    between atoms: C_5  and  C_6
REMARK    3  A    between atoms: C_8  and  C_9
REMARK    4  A    between atoms: N_11  and  C_12
REMARK    5  A    between atoms: C_12  and  C_13
REMARK    6  A    between atoms: C_16  and  C_17
REMARK    7  A    between atoms: N_25  and  C_26
REMARK    8  A    between atoms: C_26  and  C_27
REMARK    9  A    between atoms: C_27  and  C_28
REMARK   10  A    between atoms: C_27  and  C_29
REMARK                            x       y       z     vdW  Elec       q    Type
REMARK                         _______ _______ _______ _____ _____    ______ ____
ROOT
ATOM      1  C   UNL     1      -1.638  10.999  19.318  0.00  0.00    +0.000 A 
ATOM      2  C   UNL     1      -0.638  10.094  19.747  0.00  0.00    +0.000 A 
ATOM      3  C   UNL     1      -0.060  10.178  21.019  0.00  0.00    +0.000 A 
ATOM      4  C   UNL     1      -0.475  11.162  21.931  0.00  0.00    +0.000 A 
ATOM      5  C   UNL     1      -1.443  12.077  21.497  0.00  0.00    +0.000 A 
ATOM      6  C   UNL     1      -2.010  12.025  20.220  0.00  0.00    +0.000 A 
ATOM      7  N   UNL     1      -2.914  13.056  20.059  0.00  0.00    +0.000 NA
ATOM      8  C   UNL     1      -2.930  13.700  21.197  0.00  0.00    +0.000 A 
ATOM      9  N   UNL     1      -2.072  13.143  22.103  0.00  0.00    +0.000 N 
ENDROOT
BRANCH   1  14
ATOM     10  C   UNL     1      -4.035  10.176  14.173  0.00  0.00    +0.000 C 
ATOM     11  C   UNL     1      -3.451  10.435  15.524  0.00  0.00    +0.000 A 
ATOM     12  C   UNL     1      -4.075  11.280  16.435  0.00  0.00    +0.000 A 
ATOM     13  C   UNL     1      -3.497  11.490  17.683  0.00  0.00    +0.000 A 
ATOM     14  C   UNL     1      -2.291  10.863  18.007  0.00  0.00    +0.000 A 
ATOM     15  N   UNL     1      -1.677  10.028  17.125  0.00  0.00    +0.000 NA
ATOM     16  C   UNL     1      -2.258   9.841  15.919  0.00  0.00    +0.000 A 
ENDBRANCH   1  14
BRANCH   3  17
ATOM     17  C   UNL     1       0.967   9.192  21.467  0.00  0.00    +0.000 C 
ATOM     18  O   UNL     1       1.605   9.394  22.496  0.00  0.00    +0.000 OA
ATOM     19  N   UNL     1       1.165   8.091  20.666  0.00  0.00    +0.000 N 
ATOM     20  H   UNL     1       0.687   8.001  19.780  0.00  0.00    +0.000 HD
BRANCH  19  21
ATOM     21  C   UNL     1       2.132   7.068  21.005  0.00  0.00    +0.000 C 
BRANCH  21  22
ATOM     22  C   UNL     1       2.080   5.860  20.103  0.00  0.00    +0.000 A 
ATOM     23  C   UNL     1       1.359   4.730  20.474  0.00  0.00    +0.000 A 
ATOM     24  N   UNL     1       1.387   3.572  19.767  0.00  0.00    +0.000 NA
ATOM     25  C   UNL     1       2.151   3.579  18.650  0.00  0.00    +0.000 A 
ATOM     26  C   UNL     1       2.291   2.299  17.886  0.00  0.00    +0.000 C 
ATOM     27  C   UNL     1       2.824   4.726  18.244  0.00  0.00    +0.000 A 
ATOM     28  N   UNL     1       2.808   5.882  18.954  0.00  0.00    +0.000 NA
ENDBRANCH  21  22
ENDBRANCH  19  21
ENDBRANCH   3  17
BRANCH   9  29
ATOM     29  C   UNL     1      -1.958  13.572  23.483  0.00  0.00    +0.000 C 
BRANCH  29  30
ATOM     30  C   UNL     1      -3.295  13.935  24.151  0.00  0.00    +0.000 C 
ATOM     31  C   UNL     1      -4.082  12.707  24.617  0.00  0.00    +0.000 C 
ATOM     32  C   UNL     1      -3.030  14.845  25.354  0.00  0.00    +0.000 C 
ENDBRANCH  29  30
ENDBRANCH   9  29
TORSDOF 6
ENDMDL
MODEL 5
REMARK VINA RESULT:      -7.6      0.770      1.404
REMARK  Name = 
REMARK  10 active torsions:
REMARK  status: ('A' for Active; 'I' for Inactive)
REMARK    1  A    between atoms: C_1  and  C_2
REMARK    2  A    between atoms: C_5  and  C_6
REMARK    3  A    between atoms: C_8  and  C_9
REMARK    4  A    between atoms: N_11  and  C_12
REMARK    5  A    between atoms: C_12  and  C_13
REMARK    6  A    between atoms: C_16  and  C_17
REMARK    7  A    between atoms: N_25  and  C_26
REMARK    8  A    between atoms: C_26  and  C_27
REMARK    9  A    between atoms: C_27  and  C_28
REMARK   10  A    between atoms: C_27  and  C_29
REMARK                            x       y       z     vdW  Elec       q    Type
REMARK                         _______ _______ _______ _____ _____    ______ ____
ROOT
ATOM      1  C   UNL     1       2.394   7.634  18.903  0.00  0.00    +0.000 A 
ATOM      2  C   UNL     1       3.324   7.674  17.837  0.00  0.00    +0.000 A 
ATOM      3  C   UNL     1       4.133   6.577  17.517  0.00  0.00    +0.000 A 
ATOM      4  C   UNL     1       4.028   5.376  18.239  0.00  0.00    +0.000 A 
ATOM      5  C   UNL     1       3.129   5.345  19.313  0.00  0.00    +0.000 A 
ATOM      6  C   UNL     1       2.335   6.442  19.663  0.00  0.00    +0.000 A 
ATOM      7  N   UNL     1       1.565   6.137  20.767  0.00  0.00    +0.000 NA
ATOM      8  C   UNL     1       1.845   4.895  21.069  0.00  0.00    +0.000 A 
ATOM      9  N   UNL     1       2.771   4.367  20.215  0.00  0.00    +0.000 N 
ENDROOT
BRANCH   1  14
ATOM     10  C   UNL     1      -1.225  12.008  19.720  0.00  0.00    +0.000 C 
ATOM     11  C   UNL     1      -0.271  10.867  19.567  0.00  0.00    +0.000 A 
ATOM     12  C   UNL     1       0.230  10.186  20.672  0.00  0.00    +0.000 A 
ATOM     13  C   UNL     1       1.112   9.128  20.482  0.00  0.00    +0.000 A 
ATOM     14  C   UNL     1       1.499   8.766  19.189  0.00  0.00    +0.000 A 
ATOM     15  N   UNL     1       1.008   9.421  18.102  0.00  0.00    +0.000 NA
ATOM     16  C   UNL     1       0.152  10.446  18.312  0.00  0.00    +0.000 A 
ENDBRANCH   1  14
BRANCH   3  17
ATOM     17  C   UNL     1       5.081   6.626  16.366  0.00  0.00    +0.000 C 
ATOM     18  O   UNL     1       4.804   7.286  15.369  0.00  0.00    +0.000 OA
ATOM     19  N   UNL     1       6.237   5.888  16.478  0.00  0.00    +0.000 N 
ATOM     20  H   UNL     1       6.393   5.284  17.274  0.00  0.00    +0.000 HD
BRANCH  19  21
ATOM     21  C   UNL     1       7.230   5.865  15.425  0.00  0.00    +0.000 C 
BRANCH  21  22
ATOM     22  C   UNL     1       6.946   4.849  14.346  0.00  0.00    +0.000 A 
ATOM     23  C   UNL     1       7.536   4.965  13.092  0.00  0.00    +0.000 A 
ATOM     24  N   UNL     1       7.213   4.160  12.047  0.00  0.00    +0.000 NA
ATOM     25  C   UNL     1       6.285   3.208  12.299  0.00  0.00    +0.000 A 
ATOM     26  C   UNL     1       5.825   2.354  11.158  0.00  0.00    +0.000 C 
ATOM     27  C   UNL     1       5.739   3.051  13.569  0.00  0.00    +0.000 A 
ATOM     28  N   UNL     1       6.050   3.861  14.611  0.00  0.00    +0.000 NA
ENDBRANCH  21  22
ENDBRANCH  19  21
ENDBRANCH   3  17
BRANCH   9  29
ATOM     29  C   UNL     1       3.194   2.980  20.232  0.00  0.00    +0.000 C 
BRANCH  29  30
ATOM     30  C   UNL     1       2.972   2.229  18.908  0.00  0.00    +0.000 C 
ATOM     31  C   UNL     1       3.842   0.975  18.782  0.00  0.00    +0.000 C 
ATOM     32  C   UNL     1       1.498   1.829  18.792  0.00  0.00    +0.000 C 
ENDBRANCH  29  30
ENDBRANCH   9  29
TORSDOF 6
ENDMDL
MODEL 6
REMARK VINA RESULT:      -7.5      3.603      7.347
REMARK  Name = 
REMARK  10 active torsions:
REMARK  status: ('A' for Active; 'I' for Inactive)
REMARK    1  A    between atoms: C_1  and  C_2
REMARK    2  A    between atoms: C_5  and  C_6
REMARK    3  A    between atoms: C_8  and  C_9
REMARK    4  A    between atoms: N_11  and  C_12
REMARK    5  A    between atoms: C_12  and  C_13
REMARK    6  A    between atoms: C_16  and  C_17
REMARK    7  A    between atoms: N_25  and  C_26
REMARK    8  A    between atoms: C_26  and  C_27
REMARK    9  A    between atoms: C_27  and  C_28
REMARK   10  A    between atoms: C_27  and  C_29
REMARK                            x       y       z     vdW  Elec       q    Type
REMARK                         _______ _______ _______ _____ _____    ______ ____
ROOT
ATOM      1  C   UNL     1      -1.206  11.455  18.774  0.00  0.00    +0.000 A 
ATOM      2  C   UNL     1      -0.638  10.206  19.120  0.00  0.00    +0.000 A 
ATOM      3  C   UNL     1       0.699  10.085  19.519  0.00  0.00    +0.000 A 
ATOM      4  C   UNL     1       1.523  11.217  19.612  0.00  0.00    +0.000 A 
ATOM      5  C   UNL     1       0.971  12.451  19.241  0.00  0.00    +0.000 A 
ATOM      6  C   UNL     1      -0.353  12.584  18.813  0.00  0.00    +0.000 A 
ATOM      7  N   UNL     1      -0.618  13.901  18.493  0.00  0.00    +0.000 NA
ATOM      8  C   UNL     1       0.484  14.560  18.742  0.00  0.00    +0.000 A 
ATOM      9  N   UNL     1       1.469  13.735  19.208  0.00  0.00    +0.000 N 
ENDROOT
BRANCH   1  14
ATOM     10  C   UNL     1      -6.776  12.203  17.630  0.00  0.00    +0.000 C 
ATOM     11  C   UNL     1      -5.320  11.976  17.876  0.00  0.00    +0.000 A 
ATOM     12  C   UNL     1      -4.493  11.432  16.898  0.00  0.00    +0.000 A 
ATOM     13  C   UNL     1      -3.143  11.242  17.170  0.00  0.00    +0.000 A 
ATOM     14  C   UNL     1      -2.629  11.585  18.423  0.00  0.00    +0.000 A 
ATOM     15  N   UNL     1      -3.427  12.126  19.384  0.00  0.00    +0.000 NA
ATOM     16  C   UNL     1      -4.737  12.300  19.095  0.00  0.00    +0.000 A 
ENDBRANCH   1  14
BRANCH   3  17
ATOM     17  C   UNL     1       1.269   8.764  19.916  0.00  0.00    +0.000 C 
ATOM     18  O   UNL     1       1.071   8.323  21.045  0.00  0.00    +0.000 OA
ATOM     19  N   UNL     1       2.028   8.105  18.977  0.00  0.00    +0.000 N 
ATOM     20  H   UNL     1       2.247   8.537  18.089  0.00  0.00    +0.000 HD
BRANCH  19  21
ATOM     21  C   UNL     1       2.627   6.816  19.252  0.00  0.00    +0.000 C 
BRANCH  21  22
ATOM     22  C   UNL     1       3.428   6.260  18.100  0.00  0.00    +0.000 A 
ATOM     23  C   UNL     1       3.405   4.900  17.813  0.00  0.00    +0.000 A 
ATOM     24  N   UNL     1       4.207   4.330  16.877  0.00  0.00    +0.000 NA
ATOM     25  C   UNL     1       5.031   5.172  16.212  0.00  0.00    +0.000 A 
ATOM     26  C   UNL     1       6.002   4.582  15.236  0.00  0.00    +0.000 C 
ATOM     27  C   UNL     1       5.012   6.542  16.455  0.00  0.00    +0.000 A 
ATOM     28  N   UNL     1       4.221   7.113  17.397  0.00  0.00    +0.000 NA
ENDBRANCH  21  22
ENDBRANCH  19  21
ENDBRANCH   3  17
BRANCH   9  29
ATOM     29  C   UNL     1       2.762  14.197  19.674  0.00  0.00    +0.000 C 
BRANCH  29  30
ATOM     30  C   UNL     1       2.850  14.421  21.192  0.00  0.00    +0.000 C 
ATOM     31  C   UNL     1       4.248  14.148  21.754  0.00  0.00    +0.000 C 
ATOM     32  C   UNL     1       2.454  15.864  21.517  0.00  0.00    +0.000 C 
ENDBRANCH  29  30
ENDBRANCH   9  29
TORSDOF 6
ENDMDL
MODEL 7
REMARK VINA RESULT:      -7.5      5.288     11.997
REMARK  Name = 
REMARK  10 active torsions:
REMARK  status: ('A' for Active; 'I' for Inactive)
REMARK    1  A    between atoms: C_1  and  C_2
REMARK    2  A    between atoms: C_5  and  C_6
REMARK    3  A    between atoms: C_8  and  C_9
REMARK    4  A    between atoms: N_11  and  C_12
REMARK    5  A    between atoms: C_12  and  C_13
REMARK    6  A    between atoms: C_16  and  C_17
REMARK    7  A    between atoms: N_25  and  C_26
REMARK    8  A    between atoms: C_26  and  C_27
REMARK    9  A    between atoms: C_27  and  C_28
REMARK   10  A    between atoms: C_27  and  C_29
REMARK                            x       y       z     vdW  Elec       q    Type
REMARK                         _______ _______ _______ _____ _____    ______ ____
ROOT
ATOM      1  C   UNL     1      -0.031  10.772  19.208  0.00  0.00    +0.000 A 
ATOM      2  C   UNL     1      -1.415  10.710  18.917  0.00  0.00    +0.000 A 
ATOM      3  C   UNL     1      -2.234  11.845  18.967  0.00  0.00    +0.000 A 
ATOM      4  C   UNL     1      -1.697  13.102  19.289  0.00  0.00    +0.000 A 
ATOM      5  C   UNL     1      -0.333  13.159  19.606  0.00  0.00    +0.000 A 
ATOM      6  C   UNL     1       0.492  12.031  19.590  0.00  0.00    +0.000 A 
ATOM      7  N   UNL     1       1.775  12.376  19.963  0.00  0.00    +0.000 NA
ATOM      8  C   UNL     1       1.754  13.668  20.172  0.00  0.00    +0.000 A 
ATOM      9  N   UNL     1       0.510  14.191  19.957  0.00  0.00    +0.000 N 
ENDROOT
BRANCH   1  14
ATOM     10  C   UNL     1       3.505   6.316  18.482  0.00  0.00    +0.000 C 
ATOM     11  C   UNL     1       2.569   7.454  18.725  0.00  0.00    +0.000 A 
ATOM     12  C   UNL     1       1.993   7.668  19.974  0.00  0.00    +0.000 A 
ATOM     13  C   UNL     1       1.130   8.743  20.157  0.00  0.00    +0.000 A 
ATOM     14  C   UNL     1       0.837   9.591  19.086  0.00  0.00    +0.000 A 
ATOM     15  N   UNL     1       1.401   9.396  17.863  0.00  0.00    +0.000 NA
ATOM     16  C   UNL     1       2.236   8.344  17.711  0.00  0.00    +0.000 A 
ENDBRANCH   1  14
BRANCH   3  17
ATOM     17  C   UNL     1      -3.683  11.766  18.621  0.00  0.00    +0.000 C 
ATOM     18  O   UNL     1      -4.063  11.005  17.735  0.00  0.00    +0.000 OA
ATOM     19  N   UNL     1      -4.537  12.592  19.316  0.00  0.00    +0.000 N 
ATOM     20  H   UNL     1      -4.180  13.271  19.975  0.00  0.00    +0.000 HD
BRANCH  19  21
ATOM     21  C   UNL     1      -5.962  12.597  19.065  0.00  0.00    +0.000 C 
BRANCH  21  22
ATOM     22  C   UNL     1      -6.436  13.790  18.272  0.00  0.00    +0.000 A 
ATOM     23  C   UNL     1      -6.680  13.681  16.908  0.00  0.00    +0.000 A 
ATOM     24  N   UNL     1      -6.977  14.749  16.124  0.00  0.00    +0.000 NA
ATOM     25  C   UNL     1      -7.043  15.945  16.754  0.00  0.00    +0.000 A 
ATOM     26  C   UNL     1      -7.274  17.167  15.920  0.00  0.00    +0.000 C 
ATOM     27  C   UNL     1      -6.859  16.047  18.129  0.00  0.00    +0.000 A 
ATOM     28  N   UNL     1      -6.551  14.984  18.913  0.00  0.00    +0.000 NA
ENDBRANCH  21  22
ENDBRANCH  19  21
ENDBRANCH   3  17
BRANCH   9  29
ATOM     29  C   UNL     1       0.207  15.608  20.002  0.00  0.00    +0.000 C 
BRANCH  29  30
ATOM     30  C   UNL     1       0.107  16.283  18.624  0.00  0.00    +0.000 C 
ATOM     31  C   UNL     1      -1.030  17.305  18.542  0.00  0.00    +0.000 C 
ATOM     32  C   UNL     1       1.431  16.981  18.303  0.00  0.00    +0.000 C 
ENDBRANCH  29  30
ENDBRANCH   9  29
TORSDOF 6
ENDMDL
MODEL 8
REMARK VINA RESULT:      -7.4      3.598      7.388
REMARK  Name = 
REMARK  10 active torsions:
REMARK  status: ('A' for Active; 'I' for Inactive)
REMARK    1  A    between atoms: C_1  and  C_2
REMARK    2  A    between atoms: C_5  and  C_6
REMARK    3  A    between atoms: C_8  and  C_9
REMARK    4  A    between atoms: N_11  and  C_12
REMARK    5  A    between atoms: C_12  and  C_13
REMARK    6  A    between atoms: C_16  and  C_17
REMARK    7  A    between atoms: N_25  and  C_26
REMARK    8  A    between atoms: C_26  and  C_27
REMARK    9  A    between atoms: C_27  and  C_28
REMARK   10  A    between atoms: C_27  and  C_29
REMARK                            x       y       z     vdW  Elec       q    Type
REMARK                         _______ _______ _______ _____ _____    ______ ____
ROOT
ATOM      1  C   UNL     1      -1.198  11.351  18.769  0.00  0.00    +0.000 A 
ATOM      2  C   UNL     1      -0.646  10.101  19.138  0.00  0.00    +0.000 A 
ATOM      3  C   UNL     1       0.694   9.966  19.519  0.00  0.00    +0.000 A 
ATOM      4  C   UNL     1       1.540  11.086  19.570  0.00  0.00    +0.000 A 
ATOM      5  C   UNL     1       1.003  12.319  19.176  0.00  0.00    +0.000 A 
ATOM      6  C   UNL     1      -0.325  12.465  18.765  0.00  0.00    +0.000 A 
ATOM      7  N   UNL     1      -0.572  13.778  18.416  0.00  0.00    +0.000 NA
ATOM      8  C   UNL     1       0.546  14.423  18.630  0.00  0.00    +0.000 A 
ATOM      9  N   UNL     1       1.523  13.593  19.102  0.00  0.00    +0.000 N 
ENDROOT
BRANCH   1  14
ATOM     10  C   UNL     1      -6.777  12.153  17.708  0.00  0.00    +0.000 C 
ATOM     11  C   UNL     1      -5.319  11.915  17.932  0.00  0.00    +0.000 A 
ATOM     12  C   UNL     1      -4.503  11.410  16.925  0.00  0.00    +0.000 A 
ATOM     13  C   UNL     1      -3.150  11.207  17.176  0.00  0.00    +0.000 A 
ATOM     14  C   UNL     1      -2.623  11.497  18.437  0.00  0.00    +0.000 A 
ATOM     15  N   UNL     1      -3.412  12.000  19.427  0.00  0.00    +0.000 NA
ATOM     16  C   UNL     1      -4.724  12.187  19.158  0.00  0.00    +0.000 A 
ENDBRANCH   1  14
BRANCH   3  17
ATOM     17  C   UNL     1       1.248   8.646  19.941  0.00  0.00    +0.000 C 
ATOM     18  O   UNL     1       1.038   8.225  21.076  0.00  0.00    +0.000 OA
ATOM     19  N   UNL     1       2.006   7.964  19.018  0.00  0.00    +0.000 N 
ATOM     20  H   UNL     1       2.235   8.379  18.125  0.00  0.00    +0.000 HD
BRANCH  19  21
ATOM     21  C   UNL     1       2.590   6.673  19.317  0.00  0.00    +0.000 C 
BRANCH  21  22
ATOM     22  C   UNL     1       3.512   6.159  18.240  0.00  0.00    +0.000 A 
ATOM     23  C   UNL     1       4.198   7.042  17.414  0.00  0.00    +0.000 A 
ATOM     24  N   UNL     1       4.933   6.635  16.348  0.00  0.00    +0.000 NA
ATOM     25  C   UNL     1       4.981   5.299  16.137  0.00  0.00    +0.000 A 
ATOM     26  C   UNL     1       5.701   4.804  14.920  0.00  0.00    +0.000 C 
ATOM     27  C   UNL     1       4.346   4.410  16.998  0.00  0.00    +0.000 A 
ATOM     28  N   UNL     1       3.601   4.813  18.057  0.00  0.00    +0.000 NA
ENDBRANCH  21  22
ENDBRANCH  19  21
ENDBRANCH   3  17
BRANCH   9  29
ATOM     29  C   UNL     1       2.831  14.043  19.535  0.00  0.00    +0.000 C 
BRANCH  29  30
ATOM     30  C   UNL     1       2.807  15.246  20.493  0.00  0.00    +0.000 C 
ATOM     31  C   UNL     1       2.112  14.936  21.822  0.00  0.00    +0.000 C 
ATOM     32  C   UNL     1       4.243  15.700  20.774  0.00  0.00    +0.000 C 
ENDBRANCH  29  30
ENDBRANCH   9  29
TORSDOF 6
ENDMDL
MODEL 9
REMARK VINA RESULT:      -7.4      0.951      1.507
REMARK  Name = 
REMARK  10 active torsions:
REMARK  status: ('A' for Active; 'I' for Inactive)
REMARK    1  A    between atoms: C_1  and  C_2
REMARK    2  A    between atoms: C_5  and  C_6
REMARK    3  A    between atoms: C_8  and  C_9
REMARK    4  A    between atoms: N_11  and  C_12
REMARK    5  A    between atoms: C_12  and  C_13
REMARK    6  A    between atoms: C_16  and  C_17
REMARK    7  A    between atoms: N_25  and  C_26
REMARK    8  A    between atoms: C_26  and  C_27
REMARK    9  A    between atoms: C_27  and  C_28
REMARK   10  A    between atoms: C_27  and  C_29
REMARK                            x       y       z     vdW  Elec       q    Type
REMARK                         _______ _______ _______ _____ _____    ______ ____
ROOT
ATOM      1  C   UNL     1       2.305   7.095  19.477  0.00  0.00    +0.000 A 
ATOM      2  C   UNL     1       3.355   7.290  18.547  0.00  0.00    +0.000 A 
ATOM      3  C   UNL     1       3.929   6.224  17.844  0.00  0.00    +0.000 A 
ATOM      4  C   UNL     1       3.460   4.913  18.023  0.00  0.00    +0.000 A 
ATOM      5  C   UNL     1       2.442   4.715  18.965  0.00  0.00    +0.000 A 
ATOM      6  C   UNL     1       1.878   5.764  19.697  0.00  0.00    +0.000 A 
ATOM      7  N   UNL     1       0.918   5.277  20.561  0.00  0.00    +0.000 NA
ATOM      8  C   UNL     1       0.867   3.987  20.352  0.00  0.00    +0.000 A 
ATOM      9  N   UNL     1       1.755   3.598  19.390  0.00  0.00    +0.000 N 
ENDROOT
BRANCH   1  14
ATOM     10  C   UNL     1      -0.375  11.569  21.863  0.00  0.00    +0.000 C 
ATOM     11  C   UNL     1       0.340  10.385  21.297  0.00  0.00    +0.000 A 
ATOM     12  C   UNL     1       0.808   9.361  22.113  0.00  0.00    +0.000 A 
ATOM     13  C   UNL     1       1.465   8.275  21.543  0.00  0.00    +0.000 A 
ATOM     14  C   UNL     1       1.660   8.226  20.160  0.00  0.00    +0.000 A 
ATOM     15  N   UNL     1       1.198   9.219  19.352  0.00  0.00    +0.000 NA
ATOM     16  C   UNL     1       0.564  10.264  19.931  0.00  0.00    +0.000 A 
ENDBRANCH   1  14
BRANCH   3  17
ATOM     17  C   UNL     1       5.009   6.455  16.841  0.00  0.00    +0.000 C 
ATOM     18  O   UNL     1       4.881   7.330  15.988  0.00  0.00    +0.000 OA
ATOM     19  N   UNL     1       6.112   5.635  16.911  0.00  0.00    +0.000 N 
ATOM     20  H   UNL     1       6.146   4.866  17.567  0.00  0.00    +0.000 HD
BRANCH  19  21
ATOM     21  C   UNL     1       7.221   5.771  15.991  0.00  0.00    +0.000 C 
BRANCH  21  22
ATOM     22  C   UNL     1       7.010   5.062  14.676  0.00  0.00    +0.000 A 
ATOM     23  C   UNL     1       6.107   4.009  14.576  0.00  0.00    +0.000 A 
ATOM     24  N   UNL     1       5.977   3.253  13.456  0.00  0.00    +0.000 NA
ATOM     25  C   UNL     1       6.771   3.595  12.416  0.00  0.00    +0.000 A 
ATOM     26  C   UNL     1       6.734   2.735  11.190  0.00  0.00    +0.000 C 
ATOM     27  C   UNL     1       7.631   4.685  12.493  0.00  0.00    +0.000 A 
ATOM     28  N   UNL     1       7.773   5.436  13.614  0.00  0.00    +0.000 NA
ENDBRANCH  21  22
ENDBRANCH  19  21
ENDBRANCH   3  17
BRANCH   9  29
ATOM     29  C   UNL     1       1.847   2.249  18.867  0.00  0.00    +0.000 C 
BRANCH  29  30
ATOM     30  C   UNL     1       3.161   1.524  19.200  0.00  0.00    +0.000 C 
ATOM     31  C   UNL     1       4.095   1.398  17.992  0.00  0.00    +0.000 C 
ATOM     32  C   UNL     1       3.888   2.277  20.317  0.00  0.00    +0.000 C 
ENDBRANCH  29  30
ENDBRANCH   9  29
TORSDOF 6
ENDMDL
