MODEL 1
REMARK VINA RESULT:      -7.9      0.000      0.000
REMARK  Name = 
REMARK  8 active torsions:
REMARK  status: ('A' for Active; 'I' for Inactive)
REMARK    1  A    between atoms: C_1  and  C_2
REMARK    2  A    between atoms: C_2  and  C_3
REMARK    3  A    between atoms: C_2  and  C_4
REMARK    4  A    between atoms: C_2  and  N_5
REMARK    5  A    between atoms: N_5  and  C_6
REMARK    6  A    between atoms: C_10  and  C_11
REMARK    7  A    between atoms: C_11  and  O_13
REMARK    8  A    between atoms: C_18  and  C_19
REMARK                            x       y       z     vdW  Elec       q    Type
REMARK                         _______ _______ _______ _____ _____    ______ ____
ROOT
ATOM      1  C   UNL     1       2.991   6.289  19.551  0.00  0.00    +0.000 A 
ATOM      2  N   UNL     1       2.081   7.020  20.231  0.00  0.00    +0.000 NA
ATOM      3  C   UNL     1       1.673   8.185  19.709  0.00  0.00    +0.000 A 
ATOM      4  C   UNL     1       0.763   8.956  20.422  0.00  0.00    +0.000 A 
ATOM      5  C   UNL     1       0.327  10.195  19.944  0.00  0.00    +0.000 A 
ATOM      6  C   UNL     1       0.800  10.653  18.714  0.00  0.00    +0.000 A 
ATOM      7  C   UNL     1       1.711   9.872  17.991  0.00  0.00    +0.000 A 
ATOM      8  C   UNL     1       2.154   8.639  18.467  0.00  0.00    +0.000 A 
ATOM      9  N   UNL     1       3.028   7.909  17.750  0.00  0.00    +0.000 NA
ATOM     10  C   UNL     1       3.461   6.728  18.290  0.00  0.00    +0.000 A 
ENDROOT
BRANCH  10  11
ATOM     11  C   UNL     1       4.458   6.001  17.453  0.00  0.00    +0.000 A 
ATOM     12  C   UNL     1       4.162   4.797  16.776  0.00  0.00    +0.000 A 
ATOM     13  C   UNL     1       5.098   4.157  15.957  0.00  0.00    +0.000 A 
ATOM     14  C   UNL     1       6.372   4.688  15.836  0.00  0.00    +0.000 A 
ATOM     15  F   UNL     1       7.273   4.070  15.061  0.00  0.00    +0.000 F 
ATOM     16  C   UNL     1       6.724   5.843  16.516  0.00  0.00    +0.000 A 
ATOM     17  C   UNL     1       5.774   6.494  17.313  0.00  0.00    +0.000 A 
ENDBRANCH  10  11
BRANCH   1  18
ATOM     18  N   UNL     1       3.462   5.118  20.137  0.00  0.00    +0.000 N 
ATOM     19  H   UNL     1       4.450   4.992  19.927  0.00  0.00    +0.000 HD
BRANCH  18  21
ATOM     20  C   UNL     1       1.592   3.858  19.132  0.00  0.00    +0.000 C 
ATOM     21  C   UNL     1       2.699   3.863  20.189  0.00  0.00    +0.000 C 
ATOM     22  C   UNL     1       2.146   3.560  21.591  0.00  0.00    +0.000 C 
ATOM     23  C   UNL     1       3.712   2.746  19.853  0.00  0.00    +0.000 C 
ENDBRANCH  18  21
ENDBRANCH   1  18
BRANCH   5  24
ATOM     24  C   UNL     1      -0.670  10.941  20.755  0.00  0.00    +0.000 C 
ATOM     25  O   UNL     1      -1.517  11.659  20.254  0.00  0.00    +0.000 OA
BRANCH  24  26
ATOM     26  O   UNL     1      -0.576  10.731  22.083  0.00  0.00    +0.000 OA
ATOM     27  H   UNL     1      -1.279  10.185  22.478  0.00  0.00    +0.000 HD
ENDBRANCH  24  26
ENDBRANCH   5  24
TORSDOF 5
ENDMDL
MODEL 2
REMARK VINA RESULT:      -7.9      0.945      1.051
REMARK  Name = 
REMARK  8 active torsions:
REMARK  status: ('A' for Active; 'I' for Inactive)
REMARK    1  A    between atoms: C_1  and  C_2
REMARK    2  A    between atoms: C_2  and  C_3
REMARK    3  A    between atoms: C_2  and  C_4
REMARK    4  A    between atoms: C_2  and  N_5
REMARK    5  A    between atoms: N_5  and  C_6
REMARK    6  A    between atoms: C_10  and  C_11
REMARK    7  A    between atoms: C_11  and  O_13
REMARK    8  A    between atoms: C_18  and  C_19
REMARK                            x       y       z     vdW  Elec       q    Type
REMARK                         _______ _______ _______ _____ _____    ______ ____
ROOT
ATOM      1  C   UNL     1       2.807   5.796  19.725  0.00  0.00    +0.000 A 
ATOM      2  N   UNL     1       2.022   6.403  20.641  0.00  0.00    +0.000 NA
ATOM      3  C   UNL     1       1.579   7.641  20.389  0.00  0.00    +0.000 A 
ATOM      4  C   UNL     1       0.801   8.283  21.344  0.00  0.00    +0.000 A 
ATOM      5  C   UNL     1       0.338   9.587  21.150  0.00  0.00    +0.000 A 
ATOM      6  C   UNL     1       0.647  10.248  19.962  0.00  0.00    +0.000 A 
ATOM      7  C   UNL     1       1.425   9.599  18.994  0.00  0.00    +0.000 A 
ATOM      8  C   UNL     1       1.895   8.301  19.186  0.00  0.00    +0.000 A 
ATOM      9  N   UNL     1       2.639   7.701  18.237  0.00  0.00    +0.000 NA
ATOM     10  C   UNL     1       3.109   6.444  18.502  0.00  0.00    +0.000 A 
ENDROOT
BRANCH  10  11
ATOM     11  C   UNL     1       3.958   5.867  17.420  0.00  0.00    +0.000 A 
ATOM     12  C   UNL     1       3.982   4.489  17.113  0.00  0.00    +0.000 A 
ATOM     13  C   UNL     1       4.749   3.976  16.062  0.00  0.00    +0.000 A 
ATOM     14  C   UNL     1       5.549   4.832  15.323  0.00  0.00    +0.000 A 
ATOM     15  F   UNL     1       6.293   4.340  14.323  0.00  0.00    +0.000 F 
ATOM     16  C   UNL     1       5.594   6.186  15.615  0.00  0.00    +0.000 A 
ATOM     17  C   UNL     1       4.802   6.698  16.651  0.00  0.00    +0.000 A 
ENDBRANCH  10  11
BRANCH   1  18
ATOM     18  N   UNL     1       3.322   4.539  20.029  0.00  0.00    +0.000 N 
ATOM     19  H   UNL     1       4.180   4.374  19.508  0.00  0.00    +0.000 HD
BRANCH  18  21
ATOM     20  C   UNL     1       1.217   3.426  19.377  0.00  0.00    +0.000 C 
ATOM     21  C   UNL     1       2.496   3.338  20.213  0.00  0.00    +0.000 C 
ATOM     22  C   UNL     1       2.187   3.047  21.692  0.00  0.00    +0.000 C 
ATOM     23  C   UNL     1       3.350   2.161  19.691  0.00  0.00    +0.000 C 
ENDBRANCH  18  21
ENDBRANCH   1  18
BRANCH   5  24
ATOM     24  C   UNL     1      -0.514  10.186  22.210  0.00  0.00    +0.000 C 
ATOM     25  O   UNL     1      -0.975  11.310  22.123  0.00  0.00    +0.000 OA
BRANCH  24  26
ATOM     26  O   UNL     1      -0.758   9.371  23.256  0.00  0.00    +0.000 OA
ATOM     27  H   UNL     1      -1.145   9.793  24.043  0.00  0.00    +0.000 HD
ENDBRANCH  24  26
ENDBRANCH   5  24
TORSDOF 5
ENDMDL
MODEL 3
REMARK VINA RESULT:      -7.8      0.130      1.438
REMARK  Name = 
REMARK  8 active torsions:
REMARK  status: ('A' for Active; 'I' for Inactive)
REMARK    1  A    between atoms: C_1  and  C_2
REMARK    2  A    between atoms: C_2  and  C_3
REMARK    3  A    between atoms: C_2  and  C_4
REMARK    4  A    between atoms: C_2  and  N_5
REMARK    5  A    between atoms: N_5  and  C_6
REMARK    6  A    between atoms: C_10  and  C_11
REMARK    7  A    between atoms: C_11  and  O_13
REMARK    8  A    between atoms: C_18  and  C_19
REMARK                            x       y       z     vdW  Elec       q    Type
REMARK                         _______ _______ _______ _____ _____    ______ ____
ROOT
ATOM      1  C   UNL     1       2.929   6.296  19.571  0.00  0.00    +0.000 A 
ATOM      2  N   UNL     1       2.025   7.021  20.263  0.00  0.00    +0.000 NA
ATOM      3  C   UNL     1       1.617   8.193  19.758  0.00  0.00    +0.000 A 
ATOM      4  C   UNL     1       0.714   8.959  20.485  0.00  0.00    +0.000 A 
ATOM      5  C   UNL     1       0.279  10.204  20.023  0.00  0.00    +0.000 A 
ATOM      6  C   UNL     1       0.746  10.676  18.797  0.00  0.00    +0.000 A 
ATOM      7  C   UNL     1       1.651   9.901  18.060  0.00  0.00    +0.000 A 
ATOM      8  C   UNL     1       2.094   8.661  18.519  0.00  0.00    +0.000 A 
ATOM      9  N   UNL     1       2.962   7.937  17.788  0.00  0.00    +0.000 NA
ATOM     10  C   UNL     1       3.395   6.749  18.312  0.00  0.00    +0.000 A 
ENDROOT
BRANCH  10  11
ATOM     11  C   UNL     1       4.386   6.029  17.461  0.00  0.00    +0.000 A 
ATOM     12  C   UNL     1       5.686   6.520  17.212  0.00  0.00    +0.000 A 
ATOM     13  C   UNL     1       6.616   5.804  16.451  0.00  0.00    +0.000 A 
ATOM     14  C   UNL     1       6.245   4.597  15.882  0.00  0.00    +0.000 A 
ATOM     15  F   UNL     1       7.130   3.916  15.144  0.00  0.00    +0.000 F 
ATOM     16  C   UNL     1       4.965   4.095  16.062  0.00  0.00    +0.000 A 
ATOM     17  C   UNL     1       4.047   4.803  16.847  0.00  0.00    +0.000 A 
ENDBRANCH  10  11
BRANCH   1  18
ATOM     18  N   UNL     1       3.401   5.116  20.140  0.00  0.00    +0.000 N 
ATOM     19  H   UNL     1       4.394   5.007  19.952  0.00  0.00    +0.000 HD
BRANCH  18  21
ATOM     20  C   UNL     1       3.566   2.680  19.780  0.00  0.00    +0.000 C 
ATOM     21  C   UNL     1       2.652   3.852  20.143  0.00  0.00    +0.000 C 
ATOM     22  C   UNL     1       1.404   3.897  19.245  0.00  0.00    +0.000 C 
ATOM     23  C   UNL     1       2.157   3.666  21.594  0.00  0.00    +0.000 C 
ENDBRANCH  18  21
ENDBRANCH   1  18
BRANCH   5  24
ATOM     24  C   UNL     1      -0.712  10.943  20.848  0.00  0.00    +0.000 C 
ATOM     25  O   UNL     1      -0.772  10.827  22.059  0.00  0.00    +0.000 OA
BRANCH  24  26
ATOM     26  O   UNL     1      -1.512  11.773  20.148  0.00  0.00    +0.000 OA
ATOM     27  H   UNL     1      -1.168  12.069  19.288  0.00  0.00    +0.000 HD
ENDBRANCH  24  26
ENDBRANCH   5  24
TORSDOF 5
ENDMDL
MODEL 4
REMARK VINA RESULT:      -7.8      0.936      1.585
REMARK  Name = 
REMARK  8 active torsions:
REMARK  status: ('A' for Active; 'I' for Inactive)
REMARK    1  A    between atoms: C_1  and  C_2
REMARK    2  A    between atoms: C_2  and  C_3
REMARK    3  A    between atoms: C_2  and  C_4
REMARK    4  A    between atoms: C_2  and  N_5
REMARK    5  A    between atoms: N_5  and  C_6
REMARK    6  A    between atoms: C_10  and  C_11
REMARK    7  A    between atoms: C_11  and  O_13
REMARK    8  A    between atoms: C_18  and  C_19
REMARK                            x       y       z     vdW  Elec       q    Type
REMARK                         _______ _______ _______ _____ _____    ______ ____
ROOT
ATOM      1  C   UNL     1       2.693   5.917  19.846  0.00  0.00    +0.000 A 
ATOM      2  N   UNL     1       1.909   6.544  20.749  0.00  0.00    +0.000 NA
ATOM      3  C   UNL     1       1.471   7.779  20.472  0.00  0.00    +0.000 A 
ATOM      4  C   UNL     1       0.693   8.441  21.414  0.00  0.00    +0.000 A 
ATOM      5  C   UNL     1       0.235   9.743  21.194  0.00  0.00    +0.000 A 
ATOM      6  C   UNL     1       0.548  10.380  19.994  0.00  0.00    +0.000 A 
ATOM      7  C   UNL     1       1.326   9.709  19.040  0.00  0.00    +0.000 A 
ATOM      8  C   UNL     1       1.791   8.413  19.258  0.00  0.00    +0.000 A 
ATOM      9  N   UNL     1       2.534   7.793  18.322  0.00  0.00    +0.000 NA
ATOM     10  C   UNL     1       3.000   6.540  18.612  0.00  0.00    +0.000 A 
ENDROOT
BRANCH  10  11
ATOM     11  C   UNL     1       3.848   5.939  17.542  0.00  0.00    +0.000 A 
ATOM     12  C   UNL     1       4.779   6.687  16.789  0.00  0.00    +0.000 A 
ATOM     13  C   UNL     1       5.600   6.093  15.824  0.00  0.00    +0.000 A 
ATOM     14  C   UNL     1       5.471   4.740  15.560  0.00  0.00    +0.000 A 
ATOM     15  F   UNL     1       6.249   4.172  14.629  0.00  0.00    +0.000 F 
ATOM     16  C   UNL     1       4.541   3.972  16.244  0.00  0.00    +0.000 A 
ATOM     17  C   UNL     1       3.740   4.567  17.227  0.00  0.00    +0.000 A 
ENDBRANCH  10  11
BRANCH   1  18
ATOM     18  N   UNL     1       3.204   4.664  20.176  0.00  0.00    +0.000 N 
ATOM     19  H   UNL     1       4.109   4.525  19.734  0.00  0.00    +0.000 HD
BRANCH  18  21
ATOM     20  C   UNL     1       3.158   2.238  19.718  0.00  0.00    +0.000 C 
ATOM     21  C   UNL     1       2.389   3.445  20.262  0.00  0.00    +0.000 C 
ATOM     22  C   UNL     1       1.017   3.596  19.582  0.00  0.00    +0.000 C 
ATOM     23  C   UNL     1       2.124   3.226  21.768  0.00  0.00    +0.000 C 
ENDBRANCH  18  21
ENDBRANCH   1  18
BRANCH   5  24
ATOM     24  C   UNL     1      -0.616  10.366  22.241  0.00  0.00    +0.000 C 
ATOM     25  O   UNL     1      -1.150  11.450  22.092  0.00  0.00    +0.000 OA
BRANCH  24  26
ATOM     26  O   UNL     1      -0.772   9.616  23.351  0.00  0.00    +0.000 OA
ATOM     27  H   UNL     1      -1.591   9.767  23.854  0.00  0.00    +0.000 HD
ENDBRANCH  24  26
ENDBRANCH   5  24
TORSDOF 5
ENDMDL
MODEL 5
REMARK VINA RESULT:      -7.6      0.794      1.272
REMARK  Name = 
REMARK  8 active torsions:
REMARK  status: ('A' for Active; 'I' for Inactive)
REMARK    1  A    between atoms: C_1  and  C_2
REMARK    2  A    between atoms: C_2  and  C_3
REMARK    3  A    between atoms: C_2  and  C_4
REMARK    4  A    between atoms: C_2  and  N_5
REMARK    5  A    between atoms: N_5  and  C_6
REMARK    6  A    between atoms: C_10  and  C_11
REMARK    7  A    between atoms: C_11  and  O_13
REMARK    8  A    between atoms: C_18  and  C_19
REMARK                            x       y       z     vdW  Elec       q    Type
REMARK                         _______ _______ _______ _____ _____    ______ ____
ROOT
ATOM      1  C   UNL     1       3.152   5.631  19.630  0.00  0.00    +0.000 A 
ATOM      2  N   UNL     1       2.288   6.223  20.482  0.00  0.00    +0.000 NA
ATOM      3  C   UNL     1       1.817   7.440  20.179  0.00  0.00    +0.000 A 
ATOM      4  C   UNL     1       0.956   8.068  21.071  0.00  0.00    +0.000 A 
ATOM      5  C   UNL     1       0.460   9.351  20.823  0.00  0.00    +0.000 A 
ATOM      6  C   UNL     1       0.821  10.003  19.644  0.00  0.00    +0.000 A 
ATOM      7  C   UNL     1       1.684   9.368  18.741  0.00  0.00    +0.000 A 
ATOM      8  C   UNL     1       2.187   8.091  18.987  0.00  0.00    +0.000 A 
ATOM      9  N   UNL     1       3.012   7.504  18.100  0.00  0.00    +0.000 NA
ATOM     10  C   UNL     1       3.509   6.270  18.417  0.00  0.00    +0.000 A 
ENDROOT
BRANCH  10  11
ATOM     11  C   UNL     1       4.447   5.707  17.403  0.00  0.00    +0.000 A 
ATOM     12  C   UNL     1       4.169   4.536  16.666  0.00  0.00    +0.000 A 
ATOM     13  C   UNL     1       5.041   4.053  15.685  0.00  0.00    +0.000 A 
ATOM     14  C   UNL     1       6.238   4.711  15.454  0.00  0.00    +0.000 A 
ATOM     15  F   UNL     1       7.079   4.244  14.523  0.00  0.00    +0.000 F 
ATOM     16  C   UNL     1       6.575   5.840  16.184  0.00  0.00    +0.000 A 
ATOM     17  C   UNL     1       5.685   6.335  17.146  0.00  0.00    +0.000 A 
ENDBRANCH  10  11
BRANCH   1  18
ATOM     18  N   UNL     1       3.691   4.399  19.991  0.00  0.00    +0.000 N 
ATOM     19  H   UNL     1       4.639   4.312  19.634  0.00  0.00    +0.000 HD
BRANCH  18  21
ATOM     20  C   UNL     1       2.485   2.770  21.401  0.00  0.00    +0.000 C 
ATOM     21  C   UNL     1       2.934   3.141  19.985  0.00  0.00    +0.000 C 
ATOM     22  C   UNL     1       3.699   1.988  19.313  0.00  0.00    +0.000 C 
ATOM     23  C   UNL     1       1.681   3.413  19.123  0.00  0.00    +0.000 C 
ENDBRANCH  18  21
ENDBRANCH   1  18
BRANCH   5  24
ATOM     24  C   UNL     1      -0.480   9.935  21.814  0.00  0.00    +0.000 C 
ATOM     25  O   UNL     1      -0.988  11.033  21.668  0.00  0.00    +0.000 OA
BRANCH  24  26
ATOM     26  O   UNL     1      -0.746   9.137  22.868  0.00  0.00    +0.000 OA
ATOM     27  H   UNL     1      -1.165   8.284  22.660  0.00  0.00    +0.000 HD
ENDBRANCH  24  26
ENDBRANCH   5  24
TORSDOF 5
ENDMDL
MODEL 6
REMARK VINA RESULT:      -7.6      0.675      1.431
REMARK  Name = 
REMARK  8 active torsions:
REMARK  status: ('A' for Active; 'I' for Inactive)
REMARK    1  A    between atoms: C_1  and  C_2
REMARK    2  A    between atoms: C_2  and  C_3
REMARK    3  A    between atoms: C_2  and  C_4
REMARK    4  A    between atoms: C_2  and  N_5
REMARK    5  A    between atoms: N_5  and  C_6
REMARK    6  A    between atoms: C_10  and  C_11
REMARK    7  A    between atoms: C_11  and  O_13
REMARK    8  A    between atoms: C_18  and  C_19
REMARK                            x       y       z     vdW  Elec       q    Type
REMARK                         _______ _______ _______ _____ _____    ______ ____
ROOT
ATOM      1  C   UNL     1       2.912   5.987  19.547  0.00  0.00    +0.000 A 
ATOM      2  N   UNL     1       2.136   6.710  20.384  0.00  0.00    +0.000 NA
ATOM      3  C   UNL     1       1.740   7.930  20.000  0.00  0.00    +0.000 A 
ATOM      4  C   UNL     1       0.971   8.690  20.873  0.00  0.00    +0.000 A 
ATOM      5  C   UNL     1       0.556   9.983  20.539  0.00  0.00    +0.000 A 
ATOM      6  C   UNL     1       0.903  10.509  19.295  0.00  0.00    +0.000 A 
ATOM      7  C   UNL     1       1.671   9.739  18.412  0.00  0.00    +0.000 A 
ATOM      8  C   UNL     1       2.094   8.452  18.742  0.00  0.00    +0.000 A 
ATOM      9  N   UNL     1       2.829   7.735  17.872  0.00  0.00    +0.000 NA
ATOM     10  C   UNL     1       3.252   6.497  18.270  0.00  0.00    +0.000 A 
ENDROOT
BRANCH  10  11
ATOM     11  C   UNL     1       4.096   5.785  17.267  0.00  0.00    +0.000 A 
ATOM     12  C   UNL     1       5.063   6.439  16.473  0.00  0.00    +0.000 A 
ATOM     13  C   UNL     1       5.877   5.743  15.573  0.00  0.00    +0.000 A 
ATOM     14  C   UNL     1       5.705   4.378  15.414  0.00  0.00    +0.000 A 
ATOM     15  F   UNL     1       6.476   3.713  14.545  0.00  0.00    +0.000 F 
ATOM     16  C   UNL     1       4.737   3.699  16.139  0.00  0.00    +0.000 A 
ATOM     17  C   UNL     1       3.944   4.396  17.058  0.00  0.00    +0.000 A 
ENDBRANCH  10  11
BRANCH   1  18
ATOM     18  N   UNL     1       3.380   4.751  19.986  0.00  0.00    +0.000 N 
ATOM     19  H   UNL     1       4.251   4.517  19.517  0.00  0.00    +0.000 HD
BRANCH  18  21
ATOM     20  C   UNL     1       2.149   3.513  21.732  0.00  0.00    +0.000 C 
ATOM     21  C   UNL     1       2.513   3.594  20.248  0.00  0.00    +0.000 C 
ATOM     22  C   UNL     1       3.114   2.273  19.738  0.00  0.00    +0.000 C 
ATOM     23  C   UNL     1       1.225   3.846  19.433  0.00  0.00    +0.000 C 
ENDBRANCH  18  21
ENDBRANCH   1  18
BRANCH   5  24
ATOM     24  C   UNL     1      -0.289  10.715  21.519  0.00  0.00    +0.000 C 
ATOM     25  O   UNL     1      -1.269  11.357  21.187  0.00  0.00    +0.000 OA
BRANCH  24  26
ATOM     26  O   UNL     1       0.103  10.581  22.802  0.00  0.00    +0.000 OA
ATOM     27  H   UNL     1      -0.611  10.492  23.457  0.00  0.00    +0.000 HD
ENDBRANCH  24  26
ENDBRANCH   5  24
TORSDOF 5
ENDMDL
MODEL 7
REMARK VINA RESULT:      -7.1      0.636      1.144
REMARK  Name = 
REMARK  8 active torsions:
REMARK  status: ('A' for Active; 'I' for Inactive)
REMARK    1  A    between atoms: C_1  and  C_2
REMARK    2  A    between atoms: C_2  and  C_3
REMARK    3  A    between atoms: C_2  and  C_4
REMARK    4  A    between atoms: C_2  and  N_5
REMARK    5  A    between atoms: N_5  and  C_6
REMARK    6  A    between atoms: C_10  and  C_11
REMARK    7  A    between atoms: C_11  and  O_13
REMARK    8  A    between atoms: C_18  and  C_19
REMARK                            x       y       z     vdW  Elec       q    Type
REMARK                         _______ _______ _______ _____ _____    ______ ____
ROOT
ATOM      1  C   UNL     1       2.909   6.400  19.559  0.00  0.00    +0.000 A 
ATOM      2  N   UNL     1       1.935   7.112  20.165  0.00  0.00    +0.000 NA
ATOM      3  C   UNL     1       1.597   8.304  19.653  0.00  0.00    +0.000 A 
ATOM      4  C   UNL     1       0.620   9.055  20.294  0.00  0.00    +0.000 A 
ATOM      5  C   UNL     1       0.249  10.319  19.825  0.00  0.00    +0.000 A 
ATOM      6  C   UNL     1       0.860  10.824  18.677  0.00  0.00    +0.000 A 
ATOM      7  C   UNL     1       1.839  10.062  18.026  0.00  0.00    +0.000 A 
ATOM      8  C   UNL     1       2.217   8.804  18.493  0.00  0.00    +0.000 A 
ATOM      9  N   UNL     1       3.160   8.095  17.846  0.00  0.00    +0.000 NA
ATOM     10  C   UNL     1       3.521   6.887  18.378  0.00  0.00    +0.000 A 
ENDROOT
BRANCH  10  11
ATOM     11  C   UNL     1       4.599   6.183  17.626  0.00  0.00    +0.000 A 
ATOM     12  C   UNL     1       5.618   5.439  18.259  0.00  0.00    +0.000 A 
ATOM     13  C   UNL     1       6.592   4.747  17.532  0.00  0.00    +0.000 A 
ATOM     14  C   UNL     1       6.592   4.824  16.149  0.00  0.00    +0.000 A 
ATOM     15  F   UNL     1       7.531   4.171  15.452  0.00  0.00    +0.000 F 
ATOM     16  C   UNL     1       5.638   5.579  15.484  0.00  0.00    +0.000 A 
ATOM     17  C   UNL     1       4.650   6.248  16.216  0.00  0.00    +0.000 A 
ENDBRANCH  10  11
BRANCH   1  18
ATOM     18  N   UNL     1       3.303   5.198  20.141  0.00  0.00    +0.000 N 
ATOM     19  H   UNL     1       4.316   5.109  20.114  0.00  0.00    +0.000 HD
BRANCH  18  21
ATOM     20  C   UNL     1       1.606   3.690  21.111  0.00  0.00    +0.000 C 
ATOM     21  C   UNL     1       2.588   3.928  19.961  0.00  0.00    +0.000 C 
ATOM     22  C   UNL     1       3.536   2.732  19.769  0.00  0.00    +0.000 C 
ATOM     23  C   UNL     1       1.788   4.083  18.649  0.00  0.00    +0.000 C 
ENDBRANCH  18  21
ENDBRANCH   1  18
BRANCH   5  24
ATOM     24  C   UNL     1      -0.826  11.042  20.553  0.00  0.00    +0.000 C 
ATOM     25  O   UNL     1      -1.712  11.649  19.978  0.00  0.00    +0.000 OA
BRANCH  24  26
ATOM     26  O   UNL     1      -0.755  10.942  21.895  0.00  0.00    +0.000 OA
ATOM     27  H   UNL     1      -1.196  10.168  22.288  0.00  0.00    +0.000 HD
ENDBRANCH  24  26
ENDBRANCH   5  24
TORSDOF 5
ENDMDL
MODEL 8
REMARK VINA RESULT:      -7.0      1.319      1.822
REMARK  Name = 
REMARK  8 active torsions:
REMARK  status: ('A' for Active; 'I' for Inactive)
REMARK    1  A    between atoms: C_1  and  C_2
REMARK    2  A    between atoms: C_2  and  C_3
REMARK    3  A    between atoms: C_2  and  C_4
REMARK    4  A    between atoms: C_2  and  N_5
REMARK    5  A    between atoms: N_5  and  C_6
REMARK    6  A    between atoms: C_10  and  C_11
REMARK    7  A    between atoms: C_11  and  O_13
REMARK    8  A    between atoms: C_18  and  C_19
REMARK                            x       y       z     vdW  Elec       q    Type
REMARK                         _______ _______ _______ _____ _____    ______ ____
ROOT
ATOM      1  C   UNL     1       3.672   5.132  19.111  0.00  0.00    +0.000 A 
ATOM      2  N   UNL     1       2.912   5.722  20.059  0.00  0.00    +0.000 NA
ATOM      3  C   UNL     1       2.350   6.907  19.787  0.00  0.00    +0.000 A 
ATOM      4  C   UNL     1       1.597   7.534  20.772  0.00  0.00    +0.000 A 
ATOM      5  C   UNL     1       1.014   8.786  20.556  0.00  0.00    +0.000 A 
ATOM      6  C   UNL     1       1.175   9.406  19.317  0.00  0.00    +0.000 A 
ATOM      7  C   UNL     1       1.927   8.770  18.320  0.00  0.00    +0.000 A 
ATOM      8  C   UNL     1       2.517   7.525  18.533  0.00  0.00    +0.000 A 
ATOM      9  N   UNL     1       3.233   6.937  17.556  0.00  0.00    +0.000 NA
ATOM     10  C   UNL     1       3.824   5.736  17.840  0.00  0.00    +0.000 A 
ENDROOT
BRANCH  10  11
ATOM     11  C   UNL     1       4.633   5.172  16.720  0.00  0.00    +0.000 A 
ATOM     12  C   UNL     1       5.460   5.964  15.894  0.00  0.00    +0.000 A 
ATOM     13  C   UNL     1       6.247   5.407  14.881  0.00  0.00    +0.000 A 
ATOM     14  C   UNL     1       6.186   4.044  14.643  0.00  0.00    +0.000 A 
ATOM     15  F   UNL     1       6.931   3.511  13.666  0.00  0.00    +0.000 F 
ATOM     16  C   UNL     1       5.355   3.231  15.399  0.00  0.00    +0.000 A 
ATOM     17  C   UNL     1       4.590   3.791  16.430  0.00  0.00    +0.000 A 
ENDBRANCH  10  11
BRANCH   1  18
ATOM     18  N   UNL     1       4.312   3.937  19.431  0.00  0.00    +0.000 N 
ATOM     19  H   UNL     1       5.042   3.736  18.753  0.00  0.00    +0.000 HD
BRANCH  18  21
ATOM     20  C   UNL     1       2.780   2.100  18.819  0.00  0.00    +0.000 C 
ATOM     21  C   UNL     1       3.615   2.743  19.929  0.00  0.00    +0.000 C 
ATOM     22  C   UNL     1       2.770   3.026  21.183  0.00  0.00    +0.000 C 
ATOM     23  C   UNL     1       4.728   1.757  20.348  0.00  0.00    +0.000 C 
ENDBRANCH  18  21
ENDBRANCH   1  18
BRANCH   5  24
ATOM     24  C   UNL     1       0.199   9.371  21.652  0.00  0.00    +0.000 C 
ATOM     25  O   UNL     1      -0.669   8.742  22.230  0.00  0.00    +0.000 OA
BRANCH  24  26
ATOM     26  O   UNL     1       0.524  10.640  21.971  0.00  0.00    +0.000 OA
ATOM     27  H   UNL     1       0.294  11.317  21.310  0.00  0.00    +0.000 HD
ENDBRANCH  24  26
ENDBRANCH   5  24
TORSDOF 5
ENDMDL
MODEL 9
REMARK VINA RESULT:      -6.9      1.273      2.122
REMARK  Name = 
REMARK  8 active torsions:
REMARK  status: ('A' for Active; 'I' for Inactive)
REMARK    1  A    between atoms: C_1  and  C_2
REMARK    2  A    between atoms: C_2  and  C_3
REMARK    3  A    between atoms: C_2  and  C_4
REMARK    4  A    between atoms: C_2  and  N_5
REMARK    5  A    between atoms: N_5  and  C_6
REMARK    6  A    between atoms: C_10  and  C_11
REMARK    7  A    between atoms: C_11  and  O_13
REMARK    8  A    between atoms: C_18  and  C_19
REMARK                            x       y       z     vdW  Elec       q    Type
REMARK                         _______ _______ _______ _____ _____    ______ ____
ROOT
ATOM      1  C   UNL     1       3.879   5.205  19.072  0.00  0.00    +0.000 A 
ATOM      2  N   UNL     1       3.067   5.724  20.018  0.00  0.00    +0.000 NA
ATOM      3  C   UNL     1       2.466   6.896  19.777  0.00  0.00    +0.000 A 
ATOM      4  C   UNL     1       1.658   7.450  20.763  0.00  0.00    +0.000 A 
ATOM      5  C   UNL     1       1.031   8.686  20.581  0.00  0.00    +0.000 A 
ATOM      6  C   UNL     1       1.204   9.364  19.375  0.00  0.00    +0.000 A 
ATOM      7  C   UNL     1       2.012   8.802  18.377  0.00  0.00    +0.000 A 
ATOM      8  C   UNL     1       2.645   7.573  18.557  0.00  0.00    +0.000 A 
ATOM      9  N   UNL     1       3.414   7.057  17.580  0.00  0.00    +0.000 NA
ATOM     10  C   UNL     1       4.046   5.870  17.832  0.00  0.00    +0.000 A 
ENDROOT
BRANCH  10  11
ATOM     11  C   UNL     1       4.911   5.387  16.717  0.00  0.00    +0.000 A 
ATOM     12  C   UNL     1       6.239   5.827  16.528  0.00  0.00    +0.000 A 
ATOM     13  C   UNL     1       7.048   5.324  15.504  0.00  0.00    +0.000 A 
ATOM     14  C   UNL     1       6.525   4.400  14.615  0.00  0.00    +0.000 A 
ATOM     15  F   UNL     1       7.296   3.925  13.627  0.00  0.00    +0.000 F 
ATOM     16  C   UNL     1       5.213   3.970  14.733  0.00  0.00    +0.000 A 
ATOM     17  C   UNL     1       4.416   4.456  15.777  0.00  0.00    +0.000 A 
ENDBRANCH  10  11
BRANCH   1  18
ATOM     18  N   UNL     1       4.557   4.024  19.362  0.00  0.00    +0.000 N 
ATOM     19  H   UNL     1       5.433   3.985  18.846  0.00  0.00    +0.000 HD
BRANCH  18  21
ATOM     20  C   UNL     1       4.734   1.795  20.407  0.00  0.00    +0.000 C 
ATOM     21  C   UNL     1       3.899   2.720  19.519  0.00  0.00    +0.000 C 
ATOM     22  C   UNL     1       3.558   2.059  18.173  0.00  0.00    +0.000 C 
ATOM     23  C   UNL     1       2.559   3.014  20.229  0.00  0.00    +0.000 C 
ENDBRANCH  18  21
ENDBRANCH   1  18
BRANCH   5  24
ATOM     24  C   UNL     1       0.160   9.190  21.674  0.00  0.00    +0.000 C 
ATOM     25  O   UNL     1       0.340  10.269  22.210  0.00  0.00    +0.000 OA
BRANCH  24  26
ATOM     26  O   UNL     1      -0.861   8.370  21.996  0.00  0.00    +0.000 OA
ATOM     27  H   UNL     1      -0.901   7.529  21.509  0.00  0.00    +0.000 HD
ENDBRANCH  24  26
ENDBRANCH   5  24
TORSDOF 5
ENDMDL
