MODEL 1
REMARK VINA RESULT:      -6.1      0.000      0.000
REMARK  Name = 
REMARK  14 active torsions:
REMARK  status: ('A' for Active; 'I' for Inactive)
REMARK    1  A    between atoms: C_1  and  O_2
REMARK    2  A    between atoms: O_2  and  C_3
REMARK    3  A    between atoms: C_5  and  C_6
REMARK    4  A    between atoms: C_11  and  C_12
REMARK    5  A    between atoms: C_14  and  O_15
REMARK    6  A    between atoms: O_15  and  C_16
REMARK    7  A    between atoms: C_17  and  O_18
REMARK    8  A    between atoms: O_18  and  C_19
REMARK    9  A    between atoms: C_20  and  O_21
REMARK   10  A    between atoms: O_21  and  C_22
REMARK   11  A    between atoms: C_25  and  O_26
REMARK   12  A    between atoms: O_26  and  C_27
REMARK   13  A    between atoms: C_28  and  O_29
REMARK   14  A    between atoms: O_29  and  C_30
REMARK                            x       y       z     vdW  Elec       q    Type
REMARK                         _______ _______ _______ _____ _____    ______ ____
ROOT
ATOM      1  C   UNL     1      -2.815  10.902  16.889  0.00  0.00    +0.000 A 
ATOM      2  N   UNL     1      -2.332  10.584  15.637  0.00  0.00    +0.000 NA
ATOM      3  C   UNL     1      -3.390  10.426  14.891  0.00  0.00    +0.000 A 
ATOM      4  N   UNL     1      -3.424  10.119  13.584  0.00  0.00    +0.000 N 
ATOM      5  N   UNL     1      -4.537  10.650  15.588  0.00  0.00    +0.000 N 
ATOM      6  C   UNL     1      -4.206  10.996  16.879  0.00  0.00    +0.000 A 
ATOM      7  H   UNL     1      -2.538   9.822  13.186  0.00  0.00    +0.000 HD
ATOM      8  H   UNL     1      -4.218   9.632  13.186  0.00  0.00    +0.000 HD
ATOM      9  H   UNL     1      -5.464  10.635  15.193  0.00  0.00    +0.000 HD
ENDROOT
BRANCH   1  12
ATOM     10  C   UNL     1      -1.160  12.910  19.589  0.00  0.00    +0.000 A 
ATOM     11  C   UNL     1      -1.735  12.561  18.353  0.00  0.00    +0.000 A 
ATOM     12  C   UNL     1      -1.933  11.226  18.006  0.00  0.00    +0.000 A 
ATOM     13  C   UNL     1      -1.396  10.240  18.833  0.00  0.00    +0.000 A 
ATOM     14  C   UNL     1      -0.796  10.560  20.061  0.00  0.00    +0.000 A 
ATOM     15  C   UNL     1      -0.665  11.909  20.456  0.00  0.00    +0.000 A 
BRANCH  10  17
ATOM     16  C   UNL     1      -0.298  15.076  19.138  0.00  0.00    +0.000 C 
ATOM     17  O   UNL     1      -1.093  14.229  19.969  0.00  0.00    +0.000 OA
ENDBRANCH  10  17
BRANCH  14  18
ATOM     18  O   UNL     1      -0.475   9.421  20.760  0.00  0.00    +0.000 OA
ATOM     19  C   UNL     1       0.851   8.918  20.726  0.00  0.00    +0.000 C 
ENDBRANCH  14  18
BRANCH  15  20
ATOM     20  O   UNL     1      -0.089  12.110  21.679  0.00  0.00    +0.000 OA
ATOM     21  C   UNL     1      -0.867  12.284  22.848  0.00  0.00    +0.000 C 
ENDBRANCH  15  20
ENDBRANCH   1  12
BRANCH   6  22
ATOM     22  C   UNL     1      -5.205  11.379  17.882  0.00  0.00    +0.000 A 
ATOM     23  C   UNL     1      -5.953  10.410  18.554  0.00  0.00    +0.000 A 
ATOM     24  C   UNL     1      -6.828  10.766  19.589  0.00  0.00    +0.000 A 
ATOM     25  C   UNL     1      -6.947  12.120  19.984  0.00  0.00    +0.000 A 
ATOM     26  C   UNL     1      -6.233  13.106  19.281  0.00  0.00    +0.000 A 
ATOM     27  C   UNL     1      -5.402  12.720  18.223  0.00  0.00    +0.000 A 
BRANCH  24  28
ATOM     28  O   UNL     1      -7.602   9.849  20.263  0.00  0.00    +0.000 OA
ATOM     29  C   UNL     1      -7.208   8.487  20.162  0.00  0.00    +0.000 C 
ENDBRANCH  24  28
BRANCH  25  30
ATOM     30  O   UNL     1      -7.844  12.359  21.000  0.00  0.00    +0.000 OA
ATOM     31  C   UNL     1      -7.306  12.531  22.307  0.00  0.00    +0.000 C 
ENDBRANCH  25  30
BRANCH  26  32
ATOM     32  O   UNL     1      -6.351  14.411  19.687  0.00  0.00    +0.000 OA
ATOM     33  C   UNL     1      -7.265  15.244  18.985  0.00  0.00    +0.000 C 
ENDBRANCH  26  32
ENDBRANCH   6  22
TORSDOF 8
ENDMDL
MODEL 2
REMARK VINA RESULT:      -6.1      3.071      5.245
REMARK  Name = 
REMARK  14 active torsions:
REMARK  status: ('A' for Active; 'I' for Inactive)
REMARK    1  A    between atoms: C_1  and  O_2
REMARK    2  A    between atoms: O_2  and  C_3
REMARK    3  A    between atoms: C_5  and  C_6
REMARK    4  A    between atoms: C_11  and  C_12
REMARK    5  A    between atoms: C_14  and  O_15
REMARK    6  A    between atoms: O_15  and  C_16
REMARK    7  A    between atoms: C_17  and  O_18
REMARK    8  A    between atoms: O_18  and  C_19
REMARK    9  A    between atoms: C_20  and  O_21
REMARK   10  A    between atoms: O_21  and  C_22
REMARK   11  A    between atoms: C_25  and  O_26
REMARK   12  A    between atoms: O_26  and  C_27
REMARK   13  A    between atoms: C_28  and  O_29
REMARK   14  A    between atoms: O_29  and  C_30
REMARK                            x       y       z     vdW  Elec       q    Type
REMARK                         _______ _______ _______ _____ _____    ______ ____
ROOT
ATOM      1  C   UNL     1       0.811  11.884  18.893  0.00  0.00    +0.000 A 
ATOM      2  N   UNL     1       1.865  12.771  18.966  0.00  0.00    +0.000 NA
ATOM      3  C   UNL     1       1.362  13.928  18.633  0.00  0.00    +0.000 A 
ATOM      4  N   UNL     1       2.005  15.105  18.571  0.00  0.00    +0.000 N 
ATOM      5  N   UNL     1       0.030  13.843  18.372  0.00  0.00    +0.000 N 
ATOM      6  C   UNL     1      -0.374  12.541  18.565  0.00  0.00    +0.000 A 
ATOM      7  H   UNL     1       3.018  15.049  18.631  0.00  0.00    +0.000 HD
ATOM      8  H   UNL     1       1.687  15.837  17.947  0.00  0.00    +0.000 HD
ATOM      9  H   UNL     1      -0.566  14.626  18.150  0.00  0.00    +0.000 HD
ENDROOT
BRANCH   1  12
ATOM     10  C   UNL     1       1.827   8.280  18.684  0.00  0.00    +0.000 A 
ATOM     11  C   UNL     1       1.383   9.562  18.309  0.00  0.00    +0.000 A 
ATOM     12  C   UNL     1       0.949  10.478  19.263  0.00  0.00    +0.000 A 
ATOM     13  C   UNL     1       0.802  10.044  20.580  0.00  0.00    +0.000 A 
ATOM     14  C   UNL     1       1.215   8.763  20.980  0.00  0.00    +0.000 A 
ATOM     15  C   UNL     1       1.732   7.857  20.029  0.00  0.00    +0.000 A 
BRANCH  10  17
ATOM     16  C   UNL     1       3.795   7.492  17.617  0.00  0.00    +0.000 C 
ATOM     17  O   UNL     1       2.374   7.439  17.746  0.00  0.00    +0.000 OA
ENDBRANCH  10  17
BRANCH  14  18
ATOM     18  O   UNL     1       1.106   8.617  22.342  0.00  0.00    +0.000 OA
ATOM     19  C   UNL     1       0.206   9.435  23.073  0.00  0.00    +0.000 C 
ENDBRANCH  14  18
BRANCH  15  20
ATOM     20  O   UNL     1       2.127   6.646  20.527  0.00  0.00    +0.000 OA
ATOM     21  C   UNL     1       1.277   5.515  20.493  0.00  0.00    +0.000 C 
ENDBRANCH  15  20
ENDBRANCH   1  12
BRANCH   6  22
ATOM     22  C   UNL     1      -1.771  12.113  18.443  0.00  0.00    +0.000 A 
ATOM     23  C   UNL     1      -2.680  12.330  19.481  0.00  0.00    +0.000 A 
ATOM     24  C   UNL     1      -4.038  12.022  19.325  0.00  0.00    +0.000 A 
ATOM     25  C   UNL     1      -4.511  11.504  18.097  0.00  0.00    +0.000 A 
ATOM     26  C   UNL     1      -3.596  11.238  17.064  0.00  0.00    +0.000 A 
ATOM     27  C   UNL     1      -2.240  11.517  17.269  0.00  0.00    +0.000 A 
BRANCH  24  28
ATOM     28  O   UNL     1      -4.965  12.197  20.327  0.00  0.00    +0.000 OA
ATOM     29  C   UNL     1      -4.516  12.865  21.499  0.00  0.00    +0.000 C 
ENDBRANCH  24  28
BRANCH  25  30
ATOM     30  O   UNL     1      -5.859  11.224  18.057  0.00  0.00    +0.000 OA
ATOM     31  C   UNL     1      -6.705  12.208  17.471  0.00  0.00    +0.000 C 
ENDBRANCH  25  30
BRANCH  26  32
ATOM     32  O   UNL     1      -4.075  10.749  15.875  0.00  0.00    +0.000 OA
ATOM     33  C   UNL     1      -3.131  10.272  14.925  0.00  0.00    +0.000 C 
ENDBRANCH  26  32
ENDBRANCH   6  22
TORSDOF 8
ENDMDL
MODEL 3
REMARK VINA RESULT:      -6.1      1.549      6.143
REMARK  Name = 
REMARK  14 active torsions:
REMARK  status: ('A' for Active; 'I' for Inactive)
REMARK    1  A    between atoms: C_1  and  O_2
REMARK    2  A    between atoms: O_2  and  C_3
REMARK    3  A    between atoms: C_5  and  C_6
REMARK    4  A    between atoms: C_11  and  C_12
REMARK    5  A    between atoms: C_14  and  O_15
REMARK    6  A    between atoms: O_15  and  C_16
REMARK    7  A    between atoms: C_17  and  O_18
REMARK    8  A    between atoms: O_18  and  C_19
REMARK    9  A    between atoms: C_20  and  O_21
REMARK   10  A    between atoms: O_21  and  C_22
REMARK   11  A    between atoms: C_25  and  O_26
REMARK   12  A    between atoms: O_26  and  C_27
REMARK   13  A    between atoms: C_28  and  O_29
REMARK   14  A    between atoms: O_29  and  C_30
REMARK                            x       y       z     vdW  Elec       q    Type
REMARK                         _______ _______ _______ _____ _____    ______ ____
ROOT
ATOM      1  C   UNL     1      -3.931  11.502  17.619  0.00  0.00    +0.000 A 
ATOM      2  N   UNL     1      -4.408  10.969  16.439  0.00  0.00    +0.000 NA
ATOM      3  C   UNL     1      -3.352  10.777  15.698  0.00  0.00    +0.000 A 
ATOM      4  N   UNL     1      -3.313  10.262  14.459  0.00  0.00    +0.000 N 
ATOM      5  N   UNL     1      -2.209  11.134  16.344  0.00  0.00    +0.000 N 
ATOM      6  C   UNL     1      -2.538  11.575  17.607  0.00  0.00    +0.000 A 
ATOM      7  H   UNL     1      -4.214  10.168  14.000  0.00  0.00    +0.000 HD
ATOM      8  H   UNL     1      -2.568  10.508  13.818  0.00  0.00    +0.000 HD
ATOM      9  H   UNL     1      -1.278  11.018  15.977  0.00  0.00    +0.000 HD
ENDROOT
BRANCH   1  12
ATOM     10  C   UNL     1      -6.635  11.056  20.178  0.00  0.00    +0.000 A 
ATOM     11  C   UNL     1      -5.943  11.021  18.953  0.00  0.00    +0.000 A 
ATOM     12  C   UNL     1      -4.804  11.796  18.751  0.00  0.00    +0.000 A 
ATOM     13  C   UNL     1      -4.460  12.734  19.723  0.00  0.00    +0.000 A 
ATOM     14  C   UNL     1      -5.146  12.808  20.946  0.00  0.00    +0.000 A 
ATOM     15  C   UNL     1      -6.253  11.967  21.189  0.00  0.00    +0.000 A 
BRANCH  10  17
ATOM     16  C   UNL     1      -7.411   8.813  20.129  0.00  0.00    +0.000 C 
ATOM     17  O   UNL     1      -7.676  10.189  20.406  0.00  0.00    +0.000 OA
ENDBRANCH  10  17
BRANCH  14  18
ATOM     18  O   UNL     1      -4.539  13.703  21.794  0.00  0.00    +0.000 OA
ATOM     19  C   UNL     1      -4.824  15.089  21.686  0.00  0.00    +0.000 C 
ENDBRANCH  14  18
BRANCH  15  20
ATOM     20  O   UNL     1      -6.834  12.102  22.419  0.00  0.00    +0.000 OA
ATOM     21  C   UNL     1      -7.917  12.987  22.637  0.00  0.00    +0.000 C 
ENDBRANCH  15  20
ENDBRANCH   1  12
BRANCH   6  22
ATOM     22  C   UNL     1      -1.534  11.967  18.601  0.00  0.00    +0.000 A 
ATOM     23  C   UNL     1      -0.903  11.008  19.398  0.00  0.00    +0.000 A 
ATOM     24  C   UNL     1       0.133  11.366  20.270  0.00  0.00    +0.000 A 
ATOM     25  C   UNL     1       0.571  12.711  20.338  0.00  0.00    +0.000 A 
ATOM     26  C   UNL     1      -0.091  13.689  19.576  0.00  0.00    +0.000 A 
ATOM     27  C   UNL     1      -1.151  13.303  18.747  0.00  0.00    +0.000 A 
BRANCH  24  28
ATOM     28  O   UNL     1       0.768  10.462  21.090  0.00  0.00    +0.000 OA
ATOM     29  C   UNL     1       0.274   9.129  21.069  0.00  0.00    +0.000 C 
ENDBRANCH  24  28
BRANCH  25  30
ATOM     30  O   UNL     1       1.585  12.954  21.236  0.00  0.00    +0.000 OA
ATOM     31  C   UNL     1       2.809  13.455  20.708  0.00  0.00    +0.000 C 
ENDBRANCH  25  30
BRANCH  26  32
ATOM     32  O   UNL     1       0.356  14.983  19.644  0.00  0.00    +0.000 OA
ATOM     33  C   UNL     1      -0.207  15.928  18.741  0.00  0.00    +0.000 C 
ENDBRANCH  26  32
ENDBRANCH   6  22
TORSDOF 8
ENDMDL
MODEL 4
REMARK VINA RESULT:      -5.9      3.142      5.261
REMARK  Name = 
REMARK  14 active torsions:
REMARK  status: ('A' for Active; 'I' for Inactive)
REMARK    1  A    between atoms: C_1  and  O_2
REMARK    2  A    between atoms: O_2  and  C_3
REMARK    3  A    between atoms: C_5  and  C_6
REMARK    4  A    between atoms: C_11  and  C_12
REMARK    5  A    between atoms: C_14  and  O_15
REMARK    6  A    between atoms: O_15  and  C_16
REMARK    7  A    between atoms: C_17  and  O_18
REMARK    8  A    between atoms: O_18  and  C_19
REMARK    9  A    between atoms: C_20  and  O_21
REMARK   10  A    between atoms: O_21  and  C_22
REMARK   11  A    between atoms: C_25  and  O_26
REMARK   12  A    between atoms: O_26  and  C_27
REMARK   13  A    between atoms: C_28  and  O_29
REMARK   14  A    between atoms: O_29  and  C_30
REMARK                            x       y       z     vdW  Elec       q    Type
REMARK                         _______ _______ _______ _____ _____    ______ ____
ROOT
ATOM      1  C   UNL     1       1.068  11.899  18.892  0.00  0.00    +0.000 A 
ATOM      2  N   UNL     1       2.181  12.713  18.939  0.00  0.00    +0.000 NA
ATOM      3  C   UNL     1       1.754  13.898  18.598  0.00  0.00    +0.000 A 
ATOM      4  N   UNL     1       2.475  15.026  18.511  0.00  0.00    +0.000 N 
ATOM      5  N   UNL     1       0.415  13.902  18.356  0.00  0.00    +0.000 N 
ATOM      6  C   UNL     1      -0.074  12.632  18.570  0.00  0.00    +0.000 A 
ATOM      7  H   UNL     1       3.482  14.902  18.558  0.00  0.00    +0.000 HD
ATOM      8  H   UNL     1       2.200  15.771  17.883  0.00  0.00    +0.000 HD
ATOM      9  H   UNL     1      -0.128  14.720  18.132  0.00  0.00    +0.000 HD
ENDROOT
BRANCH   1  12
ATOM     10  C   UNL     1       1.885   8.242  18.747  0.00  0.00    +0.000 A 
ATOM     11  C   UNL     1       1.527   9.543  18.346  0.00  0.00    +0.000 A 
ATOM     12  C   UNL     1       1.114  10.492  19.277  0.00  0.00    +0.000 A 
ATOM     13  C   UNL     1       0.900  10.080  20.592  0.00  0.00    +0.000 A 
ATOM     14  C   UNL     1       1.227   8.782  21.017  0.00  0.00    +0.000 A 
ATOM     15  C   UNL     1       1.723   7.839  20.091  0.00  0.00    +0.000 A 
BRANCH  10  17
ATOM     16  C   UNL     1       3.837   7.386  17.700  0.00  0.00    +0.000 C 
ATOM     17  O   UNL     1       2.415   7.362  17.834  0.00  0.00    +0.000 OA
ENDBRANCH  10  17
BRANCH  14  18
ATOM     18  O   UNL     1       1.065   8.657  22.375  0.00  0.00    +0.000 OA
ATOM     19  C   UNL     1       0.120   9.468  23.055  0.00  0.00    +0.000 C 
ENDBRANCH  14  18
BRANCH  15  20
ATOM     20  O   UNL     1       2.033   6.613  20.612  0.00  0.00    +0.000 OA
ATOM     21  C   UNL     1       1.207   5.484  20.399  0.00  0.00    +0.000 C 
ENDBRANCH  15  20
ENDBRANCH   1  12
BRANCH   6  22
ATOM     22  C   UNL     1      -1.499  12.300  18.473  0.00  0.00    +0.000 A 
ATOM     23  C   UNL     1      -1.998  11.603  17.369  0.00  0.00    +0.000 A 
ATOM     24  C   UNL     1      -3.335  11.189  17.324  0.00  0.00    +0.000 A 
ATOM     25  C   UNL     1      -4.197  11.454  18.415  0.00  0.00    +0.000 A 
ATOM     26  C   UNL     1      -3.715  12.196  19.508  0.00  0.00    +0.000 A 
ATOM     27  C   UNL     1      -2.386  12.632  19.500  0.00  0.00    +0.000 A 
BRANCH  24  28
ATOM     28  O   UNL     1      -3.877  10.521  16.250  0.00  0.00    +0.000 OA
ATOM     29  C   UNL     1      -3.021  10.315  15.133  0.00  0.00    +0.000 C 
ENDBRANCH  24  28
BRANCH  25  30
ATOM     30  O   UNL     1      -5.493  11.015  18.261  0.00  0.00    +0.000 OA
ATOM     31  C   UNL     1      -6.453  11.975  17.831  0.00  0.00    +0.000 C 
ENDBRANCH  25  30
BRANCH  26  32
ATOM     32  O   UNL     1      -4.561  12.431  20.561  0.00  0.00    +0.000 OA
ATOM     33  C   UNL     1      -3.980  12.685  21.834  0.00  0.00    +0.000 C 
ENDBRANCH  26  32
ENDBRANCH   6  22
TORSDOF 8
ENDMDL
MODEL 5
REMARK VINA RESULT:      -5.8      1.560      6.364
REMARK  Name = 
REMARK  14 active torsions:
REMARK  status: ('A' for Active; 'I' for Inactive)
REMARK    1  A    between atoms: C_1  and  O_2
REMARK    2  A    between atoms: O_2  and  C_3
REMARK    3  A    between atoms: C_5  and  C_6
REMARK    4  A    between atoms: C_11  and  C_12
REMARK    5  A    between atoms: C_14  and  O_15
REMARK    6  A    between atoms: O_15  and  C_16
REMARK    7  A    between atoms: C_17  and  O_18
REMARK    8  A    between atoms: O_18  and  C_19
REMARK    9  A    between atoms: C_20  and  O_21
REMARK   10  A    between atoms: O_21  and  C_22
REMARK   11  A    between atoms: C_25  and  O_26
REMARK   12  A    between atoms: O_26  and  C_27
REMARK   13  A    between atoms: C_28  and  O_29
REMARK   14  A    between atoms: O_29  and  C_30
REMARK                            x       y       z     vdW  Elec       q    Type
REMARK                         _______ _______ _______ _____ _____    ______ ____
ROOT
ATOM      1  C   UNL     1      -3.678  11.605  17.727  0.00  0.00    +0.000 A 
ATOM      2  N   UNL     1      -4.085  11.001  16.555  0.00  0.00    +0.000 NA
ATOM      3  C   UNL     1      -2.997  10.856  15.849  0.00  0.00    +0.000 A 
ATOM      4  N   UNL     1      -2.888  10.303  14.631  0.00  0.00    +0.000 N 
ATOM      5  N   UNL     1      -1.900  11.312  16.512  0.00  0.00    +0.000 N 
ATOM      6  C   UNL     1      -2.294  11.773  17.749  0.00  0.00    +0.000 A 
ATOM      7  H   UNL     1      -3.767  10.132  14.151  0.00  0.00    +0.000 HD
ATOM      8  H   UNL     1      -2.144  10.577  14.001  0.00  0.00    +0.000 HD
ATOM      9  H   UNL     1      -0.953  11.247  16.173  0.00  0.00    +0.000 HD
ENDROOT
BRANCH   1  12
ATOM     10  C   UNL     1      -6.603  11.204  20.038  0.00  0.00    +0.000 A 
ATOM     11  C   UNL     1      -5.826  11.217  18.865  0.00  0.00    +0.000 A 
ATOM     12  C   UNL     1      -4.601  11.878  18.824  0.00  0.00    +0.000 A 
ATOM     13  C   UNL     1      -4.239  12.669  19.913  0.00  0.00    +0.000 A 
ATOM     14  C   UNL     1      -5.005  12.694  21.089  0.00  0.00    +0.000 A 
ATOM     15  C   UNL     1      -6.209  11.960  21.165  0.00  0.00    +0.000 A 
BRANCH  10  17
ATOM     16  C   UNL     1      -7.560   9.086  20.524  0.00  0.00    +0.000 C 
ATOM     17  O   UNL     1      -7.742  10.438  20.101  0.00  0.00    +0.000 OA
ENDBRANCH  10  17
BRANCH  14  18
ATOM     18  O   UNL     1      -4.377  13.425  22.067  0.00  0.00    +0.000 OA
ATOM     19  C   UNL     1      -3.431  12.803  22.922  0.00  0.00    +0.000 C 
ENDBRANCH  14  18
BRANCH  15  20
ATOM     20  O   UNL     1      -6.866  12.033  22.361  0.00  0.00    +0.000 OA
ATOM     21  C   UNL     1      -7.906  12.967  22.583  0.00  0.00    +0.000 C 
ENDBRANCH  15  20
ENDBRANCH   1  12
BRANCH   6  22
ATOM     22  C   UNL     1      -1.347  12.265  18.754  0.00  0.00    +0.000 A 
ATOM     23  C   UNL     1      -0.797  13.546  18.653  0.00  0.00    +0.000 A 
ATOM     24  C   UNL     1       0.021  14.059  19.668  0.00  0.00    +0.000 A 
ATOM     25  C   UNL     1       0.283  13.289  20.826  0.00  0.00    +0.000 A 
ATOM     26  C   UNL     1      -0.228  11.982  20.914  0.00  0.00    +0.000 A 
ATOM     27  C   UNL     1      -1.005  11.485  19.862  0.00  0.00    +0.000 A 
BRANCH  24  28
ATOM     28  O   UNL     1       0.604  15.304  19.602  0.00  0.00    +0.000 OA
ATOM     29  C   UNL     1       0.326  16.075  18.440  0.00  0.00    +0.000 C 
ENDBRANCH  24  28
BRANCH  25  30
ATOM     30  O   UNL     1       1.108  13.884  21.754  0.00  0.00    +0.000 OA
ATOM     31  C   UNL     1       0.537  14.902  22.568  0.00  0.00    +0.000 C 
ENDBRANCH  25  30
BRANCH  26  32
ATOM     32  O   UNL     1       0.024  11.257  22.050  0.00  0.00    +0.000 OA
ATOM     33  C   UNL     1       0.494   9.923  21.895  0.00  0.00    +0.000 C 
ENDBRANCH  26  32
ENDBRANCH   6  22
TORSDOF 8
ENDMDL
MODEL 6
REMARK VINA RESULT:      -5.8      1.397      1.526
REMARK  Name = 
REMARK  14 active torsions:
REMARK  status: ('A' for Active; 'I' for Inactive)
REMARK    1  A    between atoms: C_1  and  O_2
REMARK    2  A    between atoms: O_2  and  C_3
REMARK    3  A    between atoms: C_5  and  C_6
REMARK    4  A    between atoms: C_11  and  C_12
REMARK    5  A    between atoms: C_14  and  O_15
REMARK    6  A    between atoms: O_15  and  C_16
REMARK    7  A    between atoms: C_17  and  O_18
REMARK    8  A    between atoms: O_18  and  C_19
REMARK    9  A    between atoms: C_20  and  O_21
REMARK   10  A    between atoms: O_21  and  C_22
REMARK   11  A    between atoms: C_25  and  O_26
REMARK   12  A    between atoms: O_26  and  C_27
REMARK   13  A    between atoms: C_28  and  O_29
REMARK   14  A    between atoms: O_29  and  C_30
REMARK                            x       y       z     vdW  Elec       q    Type
REMARK                         _______ _______ _______ _____ _____    ______ ____
ROOT
ATOM      1  C   UNL     1      -2.813  11.407  17.571  0.00  0.00    +0.000 A 
ATOM      2  N   UNL     1      -2.354  11.050  16.319  0.00  0.00    +0.000 NA
ATOM      3  C   UNL     1      -3.422  10.728  15.642  0.00  0.00    +0.000 A 
ATOM      4  N   UNL     1      -3.480  10.325  14.363  0.00  0.00    +0.000 N 
ATOM      5  N   UNL     1      -4.554  10.882  16.380  0.00  0.00    +0.000 N 
ATOM      6  C   UNL     1      -4.205  11.354  17.626  0.00  0.00    +0.000 A 
ATOM      7  H   UNL     1      -2.586  10.093  13.940  0.00  0.00    +0.000 HD
ATOM      8  H   UNL     1      -4.234   9.730  14.040  0.00  0.00    +0.000 HD
ATOM      9  H   UNL     1      -5.490  10.741  16.036  0.00  0.00    +0.000 HD
ENDROOT
BRANCH   1  12
ATOM     10  C   UNL     1      -0.360  13.631  19.331  0.00  0.00    +0.000 A 
ATOM     11  C   UNL     1      -1.010  12.910  18.312  0.00  0.00    +0.000 A 
ATOM     12  C   UNL     1      -1.922  11.903  18.615  0.00  0.00    +0.000 A 
ATOM     13  C   UNL     1      -2.052  11.506  19.945  0.00  0.00    +0.000 A 
ATOM     14  C   UNL     1      -1.399  12.191  20.982  0.00  0.00    +0.000 A 
ATOM     15  C   UNL     1      -0.534  13.267  20.686  0.00  0.00    +0.000 A 
BRANCH  10  17
ATOM     16  C   UNL     1      -0.255  15.927  18.739  0.00  0.00    +0.000 C 
ATOM     17  O   UNL     1       0.434  14.706  19.016  0.00  0.00    +0.000 OA
ENDBRANCH  10  17
BRANCH  14  18
ATOM     18  O   UNL     1      -1.791  11.711  22.208  0.00  0.00    +0.000 OA
ATOM     19  C   UNL     1      -0.987  10.762  22.890  0.00  0.00    +0.000 C 
ENDBRANCH  14  18
BRANCH  15  20
ATOM     20  O   UNL     1       0.032  13.880  21.768  0.00  0.00    +0.000 OA
ATOM     21  C   UNL     1      -0.590  14.976  22.412  0.00  0.00    +0.000 C 
ENDBRANCH  15  20
ENDBRANCH   1  12
BRANCH   6  22
ATOM     22  C   UNL     1      -5.193  11.704  18.652  0.00  0.00    +0.000 A 
ATOM     23  C   UNL     1      -6.093  10.750  19.133  0.00  0.00    +0.000 A 
ATOM     24  C   UNL     1      -6.964  11.051  20.189  0.00  0.00    +0.000 A 
ATOM     25  C   UNL     1      -6.926  12.328  20.798  0.00  0.00    +0.000 A 
ATOM     26  C   UNL     1      -6.056  13.308  20.288  0.00  0.00    +0.000 A 
ATOM     27  C   UNL     1      -5.231  12.987  19.205  0.00  0.00    +0.000 A 
BRANCH  24  28
ATOM     28  O   UNL     1      -7.883  10.153  20.681  0.00  0.00    +0.000 OA
ATOM     29  C   UNL     1      -7.584   8.774  20.499  0.00  0.00    +0.000 C 
ENDBRANCH  24  28
BRANCH  25  30
ATOM     30  O   UNL     1      -7.832  12.521  21.816  0.00  0.00    +0.000 OA
ATOM     31  C   UNL     1      -7.339  12.421  23.148  0.00  0.00    +0.000 C 
ENDBRANCH  25  30
BRANCH  26  32
ATOM     32  O   UNL     1      -6.023  14.534  20.901  0.00  0.00    +0.000 OA
ATOM     33  C   UNL     1      -4.767  15.196  20.991  0.00  0.00    +0.000 C 
ENDBRANCH  26  32
ENDBRANCH   6  22
TORSDOF 8
ENDMDL
MODEL 7
REMARK VINA RESULT:      -5.7      4.258      6.813
REMARK  Name = 
REMARK  14 active torsions:
REMARK  status: ('A' for Active; 'I' for Inactive)
REMARK    1  A    between atoms: C_1  and  O_2
REMARK    2  A    between atoms: O_2  and  C_3
REMARK    3  A    between atoms: C_5  and  C_6
REMARK    4  A    between atoms: C_11  and  C_12
REMARK    5  A    between atoms: C_14  and  O_15
REMARK    6  A    between atoms: O_15  and  C_16
REMARK    7  A    between atoms: C_17  and  O_18
REMARK    8  A    between atoms: O_18  and  C_19
REMARK    9  A    between atoms: C_20  and  O_21
REMARK   10  A    between atoms: O_21  and  C_22
REMARK   11  A    between atoms: C_25  and  O_26
REMARK   12  A    between atoms: O_26  and  C_27
REMARK   13  A    between atoms: C_28  and  O_29
REMARK   14  A    between atoms: O_29  and  C_30
REMARK                            x       y       z     vdW  Elec       q    Type
REMARK                         _______ _______ _______ _____ _____    ______ ____
ROOT
ATOM      1  C   UNL     1      -0.556  10.681  18.202  0.00  0.00    +0.000 A 
ATOM      2  N   UNL     1      -1.474  10.255  17.264  0.00  0.00    +0.000 NA
ATOM      3  C   UNL     1      -2.147  11.323  16.935  0.00  0.00    +0.000 A 
ATOM      4  N   UNL     1      -3.145  11.410  16.041  0.00  0.00    +0.000 N 
ATOM      5  N   UNL     1      -1.698  12.427  17.591  0.00  0.00    +0.000 N 
ATOM      6  C   UNL     1      -0.642  12.059  18.396  0.00  0.00    +0.000 A 
ATOM      7  H   UNL     1      -3.514  10.521  15.716  0.00  0.00    +0.000 HD
ATOM      8  H   UNL     1      -3.858  12.124  16.127  0.00  0.00    +0.000 HD
ATOM      9  H   UNL     1      -2.039  13.363  17.446  0.00  0.00    +0.000 HD
ENDROOT
BRANCH   1  12
ATOM     10  C   UNL     1       1.202   8.533  20.723  0.00  0.00    +0.000 A 
ATOM     11  C   UNL     1       0.483   9.601  20.155  0.00  0.00    +0.000 A 
ATOM     12  C   UNL     1       0.444   9.786  18.775  0.00  0.00    +0.000 A 
ATOM     13  C   UNL     1       1.270   8.995  17.978  0.00  0.00    +0.000 A 
ATOM     14  C   UNL     1       2.017   7.936  18.519  0.00  0.00    +0.000 A 
ATOM     15  C   UNL     1       1.996   7.693  19.909  0.00  0.00    +0.000 A 
BRANCH  10  17
ATOM     16  C   UNL     1       0.532   9.326  22.858  0.00  0.00    +0.000 C 
ATOM     17  O   UNL     1       1.121   8.289  22.072  0.00  0.00    +0.000 OA
ENDBRANCH  10  17
BRANCH  14  18
ATOM     18  O   UNL     1       2.634   7.216  17.525  0.00  0.00    +0.000 OA
ATOM     19  C   UNL     1       4.050   7.213  17.425  0.00  0.00    +0.000 C 
ENDBRANCH  14  18
BRANCH  15  20
ATOM     20  O   UNL     1       2.738   6.625  20.329  0.00  0.00    +0.000 OA
ATOM     21  C   UNL     1       2.175   5.333  20.457  0.00  0.00    +0.000 C 
ENDBRANCH  15  20
ENDBRANCH   1  12
BRANCH   6  22
ATOM     22  C   UNL     1       0.129  13.022  19.189  0.00  0.00    +0.000 A 
ATOM     23  C   UNL     1      -0.119  13.188  20.554  0.00  0.00    +0.000 A 
ATOM     24  C   UNL     1       0.687  14.025  21.335  0.00  0.00    +0.000 A 
ATOM     25  C   UNL     1       1.784  14.702  20.750  0.00  0.00    +0.000 A 
ATOM     26  C   UNL     1       2.011  14.578  19.368  0.00  0.00    +0.000 A 
ATOM     27  C   UNL     1       1.160  13.767  18.610  0.00  0.00    +0.000 A 
BRANCH  24  28
ATOM     28  O   UNL     1       0.468  14.237  22.677  0.00  0.00    +0.000 OA
ATOM     29  C   UNL     1      -0.854  14.602  23.055  0.00  0.00    +0.000 C 
ENDBRANCH  24  28
BRANCH  25  30
ATOM     30  O   UNL     1       2.501  15.508  21.605  0.00  0.00    +0.000 OA
ATOM     31  C   UNL     1       3.709  14.974  22.136  0.00  0.00    +0.000 C 
ENDBRANCH  25  30
BRANCH  26  32
ATOM     32  O   UNL     1       3.088  15.229  18.823  0.00  0.00    +0.000 OA
ATOM     33  C   UNL     1       4.113  14.437  18.234  0.00  0.00    +0.000 C 
ENDBRANCH  26  32
ENDBRANCH   6  22
TORSDOF 8
ENDMDL
MODEL 8
REMARK VINA RESULT:      -5.7      1.612      6.301
REMARK  Name = 
REMARK  14 active torsions:
REMARK  status: ('A' for Active; 'I' for Inactive)
REMARK    1  A    between atoms: C_1  and  O_2
REMARK    2  A    between atoms: O_2  and  C_3
REMARK    3  A    between atoms: C_5  and  C_6
REMARK    4  A    between atoms: C_11  and  C_12
REMARK    5  A    between atoms: C_14  and  O_15
REMARK    6  A    between atoms: O_15  and  C_16
REMARK    7  A    between atoms: C_17  and  O_18
REMARK    8  A    between atoms: O_18  and  C_19
REMARK    9  A    between atoms: C_20  and  O_21
REMARK   10  A    between atoms: O_21  and  C_22
REMARK   11  A    between atoms: C_25  and  O_26
REMARK   12  A    between atoms: O_26  and  C_27
REMARK   13  A    between atoms: C_28  and  O_29
REMARK   14  A    between atoms: O_29  and  C_30
REMARK                            x       y       z     vdW  Elec       q    Type
REMARK                         _______ _______ _______ _____ _____    ______ ____
ROOT
ATOM      1  C   UNL     1      -3.707  11.583  17.879  0.00  0.00    +0.000 A 
ATOM      2  N   UNL     1      -4.181  11.030  16.707  0.00  0.00    +0.000 NA
ATOM      3  C   UNL     1      -3.138  10.934  15.928  0.00  0.00    +0.000 A 
ATOM      4  N   UNL     1      -3.101  10.440  14.680  0.00  0.00    +0.000 N 
ATOM      5  N   UNL     1      -2.007  11.372  16.543  0.00  0.00    +0.000 N 
ATOM      6  C   UNL     1      -2.327  11.769  17.823  0.00  0.00    +0.000 A 
ATOM      7  H   UNL     1      -4.006  10.281  14.249  0.00  0.00    +0.000 HD
ATOM      8  H   UNL     1      -2.400  10.754  14.019  0.00  0.00    +0.000 HD
ATOM      9  H   UNL     1      -1.082  11.337  16.143  0.00  0.00    +0.000 HD
ENDROOT
BRANCH   1  12
ATOM     10  C   UNL     1      -5.368  13.334  20.750  0.00  0.00    +0.000 A 
ATOM     11  C   UNL     1      -4.388  12.933  19.822  0.00  0.00    +0.000 A 
ATOM     12  C   UNL     1      -4.563  11.791  19.043  0.00  0.00    +0.000 A 
ATOM     13  C   UNL     1      -5.648  10.960  19.320  0.00  0.00    +0.000 A 
ATOM     14  C   UNL     1      -6.630  11.323  20.255  0.00  0.00    +0.000 A 
ATOM     15  C   UNL     1      -6.499  12.521  20.991  0.00  0.00    +0.000 A 
BRANCH  10  17
ATOM     16  C   UNL     1      -3.952  15.145  21.343  0.00  0.00    +0.000 C 
ATOM     17  O   UNL     1      -5.240  14.530  21.412  0.00  0.00    +0.000 OA
ENDBRANCH  10  17
BRANCH  14  18
ATOM     18  O   UNL     1      -7.667  10.422  20.250  0.00  0.00    +0.000 OA
ATOM     19  C   UNL     1      -7.397   9.030  20.216  0.00  0.00    +0.000 C 
ENDBRANCH  14  18
BRANCH  15  20
ATOM     20  O   UNL     1      -7.521  12.792  21.857  0.00  0.00    +0.000 OA
ATOM     21  C   UNL     1      -7.475  12.385  23.212  0.00  0.00    +0.000 C 
ENDBRANCH  15  20
ENDBRANCH   1  12
BRANCH   6  22
ATOM     22  C   UNL     1      -1.324  12.226  18.790  0.00  0.00    +0.000 A 
ATOM     23  C   UNL     1      -0.882  13.551  18.791  0.00  0.00    +0.000 A 
ATOM     24  C   UNL     1      -0.008  14.017  19.781  0.00  0.00    +0.000 A 
ATOM     25  C   UNL     1       0.424  13.150  20.813  0.00  0.00    +0.000 A 
ATOM     26  C   UNL     1       0.021  11.803  20.791  0.00  0.00    +0.000 A 
ATOM     27  C   UNL     1      -0.818  11.360  19.763  0.00  0.00    +0.000 A 
BRANCH  24  28
ATOM     28  O   UNL     1       0.473  15.307  19.809  0.00  0.00    +0.000 OA
ATOM     29  C   UNL     1       1.095  15.779  18.621  0.00  0.00    +0.000 C 
ENDBRANCH  24  28
BRANCH  25  30
ATOM     30  O   UNL     1       1.291  13.706  21.725  0.00  0.00    +0.000 OA
ATOM     31  C   UNL     1       2.664  13.773  21.354  0.00  0.00    +0.000 C 
ENDBRANCH  25  30
BRANCH  26  32
ATOM     32  O   UNL     1       0.437  10.981  21.808  0.00  0.00    +0.000 OA
ATOM     33  C   UNL     1      -0.541  10.523  22.733  0.00  0.00    +0.000 C 
ENDBRANCH  26  32
ENDBRANCH   6  22
TORSDOF 8
ENDMDL
MODEL 9
REMARK VINA RESULT:      -5.7      6.333      9.812
REMARK  Name = 
REMARK  14 active torsions:
REMARK  status: ('A' for Active; 'I' for Inactive)
REMARK    1  A    between atoms: C_1  and  O_2
REMARK    2  A    between atoms: O_2  and  C_3
REMARK    3  A    between atoms: C_5  and  C_6
REMARK    4  A    between atoms: C_11  and  C_12
REMARK    5  A    between atoms: C_14  and  O_15
REMARK    6  A    between atoms: O_15  and  C_16
REMARK    7  A    between atoms: C_17  and  O_18
REMARK    8  A    between atoms: O_18  and  C_19
REMARK    9  A    between atoms: C_20  and  O_21
REMARK   10  A    between atoms: O_21  and  C_22
REMARK   11  A    between atoms: C_25  and  O_26
REMARK   12  A    between atoms: O_26  and  C_27
REMARK   13  A    between atoms: C_28  and  O_29
REMARK   14  A    between atoms: O_29  and  C_30
REMARK                            x       y       z     vdW  Elec       q    Type
REMARK                         _______ _______ _______ _____ _____    ______ ____
ROOT
ATOM      1  C   UNL     1       3.250   4.049  18.590  0.00  0.00    +0.000 A 
ATOM      2  N   UNL     1       2.905   2.724  18.418  0.00  0.00    +0.000 NA
ATOM      3  C   UNL     1       1.652   2.647  18.775  0.00  0.00    +0.000 A 
ATOM      4  N   UNL     1       0.872   1.555  18.769  0.00  0.00    +0.000 N 
ATOM      5  N   UNL     1       1.158   3.859  19.147  0.00  0.00    +0.000 N 
ATOM      6  C   UNL     1       2.153   4.802  19.006  0.00  0.00    +0.000 A 
ATOM      7  H   UNL     1       1.359   0.675  18.626  0.00  0.00    +0.000 HD
ATOM      8  H   UNL     1       0.089   1.473  19.406  0.00  0.00    +0.000 HD
ATOM      9  H   UNL     1       0.200   4.037  19.407  0.00  0.00    +0.000 HD
ENDROOT
BRANCH   1  12
ATOM     10  C   UNL     1       5.958   5.647  16.548  0.00  0.00    +0.000 A 
ATOM     11  C   UNL     1       4.840   4.869  16.898  0.00  0.00    +0.000 A 
ATOM     12  C   UNL     1       4.567   4.564  18.230  0.00  0.00    +0.000 A 
ATOM     13  C   UNL     1       5.517   4.900  19.194  0.00  0.00    +0.000 A 
ATOM     14  C   UNL     1       6.654   5.657  18.870  0.00  0.00    +0.000 A 
ATOM     15  C   UNL     1       6.893   6.039  17.532  0.00  0.00    +0.000 A 
BRANCH  10  17
ATOM     16  C   UNL     1       6.463   5.014  14.316  0.00  0.00    +0.000 C 
ATOM     17  O   UNL     1       6.137   6.048  15.246  0.00  0.00    +0.000 OA
ENDBRANCH  10  17
BRANCH  14  18
ATOM     18  O   UNL     1       7.361   5.985  20.002  0.00  0.00    +0.000 OA
ATOM     19  C   UNL     1       8.520   5.246  20.353  0.00  0.00    +0.000 C 
ENDBRANCH  14  18
BRANCH  15  20
ATOM     20  O   UNL     1       8.015   6.794  17.329  0.00  0.00    +0.000 OA
ATOM     21  C   UNL     1       8.019   8.192  17.545  0.00  0.00    +0.000 C 
ENDBRANCH  15  20
ENDBRANCH   1  12
BRANCH   6  22
ATOM     22  C   UNL     1       1.936   6.231  19.249  0.00  0.00    +0.000 A 
ATOM     23  C   UNL     1       2.074   7.162  18.216  0.00  0.00    +0.000 A 
ATOM     24  C   UNL     1       1.762   8.513  18.418  0.00  0.00    +0.000 A 
ATOM     25  C   UNL     1       1.278   8.949  19.675  0.00  0.00    +0.000 A 
ATOM     26  C   UNL     1       1.182   8.028  20.733  0.00  0.00    +0.000 A 
ATOM     27  C   UNL     1       1.544   6.695  20.508  0.00  0.00    +0.000 A 
BRANCH  24  28
ATOM     28  O   UNL     1       1.904   9.469  17.439  0.00  0.00    +0.000 OA
ATOM     29  C   UNL     1       2.736  10.579  17.750  0.00  0.00    +0.000 C 
ENDBRANCH  24  28
BRANCH  25  30
ATOM     30  O   UNL     1       1.015  10.297  19.768  0.00  0.00    +0.000 OA
ATOM     31  C   UNL     1      -0.353  10.691  19.748  0.00  0.00    +0.000 C 
ENDBRANCH  25  30
BRANCH  26  32
ATOM     32  O   UNL     1       0.698   8.466  21.938  0.00  0.00    +0.000 OA
ATOM     33  C   UNL     1       1.579   9.198  22.780  0.00  0.00    +0.000 C 
ENDBRANCH  26  32
ENDBRANCH   6  22
TORSDOF 8
ENDMDL
