MODEL 1
REMARK VINA RESULT:      -6.8      0.000      0.000
REMARK  Name = 
REMARK  5 active torsions:
REMARK  status: ('A' for Active; 'I' for Inactive)
REMARK    1  A    between atoms: C_1  and  O_2
REMARK    2  A    between atoms: O_2  and  C_3
REMARK    3  A    between atoms: C_9  and  N_10
REMARK    4  A    between atoms: N_13  and  C_14
REMARK    5  A    between atoms: C_19  and  O_20
REMARK                            x       y       z     vdW  Elec       q    Type
REMARK                         _______ _______ _______ _____ _____    ______ ____
ROOT
ATOM      1  N   UNL     1       5.531   3.264  16.613  0.00  0.00    +0.000 N 
ATOM      2  C   UNL     1       4.509   3.808  17.368  0.00  0.00    +0.000 C 
ATOM      3  O   UNL     1       3.845   4.797  17.082  0.00  0.00    +0.000 OA
ATOM      4  N   UNL     1       4.287   3.120  18.542  0.00  0.00    +0.000 N 
ATOM      5  H   UNL     1       6.001   2.443  16.970  0.00  0.00    +0.000 HD
ATOM      6  H   UNL     1       4.450   2.124  18.494  0.00  0.00    +0.000 HD
ENDROOT
BRANCH   1  13
ATOM      7  C   UNL     1       7.095   4.720  15.412  0.00  0.00    +0.000 A 
ATOM      8  C   UNL     1       7.611   5.225  14.206  0.00  0.00    +0.000 A 
ATOM      9  C   UNL     1       7.089   4.811  12.981  0.00  0.00    +0.000 A 
ATOM     10  C   UNL     1       6.056   3.886  12.955  0.00  0.00    +0.000 A 
ATOM     11 CL   UNL     1       5.403   3.385  11.444  0.00  0.00    +0.000 Cl
ATOM     12  C   UNL     1       5.543   3.366  14.140  0.00  0.00    +0.000 A 
ATOM     13  C   UNL     1       6.049   3.767  15.383  0.00  0.00    +0.000 A 
BRANCH   7  15
ATOM     14  C   UNL     1       7.207   6.411  17.079  0.00  0.00    +0.000 C 
ATOM     15  O   UNL     1       7.567   5.098  16.651  0.00  0.00    +0.000 OA
ENDBRANCH   7  15
ENDBRANCH   1  13
BRANCH   4  16
ATOM     16  C   UNL     1       3.190   3.523  19.448  0.00  0.00    +0.000 C 
ATOM     17  C   UNL     1       3.486   3.223  20.938  0.00  0.00    +0.000 C 
ATOM     18  N   UNL     1       2.343   3.468  21.836  0.00  0.00    +0.000 NA
ATOM     19  C   UNL     1       1.176   2.690  21.437  0.00  0.00    +0.000 C 
ATOM     20  C   UNL     1       0.745   3.031  20.019  0.00  0.00    +0.000 C 
ATOM     21  C   UNL     1       1.888   2.805  19.026  0.00  0.00    +0.000 C 
ATOM     22  H   UNL     1       2.120   4.466  21.833  0.00  0.00    +0.000 HD
BRANCH  21  23
ATOM     23  O   UNL     1       1.486   3.258  17.725  0.00  0.00    +0.000 OA
ATOM     24  H   UNL     1       1.612   2.519  17.102  0.00  0.00    +0.000 HD
ENDBRANCH  21  23
ENDBRANCH   4  16
TORSDOF 4
ENDMDL
MODEL 2
REMARK VINA RESULT:      -6.6      1.399      1.689
REMARK  Name = 
REMARK  5 active torsions:
REMARK  status: ('A' for Active; 'I' for Inactive)
REMARK    1  A    between atoms: C_1  and  O_2
REMARK    2  A    between atoms: O_2  and  C_3
REMARK    3  A    between atoms: C_9  and  N_10
REMARK    4  A    between atoms: N_13  and  C_14
REMARK    5  A    between atoms: C_19  and  O_20
REMARK                            x       y       z     vdW  Elec       q    Type
REMARK                         _______ _______ _______ _____ _____    ______ ____
ROOT
ATOM      1  N   UNL     1       4.713   4.747  16.284  0.00  0.00    +0.000 N 
ATOM      2  C   UNL     1       4.106   3.769  17.050  0.00  0.00    +0.000 C 
ATOM      3  O   UNL     1       4.180   2.559  16.871  0.00  0.00    +0.000 OA
ATOM      4  N   UNL     1       3.358   4.287  18.085  0.00  0.00    +0.000 N 
ATOM      5  H   UNL     1       4.565   5.713  16.543  0.00  0.00    +0.000 HD
ATOM      6  H   UNL     1       3.716   5.142  18.489  0.00  0.00    +0.000 HD
ENDROOT
BRANCH   1  13
ATOM      7  C   UNL     1       6.810   5.086  15.062  0.00  0.00    +0.000 A 
ATOM      8  C   UNL     1       7.594   4.901  13.909  0.00  0.00    +0.000 A 
ATOM      9  C   UNL     1       7.088   4.213  12.808  0.00  0.00    +0.000 A 
ATOM     10  C   UNL     1       5.801   3.699  12.855  0.00  0.00    +0.000 A 
ATOM     11 CL   UNL     1       5.171   2.860  11.491  0.00  0.00    +0.000 Cl
ATOM     12  C   UNL     1       5.015   3.861  13.993  0.00  0.00    +0.000 A 
ATOM     13  C   UNL     1       5.500   4.551  15.112  0.00  0.00    +0.000 A 
BRANCH   7  15
ATOM     14  C   UNL     1       7.584   4.953  17.305  0.00  0.00    +0.000 C 
ATOM     15  O   UNL     1       7.255   5.763  16.176  0.00  0.00    +0.000 OA
ENDBRANCH   7  15
ENDBRANCH   1  13
BRANCH   4  16
ATOM     16  C   UNL     1       2.686   3.387  19.047  0.00  0.00    +0.000 C 
ATOM     17  C   UNL     1       1.306   3.910  19.514  0.00  0.00    +0.000 C 
ATOM     18  N   UNL     1       0.696   3.110  20.590  0.00  0.00    +0.000 NA
ATOM     19  C   UNL     1       1.570   3.028  21.754  0.00  0.00    +0.000 C 
ATOM     20  C   UNL     1       2.907   2.397  21.396  0.00  0.00    +0.000 C 
ATOM     21  C   UNL     1       3.600   3.175  20.275  0.00  0.00    +0.000 C 
ATOM     22  H   UNL     1       0.488   2.173  20.238  0.00  0.00    +0.000 HD
BRANCH  21  23
ATOM     23  O   UNL     1       4.791   2.480  19.878  0.00  0.00    +0.000 OA
ATOM     24  H   UNL     1       5.353   3.109  19.389  0.00  0.00    +0.000 HD
ENDBRANCH  21  23
ENDBRANCH   4  16
TORSDOF 4
ENDMDL
MODEL 3
REMARK VINA RESULT:      -6.3      5.667      6.633
REMARK  Name = 
REMARK  5 active torsions:
REMARK  status: ('A' for Active; 'I' for Inactive)
REMARK    1  A    between atoms: C_1  and  O_2
REMARK    2  A    between atoms: O_2  and  C_3
REMARK    3  A    between atoms: C_9  and  N_10
REMARK    4  A    between atoms: N_13  and  C_14
REMARK    5  A    between atoms: C_19  and  O_20
REMARK                            x       y       z     vdW  Elec       q    Type
REMARK                         _______ _______ _______ _____ _____    ______ ____
ROOT
ATOM      1  N   UNL     1       2.431   7.033  18.774  0.00  0.00    +0.000 N 
ATOM      2  C   UNL     1       2.110   8.321  18.389  0.00  0.00    +0.000 C 
ATOM      3  O   UNL     1       2.424   8.863  17.337  0.00  0.00    +0.000 OA
ATOM      4  N   UNL     1       1.374   8.995  19.341  0.00  0.00    +0.000 N 
ATOM      5  H   UNL     1       2.109   6.711  19.677  0.00  0.00    +0.000 HD
ATOM      6  H   UNL     1       0.743   8.421  19.884  0.00  0.00    +0.000 HD
ENDROOT
BRANCH   1  13
ATOM      7  C   UNL     1       2.712   4.806  17.789  0.00  0.00    +0.000 A 
ATOM      8  C   UNL     1       3.491   3.875  17.080  0.00  0.00    +0.000 A 
ATOM      9  C   UNL     1       4.775   4.204  16.648  0.00  0.00    +0.000 A 
ATOM     10  C   UNL     1       5.284   5.466  16.916  0.00  0.00    +0.000 A 
ATOM     11 CL   UNL     1       6.874   5.868  16.395  0.00  0.00    +0.000 Cl
ATOM     12  C   UNL     1       4.521   6.405  17.605  0.00  0.00    +0.000 A 
ATOM     13  C   UNL     1       3.229   6.097  18.051  0.00  0.00    +0.000 A 
BRANCH   7  15
ATOM     14  C   UNL     1       1.210   3.193  18.680  0.00  0.00    +0.000 C 
ATOM     15  O   UNL     1       1.440   4.533  18.245  0.00  0.00    +0.000 OA
ENDBRANCH   7  15
ENDBRANCH   1  13
BRANCH   4  16
ATOM     16  C   UNL     1       0.887  10.366  19.078  0.00  0.00    +0.000 C 
ATOM     17  C   UNL     1       0.946  11.286  20.321  0.00  0.00    +0.000 C 
ATOM     18  N   UNL     1       0.317  12.604  20.121  0.00  0.00    +0.000 NA
ATOM     19  C   UNL     1      -1.078  12.472  19.715  0.00  0.00    +0.000 C 
ATOM     20  C   UNL     1      -1.203  11.686  18.419  0.00  0.00    +0.000 C 
ATOM     21  C   UNL     1      -0.564  10.301  18.551  0.00  0.00    +0.000 C 
ATOM     22  H   UNL     1       0.842  13.124  19.414  0.00  0.00    +0.000 HD
BRANCH  21  23
ATOM     23  O   UNL     1      -0.587   9.642  17.277  0.00  0.00    +0.000 OA
ATOM     24  H   UNL     1      -0.850  10.299  16.607  0.00  0.00    +0.000 HD
ENDBRANCH  21  23
ENDBRANCH   4  16
TORSDOF 4
ENDMDL
MODEL 4
REMARK VINA RESULT:      -6.2      4.211      4.517
REMARK  Name = 
REMARK  5 active torsions:
REMARK  status: ('A' for Active; 'I' for Inactive)
REMARK    1  A    between atoms: C_1  and  O_2
REMARK    2  A    between atoms: O_2  and  C_3
REMARK    3  A    between atoms: C_9  and  N_10
REMARK    4  A    between atoms: N_13  and  C_14
REMARK    5  A    between atoms: C_19  and  O_20
REMARK                            x       y       z     vdW  Elec       q    Type
REMARK                         _______ _______ _______ _____ _____    ______ ____
ROOT
ATOM      1  N   UNL     1       4.620   7.196  17.200  0.00  0.00    +0.000 N 
ATOM      2  C   UNL     1       3.353   7.135  17.750  0.00  0.00    +0.000 C 
ATOM      3  O   UNL     1       2.684   6.123  17.918  0.00  0.00    +0.000 OA
ATOM      4  N   UNL     1       2.865   8.375  18.105  0.00  0.00    +0.000 N 
ATOM      5  H   UNL     1       5.059   8.103  17.117  0.00  0.00    +0.000 HD
ATOM      6  H   UNL     1       3.560   9.036  18.425  0.00  0.00    +0.000 HD
ENDROOT
BRANCH   1  13
ATOM      7  C   UNL     1       6.392   5.525  17.477  0.00  0.00    +0.000 A 
ATOM      8  C   UNL     1       7.148   4.454  16.970  0.00  0.00    +0.000 A 
ATOM      9  C   UNL     1       6.926   3.973  15.680  0.00  0.00    +0.000 A 
ATOM     10  C   UNL     1       5.941   4.554  14.895  0.00  0.00    +0.000 A 
ATOM     11 CL   UNL     1       5.674   3.969  13.298  0.00  0.00    +0.000 Cl
ATOM     12  C   UNL     1       5.173   5.606  15.385  0.00  0.00    +0.000 A 
ATOM     13  C   UNL     1       5.379   6.109  16.677  0.00  0.00    +0.000 A 
BRANCH   7  15
ATOM     14  C   UNL     1       7.863   5.842  19.316  0.00  0.00    +0.000 C 
ATOM     15  O   UNL     1       6.573   6.045  18.740  0.00  0.00    +0.000 OA
ENDBRANCH   7  15
ENDBRANCH   1  13
BRANCH   4  16
ATOM     16  C   UNL     1       1.547   8.498  18.766  0.00  0.00    +0.000 C 
ATOM     17  C   UNL     1       0.806   9.810  18.413  0.00  0.00    +0.000 C 
ATOM     18  N   UNL     1      -0.431  10.025  19.183  0.00  0.00    +0.000 NA
ATOM     19  C   UNL     1      -0.172  10.019  20.619  0.00  0.00    +0.000 C 
ATOM     20  C   UNL     1       0.439   8.699  21.063  0.00  0.00    +0.000 C 
ATOM     21  C   UNL     1       1.731   8.405  20.297  0.00  0.00    +0.000 C 
ATOM     22  H   UNL     1      -1.108   9.297  18.944  0.00  0.00    +0.000 HD
BRANCH  21  23
ATOM     23  O   UNL     1       2.207   7.098  20.648  0.00  0.00    +0.000 OA
ATOM     24  H   UNL     1       1.609   6.736  21.327  0.00  0.00    +0.000 HD
ENDBRANCH  21  23
ENDBRANCH   4  16
TORSDOF 4
ENDMDL
MODEL 5
REMARK VINA RESULT:      -6.2      1.142      1.444
REMARK  Name = 
REMARK  5 active torsions:
REMARK  status: ('A' for Active; 'I' for Inactive)
REMARK    1  A    between atoms: C_1  and  O_2
REMARK    2  A    between atoms: O_2  and  C_3
REMARK    3  A    between atoms: C_9  and  N_10
REMARK    4  A    between atoms: N_13  and  C_14
REMARK    5  A    between atoms: C_19  and  O_20
REMARK                            x       y       z     vdW  Elec       q    Type
REMARK                         _______ _______ _______ _____ _____    ______ ____
ROOT
ATOM      1  N   UNL     1       5.992   3.632  17.072  0.00  0.00    +0.000 N 
ATOM      2  C   UNL     1       4.802   3.829  17.746  0.00  0.00    +0.000 C 
ATOM      3  O   UNL     1       3.788   4.346  17.291  0.00  0.00    +0.000 OA
ATOM      4  N   UNL     1       4.846   3.386  19.051  0.00  0.00    +0.000 N 
ATOM      5  H   UNL     1       6.755   3.194  17.571  0.00  0.00    +0.000 HD
ATOM      6  H   UNL     1       5.427   2.573  19.210  0.00  0.00    +0.000 HD
ENDROOT
BRANCH   1  13
ATOM      7  C   UNL     1       7.186   5.110  15.524  0.00  0.00    +0.000 A 
ATOM      8  C   UNL     1       7.490   5.513  14.212  0.00  0.00    +0.000 A 
ATOM      9  C   UNL     1       6.910   4.871  13.118  0.00  0.00    +0.000 A 
ATOM     10  C   UNL     1       6.031   3.820  13.330  0.00  0.00    +0.000 A 
ATOM     11 CL   UNL     1       5.304   3.036  11.981  0.00  0.00    +0.000 Cl
ATOM     12  C   UNL     1       5.728   3.400  14.622  0.00  0.00    +0.000 A 
ATOM     13  C   UNL     1       6.296   4.030  15.737  0.00  0.00    +0.000 A 
BRANCH   7  15
ATOM     14  C   UNL     1       7.069   6.901  17.082  0.00  0.00    +0.000 C 
ATOM     15  O   UNL     1       7.724   5.711  16.641  0.00  0.00    +0.000 OA
ENDBRANCH   7  15
ENDBRANCH   1  13
BRANCH   4  16
ATOM     16  C   UNL     1       3.642   3.459  19.907  0.00  0.00    +0.000 C 
ATOM     17  C   UNL     1       2.658   2.286  19.681  0.00  0.00    +0.000 C 
ATOM     18  N   UNL     1       1.383   2.427  20.406  0.00  0.00    +0.000 NA
ATOM     19  C   UNL     1       0.704   3.668  20.053  0.00  0.00    +0.000 C 
ATOM     20  C   UNL     1       1.566   4.879  20.373  0.00  0.00    +0.000 C 
ATOM     21  C   UNL     1       2.916   4.799  19.656  0.00  0.00    +0.000 C 
ATOM     22  H   UNL     1       1.562   2.397  21.412  0.00  0.00    +0.000 HD
BRANCH  21  23
ATOM     23  O   UNL     1       3.748   5.888  20.081  0.00  0.00    +0.000 OA
ATOM     24  H   UNL     1       4.057   5.690  20.984  0.00  0.00    +0.000 HD
ENDBRANCH  21  23
ENDBRANCH   4  16
TORSDOF 4
ENDMDL
MODEL 6
REMARK VINA RESULT:      -6.1      5.528      6.783
REMARK  Name = 
REMARK  5 active torsions:
REMARK  status: ('A' for Active; 'I' for Inactive)
REMARK    1  A    between atoms: C_1  and  O_2
REMARK    2  A    between atoms: O_2  and  C_3
REMARK    3  A    between atoms: C_9  and  N_10
REMARK    4  A    between atoms: N_13  and  C_14
REMARK    5  A    between atoms: C_19  and  O_20
REMARK                            x       y       z     vdW  Elec       q    Type
REMARK                         _______ _______ _______ _____ _____    ______ ____
ROOT
ATOM      1  N   UNL     1       2.640   6.836  20.282  0.00  0.00    +0.000 N 
ATOM      2  C   UNL     1       1.733   7.862  20.098  0.00  0.00    +0.000 C 
ATOM      3  O   UNL     1       1.234   8.208  19.034  0.00  0.00    +0.000 OA
ATOM      4  N   UNL     1       1.421   8.516  21.272  0.00  0.00    +0.000 N 
ATOM      5  H   UNL     1       2.975   6.659  21.219  0.00  0.00    +0.000 HD
ATOM      6  H   UNL     1       1.418   7.936  22.100  0.00  0.00    +0.000 HD
ENDROOT
BRANCH   1  13
ATOM      7  C   UNL     1       3.193   4.602  19.436  0.00  0.00    +0.000 A 
ATOM      8  C   UNL     1       3.757   3.778  18.448  0.00  0.00    +0.000 A 
ATOM      9  C   UNL     1       4.353   4.330  17.315  0.00  0.00    +0.000 A 
ATOM     10  C   UNL     1       4.381   5.708  17.160  0.00  0.00    +0.000 A 
ATOM     11 CL   UNL     1       5.128   6.392  15.769  0.00  0.00    +0.000 Cl
ATOM     12  C   UNL     1       3.815   6.540  18.123  0.00  0.00    +0.000 A 
ATOM     13  C   UNL     1       3.212   6.009  19.271  0.00  0.00    +0.000 A 
BRANCH   7  15
ATOM     14  C   UNL     1       1.316   3.508  20.400  0.00  0.00    +0.000 C 
ATOM     15  O   UNL     1       2.598   4.112  20.578  0.00  0.00    +0.000 OA
ENDBRANCH   7  15
ENDBRANCH   1  13
BRANCH   4  16
ATOM     16  C   UNL     1       0.419   9.604  21.278  0.00  0.00    +0.000 C 
ATOM     17  C   UNL     1       0.997  10.971  20.840  0.00  0.00    +0.000 C 
ATOM     18  N   UNL     1       0.057  12.095  20.995  0.00  0.00    +0.000 NA
ATOM     19  C   UNL     1      -0.408  12.216  22.372  0.00  0.00    +0.000 C 
ATOM     20  C   UNL     1      -1.109  10.946  22.830  0.00  0.00    +0.000 C 
ATOM     21  C   UNL     1      -0.191   9.729  22.692  0.00  0.00    +0.000 C 
ATOM     22  H   UNL     1      -0.737  11.960  20.365  0.00  0.00    +0.000 HD
BRANCH  21  23
ATOM     23  O   UNL     1      -0.926   8.539  23.010  0.00  0.00    +0.000 OA
ATOM     24  H   UNL     1      -0.290   7.802  23.059  0.00  0.00    +0.000 HD
ENDBRANCH  21  23
ENDBRANCH   4  16
TORSDOF 4
ENDMDL
MODEL 7
REMARK VINA RESULT:      -6.0      5.571      7.529
REMARK  Name = 
REMARK  5 active torsions:
REMARK  status: ('A' for Active; 'I' for Inactive)
REMARK    1  A    between atoms: C_1  and  O_2
REMARK    2  A    between atoms: O_2  and  C_3
REMARK    3  A    between atoms: C_9  and  N_10
REMARK    4  A    between atoms: N_13  and  C_14
REMARK    5  A    between atoms: C_19  and  O_20
REMARK                            x       y       z     vdW  Elec       q    Type
REMARK                         _______ _______ _______ _____ _____    ______ ____
ROOT
ATOM      1  N   UNL     1       2.313   7.423  19.905  0.00  0.00    +0.000 N 
ATOM      2  C   UNL     1       2.122   6.057  19.990  0.00  0.00    +0.000 C 
ATOM      3  O   UNL     1       1.164   5.490  20.502  0.00  0.00    +0.000 OA
ATOM      4  N   UNL     1       3.156   5.336  19.433  0.00  0.00    +0.000 N 
ATOM      5  H   UNL     1       3.155   7.758  19.456  0.00  0.00    +0.000 HD
ATOM      6  H   UNL     1       3.601   5.769  18.635  0.00  0.00    +0.000 HD
ENDROOT
BRANCH   1  13
ATOM      7  C   UNL     1       0.962   9.440  19.566  0.00  0.00    +0.000 A 
ATOM      8  C   UNL     1       0.129  10.450  20.078  0.00  0.00    +0.000 A 
ATOM      9  C   UNL     1      -0.190  10.491  21.435  0.00  0.00    +0.000 A 
ATOM     10  C   UNL     1       0.316   9.518  22.285  0.00  0.00    +0.000 A 
ATOM     11 CL   UNL     1      -0.065   9.575  23.962  0.00  0.00    +0.000 Cl
ATOM     12  C   UNL     1       1.132   8.503  21.793  0.00  0.00    +0.000 A 
ATOM     13  C   UNL     1       1.467   8.441  20.433  0.00  0.00    +0.000 A 
BRANCH   7  15
ATOM     14  C   UNL     1       2.199  10.369  17.762  0.00  0.00    +0.000 C 
ATOM     15  O   UNL     1       1.314   9.354  18.237  0.00  0.00    +0.000 OA
ENDBRANCH   7  15
ENDBRANCH   1  13
BRANCH   4  16
ATOM     16  C   UNL     1       3.094   3.859  19.378  0.00  0.00    +0.000 C 
ATOM     17  C   UNL     1       4.464   3.180  19.619  0.00  0.00    +0.000 C 
ATOM     18  N   UNL     1       4.454   1.722  19.410  0.00  0.00    +0.000 NA
ATOM     19  C   UNL     1       4.005   1.380  18.064  0.00  0.00    +0.000 C 
ATOM     20  C   UNL     1       2.603   1.906  17.801  0.00  0.00    +0.000 C 
ATOM     21  C   UNL     1       2.535   3.421  18.006  0.00  0.00    +0.000 C 
ATOM     22  H   UNL     1       3.846   1.285  20.106  0.00  0.00    +0.000 HD
BRANCH  21  23
ATOM     23  O   UNL     1       1.175   3.859  17.876  0.00  0.00    +0.000 OA
ATOM     24  H   UNL     1       0.884   3.660  16.967  0.00  0.00    +0.000 HD
ENDBRANCH  21  23
ENDBRANCH   4  16
TORSDOF 4
ENDMDL
MODEL 8
REMARK VINA RESULT:      -6.0      5.228      6.496
REMARK  Name = 
REMARK  5 active torsions:
REMARK  status: ('A' for Active; 'I' for Inactive)
REMARK    1  A    between atoms: C_1  and  O_2
REMARK    2  A    between atoms: O_2  and  C_3
REMARK    3  A    between atoms: C_9  and  N_10
REMARK    4  A    between atoms: N_13  and  C_14
REMARK    5  A    between atoms: C_19  and  O_20
REMARK                            x       y       z     vdW  Elec       q    Type
REMARK                         _______ _______ _______ _____ _____    ______ ____
ROOT
ATOM      1  N   UNL     1       2.849   6.262  20.148  0.00  0.00    +0.000 N 
ATOM      2  C   UNL     1       2.083   7.378  19.867  0.00  0.00    +0.000 C 
ATOM      3  O   UNL     1       1.895   7.869  18.760  0.00  0.00    +0.000 OA
ATOM      4  N   UNL     1       1.522   7.939  20.995  0.00  0.00    +0.000 N 
ATOM      5  H   UNL     1       2.922   5.966  21.111  0.00  0.00    +0.000 HD
ATOM      6  H   UNL     1       1.272   7.283  21.723  0.00  0.00    +0.000 HD
ENDROOT
BRANCH   1  13
ATOM      7  C   UNL     1       2.950   4.527  18.419  0.00  0.00    +0.000 A 
ATOM      8  C   UNL     1       3.690   3.759  17.504  0.00  0.00    +0.000 A 
ATOM      9  C   UNL     1       5.070   3.922  17.390  0.00  0.00    +0.000 A 
ATOM     10  C   UNL     1       5.715   4.858  18.184  0.00  0.00    +0.000 A 
ATOM     11 CL   UNL     1       7.421   5.051  18.054  0.00  0.00    +0.000 Cl
ATOM     12  C   UNL     1       4.996   5.637  19.087  0.00  0.00    +0.000 A 
ATOM     13  C   UNL     1       3.609   5.491  19.220  0.00  0.00    +0.000 A 
BRANCH   7  15
ATOM     14  C   UNL     1       1.133   3.160  19.113  0.00  0.00    +0.000 C 
ATOM     15  O   UNL     1       1.586   4.404  18.578  0.00  0.00    +0.000 OA
ENDBRANCH   7  15
ENDBRANCH   1  13
BRANCH   4  16
ATOM     16  C   UNL     1       0.619   9.105  20.881  0.00  0.00    +0.000 C 
ATOM     17  C   UNL     1       1.309  10.357  20.288  0.00  0.00    +0.000 C 
ATOM     18  N   UNL     1       0.474  11.570  20.316  0.00  0.00    +0.000 NA
ATOM     19  C   UNL     1       0.040  11.887  21.672  0.00  0.00    +0.000 C 
ATOM     20  C   UNL     1      -0.763  10.746  22.274  0.00  0.00    +0.000 C 
ATOM     21  C   UNL     1       0.042   9.444  22.274  0.00  0.00    +0.000 C 
ATOM     22  H   UNL     1      -0.337  11.436  19.708  0.00  0.00    +0.000 HD
BRANCH  21  23
ATOM     23  O   UNL     1      -0.790   8.368  22.728  0.00  0.00    +0.000 OA
ATOM     24  H   UNL     1      -1.435   8.173  22.023  0.00  0.00    +0.000 HD
ENDBRANCH  21  23
ENDBRANCH   4  16
TORSDOF 4
ENDMDL
MODEL 9
REMARK VINA RESULT:      -5.9      4.787      7.671
REMARK  Name = 
REMARK  5 active torsions:
REMARK  status: ('A' for Active; 'I' for Inactive)
REMARK    1  A    between atoms: C_1  and  O_2
REMARK    2  A    between atoms: O_2  and  C_3
REMARK    3  A    between atoms: C_9  and  N_10
REMARK    4  A    between atoms: N_13  and  C_14
REMARK    5  A    between atoms: C_19  and  O_20
REMARK                            x       y       z     vdW  Elec       q    Type
REMARK                         _______ _______ _______ _____ _____    ______ ____
ROOT
ATOM      1  N   UNL     1       7.832   6.822  18.189  0.00  0.00    +0.000 N 
ATOM      2  C   UNL     1       7.933   8.196  18.076  0.00  0.00    +0.000 C 
ATOM      3  O   UNL     1       7.337   8.903  17.272  0.00  0.00    +0.000 OA
ATOM      4  N   UNL     1       8.817   8.743  18.982  0.00  0.00    +0.000 N 
ATOM      5  H   UNL     1       8.385   6.361  18.898  0.00  0.00    +0.000 HD
ATOM      6  H   UNL     1       8.866   8.271  19.875  0.00  0.00    +0.000 HD
ENDROOT
BRANCH   1  13
ATOM      7  C   UNL     1       5.945   5.279  17.932  0.00  0.00    +0.000 A 
ATOM      8  C   UNL     1       5.176   4.415  17.132  0.00  0.00    +0.000 A 
ATOM      9  C   UNL     1       5.508   4.198  15.796  0.00  0.00    +0.000 A 
ATOM     10  C   UNL     1       6.604   4.848  15.250  0.00  0.00    +0.000 A 
ATOM     11 CL   UNL     1       7.023   4.570  13.604  0.00  0.00    +0.000 Cl
ATOM     12  C   UNL     1       7.369   5.717  16.023  0.00  0.00    +0.000 A 
ATOM     13  C   UNL     1       7.057   5.951  17.369  0.00  0.00    +0.000 A 
BRANCH   7  15
ATOM     14  C   UNL     1       4.313   5.317  19.659  0.00  0.00    +0.000 C 
ATOM     15  O   UNL     1       5.667   5.526  19.259  0.00  0.00    +0.000 OA
ENDBRANCH   7  15
ENDBRANCH   1  13
BRANCH   4  16
ATOM     16  C   UNL     1       9.008  10.208  19.049  0.00  0.00    +0.000 C 
ATOM     17  C   UNL     1       9.762  10.784  17.826  0.00  0.00    +0.000 C 
ATOM     18  N   UNL     1      10.103  12.212  17.950  0.00  0.00    +0.000 NA
ATOM     19  C   UNL     1      10.905  12.466  19.142  0.00  0.00    +0.000 C 
ATOM     20  C   UNL     1      10.167  12.044  20.403  0.00  0.00    +0.000 C 
ATOM     21  C   UNL     1       9.774  10.566  20.343  0.00  0.00    +0.000 C 
ATOM     22  H   UNL     1       9.242  12.763  17.980  0.00  0.00    +0.000 HD
BRANCH  21  23
ATOM     23  O   UNL     1       8.972  10.238  21.486  0.00  0.00    +0.000 OA
ATOM     24  H   UNL     1       8.039  10.393  21.248  0.00  0.00    +0.000 HD
ENDBRANCH  21  23
ENDBRANCH   4  16
TORSDOF 4
ENDMDL
