MODEL 1
REMARK VINA RESULT:      -8.0      0.000      0.000
REMARK  Name = 
REMARK  4 active torsions:
REMARK  status: ('A' for Active; 'I' for Inactive)
REMARK    1  A    between atoms: C_1  and  C_2
REMARK    2  A    between atoms: N_4  and  C_5
REMARK    3  A    between atoms: C_8  and  C_9
REMARK    4  A    between atoms: N_10  and  N_11
REMARK                            x       y       z     vdW  Elec       q    Type
REMARK                         _______ _______ _______ _____ _____    ______ ____
ROOT
ATOM      1  C   UNL     1       8.273   8.476  18.124  0.00  0.00    +0.000 C 
ATOM      2  N   UNL     1       7.415   8.265  17.174  0.00  0.00    +0.000 NA
ENDROOT
BRANCH   2   3
ATOM      3  N   UNL     1       7.136   6.942  16.891  0.00  0.00    +0.000 N 
ATOM      4  C   UNL     1       5.937   6.335  17.098  0.00  0.00    +0.000 A 
ATOM      5  N   UNL     1       4.794   6.875  17.463  0.00  0.00    +0.000 NA
ATOM      6  C   UNL     1       3.894   5.853  17.535  0.00  0.00    +0.000 A 
ATOM      7  C   UNL     1       2.538   5.897  17.878  0.00  0.00    +0.000 A 
ATOM      8  C   UNL     1       1.823   4.697  17.916  0.00  0.00    +0.000 A 
ATOM      9  C   UNL     1       2.448   3.485  17.610  0.00  0.00    +0.000 A 
ATOM     10  C   UNL     1       3.801   3.428  17.238  0.00  0.00    +0.000 A 
ATOM     11  C   UNL     1       4.491   4.641  17.214  0.00  0.00    +0.000 A 
ATOM     12  N   UNL     1       5.788   4.982  16.909  0.00  0.00    +0.000 N 
ATOM     13  H   UNL     1       7.970   6.358  16.908  0.00  0.00    +0.000 HD
ATOM     14  H   UNL     1       6.506   4.353  16.586  0.00  0.00    +0.000 HD
ENDBRANCH   2   3
BRANCH   1  18
ATOM     15  C   UNL     1       9.685  12.386  19.131  0.00  0.00    +0.000 A 
ATOM     16  C   UNL     1       9.902  11.313  20.004  0.00  0.00    +0.000 A 
ATOM     17  C   UNL     1       9.429  10.034  19.702  0.00  0.00    +0.000 A 
ATOM     18  C   UNL     1       8.740   9.819  18.514  0.00  0.00    +0.000 A 
ATOM     19  C   UNL     1       8.486  10.886  17.646  0.00  0.00    +0.000 A 
ATOM     20  C   UNL     1       8.947  12.169  17.961  0.00  0.00    +0.000 A 
BRANCH  15  24
ATOM     21  C   UNL     1      11.653  15.577  19.549  0.00  0.00    +0.000 C 
ATOM     22  C   UNL     1      11.436  14.156  19.084  0.00  0.00    +0.000 C 
ATOM     23  O   UNL     1      12.333  13.545  18.515  0.00  0.00    +0.000 OA
ATOM     24  N   UNL     1      10.164  13.690  19.374  0.00  0.00    +0.000 N 
ATOM     25  H   UNL     1       9.488  14.368  19.700  0.00  0.00    +0.000 HD
ENDBRANCH  15  24
ENDBRANCH   1  18
TORSDOF 3
ENDMDL
MODEL 2
REMARK VINA RESULT:      -7.9      6.521      8.800
REMARK  Name = 
REMARK  4 active torsions:
REMARK  status: ('A' for Active; 'I' for Inactive)
REMARK    1  A    between atoms: C_1  and  C_2
REMARK    2  A    between atoms: N_4  and  C_5
REMARK    3  A    between atoms: C_8  and  C_9
REMARK    4  A    between atoms: N_10  and  N_11
REMARK                            x       y       z     vdW  Elec       q    Type
REMARK                         _______ _______ _______ _____ _____    ______ ____
ROOT
ATOM      1  C   UNL     1       3.893   5.744  18.692  0.00  0.00    +0.000 C 
ATOM      2  N   UNL     1       3.023   6.700  18.812  0.00  0.00    +0.000 NA
ENDROOT
BRANCH   2   3
ATOM      3  N   UNL     1       2.470   6.862  20.067  0.00  0.00    +0.000 N 
ATOM      4  C   UNL     1       1.694   7.912  20.448  0.00  0.00    +0.000 A 
ATOM      5  N   UNL     1       1.204   8.884  19.709  0.00  0.00    +0.000 NA
ATOM      6  C   UNL     1       0.495   9.686  20.553  0.00  0.00    +0.000 A 
ATOM      7  C   UNL     1      -0.220  10.854  20.264  0.00  0.00    +0.000 A 
ATOM      8  C   UNL     1      -0.843  11.529  21.316  0.00  0.00    +0.000 A 
ATOM      9  C   UNL     1      -0.760  11.043  22.624  0.00  0.00    +0.000 A 
ATOM     10  C   UNL     1      -0.069   9.858  22.925  0.00  0.00    +0.000 A 
ATOM     11  C   UNL     1       0.549   9.208  21.855  0.00  0.00    +0.000 A 
ATOM     12  N   UNL     1       1.294   8.057  21.755  0.00  0.00    +0.000 N 
ATOM     13  H   UNL     1       3.003   6.382  20.791  0.00  0.00    +0.000 HD
ATOM     14  H   UNL     1       1.501   7.418  22.506  0.00  0.00    +0.000 HD
ENDBRANCH   2   3
BRANCH   1  18
ATOM     15  C   UNL     1       5.846   4.628  15.053  0.00  0.00    +0.000 A 
ATOM     16  C   UNL     1       5.498   5.964  15.284  0.00  0.00    +0.000 A 
ATOM     17  C   UNL     1       4.840   6.344  16.457  0.00  0.00    +0.000 A 
ATOM     18  C   UNL     1       4.533   5.383  17.413  0.00  0.00    +0.000 A 
ATOM     19  C   UNL     1       4.844   4.039  17.185  0.00  0.00    +0.000 A 
ATOM     20  C   UNL     1       5.487   3.662  16.001  0.00  0.00    +0.000 A 
BRANCH  15  24
ATOM     21  C   UNL     1       6.979   3.226  11.740  0.00  0.00    +0.000 C 
ATOM     22  C   UNL     1       5.954   3.673  12.757  0.00  0.00    +0.000 C 
ATOM     23  O   UNL     1       4.757   3.557  12.523  0.00  0.00    +0.000 OA
ATOM     24  N   UNL     1       6.534   4.195  13.901  0.00  0.00    +0.000 N 
ATOM     25  H   UNL     1       7.530   4.372  13.874  0.00  0.00    +0.000 HD
ENDBRANCH  15  24
ENDBRANCH   1  18
TORSDOF 3
ENDMDL
MODEL 3
REMARK VINA RESULT:      -7.8      6.078      8.593
REMARK  Name = 
REMARK  4 active torsions:
REMARK  status: ('A' for Active; 'I' for Inactive)
REMARK    1  A    between atoms: C_1  and  C_2
REMARK    2  A    between atoms: N_4  and  C_5
REMARK    3  A    between atoms: C_8  and  C_9
REMARK    4  A    between atoms: N_10  and  N_11
REMARK                            x       y       z     vdW  Elec       q    Type
REMARK                         _______ _______ _______ _____ _____    ______ ____
ROOT
ATOM      1  C   UNL     1       3.369   6.129  19.334  0.00  0.00    +0.000 C 
ATOM      2  N   UNL     1       2.556   7.139  19.384  0.00  0.00    +0.000 NA
ENDROOT
BRANCH   2   3
ATOM      3  N   UNL     1       1.984   7.397  20.614  0.00  0.00    +0.000 N 
ATOM      4  C   UNL     1       1.159   8.445  20.888  0.00  0.00    +0.000 A 
ATOM      5  N   UNL     1       0.636   9.319  20.055  0.00  0.00    +0.000 NA
ATOM      6  C   UNL     1      -0.114  10.167  20.813  0.00  0.00    +0.000 A 
ATOM      7  C   UNL     1      -0.876  11.269  20.409  0.00  0.00    +0.000 A 
ATOM      8  C   UNL     1      -1.538  12.015  21.387  0.00  0.00    +0.000 A 
ATOM      9  C   UNL     1      -1.447  11.660  22.737  0.00  0.00    +0.000 A 
ATOM     10  C   UNL     1      -0.709  10.541  23.155  0.00  0.00    +0.000 A 
ATOM     11  C   UNL     1      -0.054   9.819  22.156  0.00  0.00    +0.000 A 
ATOM     12  N   UNL     1       0.741   8.697  22.173  0.00  0.00    +0.000 N 
ATOM     13  H   UNL     1       2.529   7.012  21.384  0.00  0.00    +0.000 HD
ATOM     14  H   UNL     1       0.968   8.143  22.982  0.00  0.00    +0.000 HD
ENDBRANCH   2   3
BRANCH   1  18
ATOM     15  C   UNL     1       5.167   4.875  15.661  0.00  0.00    +0.000 A 
ATOM     16  C   UNL     1       4.690   3.925  16.571  0.00  0.00    +0.000 A 
ATOM     17  C   UNL     1       4.120   4.315  17.786  0.00  0.00    +0.000 A 
ATOM     18  C   UNL     1       4.016   5.667  18.093  0.00  0.00    +0.000 A 
ATOM     19  C   UNL     1       4.517   6.628  17.209  0.00  0.00    +0.000 A 
ATOM     20  C   UNL     1       5.102   6.232  16.003  0.00  0.00    +0.000 A 
BRANCH  15  24
ATOM     21  C   UNL     1       7.263   4.410  12.560  0.00  0.00    +0.000 C 
ATOM     22  C   UNL     1       7.009   4.839  13.987  0.00  0.00    +0.000 C 
ATOM     23  O   UNL     1       7.892   5.385  14.637  0.00  0.00    +0.000 OA
ATOM     24  N   UNL     1       5.725   4.538  14.411  0.00  0.00    +0.000 N 
ATOM     25  H   UNL     1       5.169   3.941  13.812  0.00  0.00    +0.000 HD
ENDBRANCH  15  24
ENDBRANCH   1  18
TORSDOF 3
ENDMDL
MODEL 4
REMARK VINA RESULT:      -7.8      0.362      1.087
REMARK  Name = 
REMARK  4 active torsions:
REMARK  status: ('A' for Active; 'I' for Inactive)
REMARK    1  A    between atoms: C_1  and  C_2
REMARK    2  A    between atoms: N_4  and  C_5
REMARK    3  A    between atoms: C_8  and  C_9
REMARK    4  A    between atoms: N_10  and  N_11
REMARK                            x       y       z     vdW  Elec       q    Type
REMARK                         _______ _______ _______ _____ _____    ______ ____
ROOT
ATOM      1  C   UNL     1       8.312   8.484  18.120  0.00  0.00    +0.000 C 
ATOM      2  N   UNL     1       7.424   8.265  17.199  0.00  0.00    +0.000 NA
ENDROOT
BRANCH   2   3
ATOM      3  N   UNL     1       7.165   6.940  16.907  0.00  0.00    +0.000 N 
ATOM      4  C   UNL     1       5.976   6.313  17.116  0.00  0.00    +0.000 A 
ATOM      5  N   UNL     1       4.826   6.832  17.489  0.00  0.00    +0.000 NA
ATOM      6  C   UNL     1       3.944   5.796  17.557  0.00  0.00    +0.000 A 
ATOM      7  C   UNL     1       2.589   5.815  17.906  0.00  0.00    +0.000 A 
ATOM      8  C   UNL     1       1.893   4.605  17.938  0.00  0.00    +0.000 A 
ATOM      9  C   UNL     1       2.535   3.405  17.621  0.00  0.00    +0.000 A 
ATOM     10  C   UNL     1       3.887   3.372  17.243  0.00  0.00    +0.000 A 
ATOM     11  C   UNL     1       4.558   4.596  17.225  0.00  0.00    +0.000 A 
ATOM     12  N   UNL     1       5.849   4.959  16.917  0.00  0.00    +0.000 N 
ATOM     13  H   UNL     1       8.009   6.369  16.917  0.00  0.00    +0.000 HD
ATOM     14  H   UNL     1       6.574   4.344  16.586  0.00  0.00    +0.000 HD
ENDBRANCH   2   3
BRANCH   1  18
ATOM     15  C   UNL     1       9.544  12.383  19.373  0.00  0.00    +0.000 A 
ATOM     16  C   UNL     1       9.040  12.186  18.082  0.00  0.00    +0.000 A 
ATOM     17  C   UNL     1       8.653  10.915  17.647  0.00  0.00    +0.000 A 
ATOM     18  C   UNL     1       8.762   9.831  18.512  0.00  0.00    +0.000 A 
ATOM     19  C   UNL     1       9.293  10.006  19.794  0.00  0.00    +0.000 A 
ATOM     20  C   UNL     1       9.695  11.276  20.217  0.00  0.00    +0.000 A 
BRANCH  15  24
ATOM     21  C   UNL     1      11.279  15.533  20.511  0.00  0.00    +0.000 C 
ATOM     22  C   UNL     1      11.190  14.200  19.805  0.00  0.00    +0.000 C 
ATOM     23  O   UNL     1      12.176  13.723  19.254  0.00  0.00    +0.000 OA
ATOM     24  N   UNL     1       9.922  13.647  19.871  0.00  0.00    +0.000 N 
ATOM     25  H   UNL     1       9.179  14.238  20.220  0.00  0.00    +0.000 HD
ENDBRANCH  15  24
ENDBRANCH   1  18
TORSDOF 3
ENDMDL
MODEL 5
REMARK VINA RESULT:      -7.7      1.171      1.171
REMARK  Name = 
REMARK  4 active torsions:
REMARK  status: ('A' for Active; 'I' for Inactive)
REMARK    1  A    between atoms: C_1  and  C_2
REMARK    2  A    between atoms: N_4  and  C_5
REMARK    3  A    between atoms: C_8  and  C_9
REMARK    4  A    between atoms: N_10  and  N_11
REMARK                            x       y       z     vdW  Elec       q    Type
REMARK                         _______ _______ _______ _____ _____    ______ ____
ROOT
ATOM      1  C   UNL     1       8.161   8.319  18.123  0.00  0.00    +0.000 C 
ATOM      2  N   UNL     1       7.730   7.972  16.948  0.00  0.00    +0.000 NA
ENDROOT
BRANCH   2   3
ATOM      3  N   UNL     1       7.399   6.640  16.792  0.00  0.00    +0.000 N 
ATOM      4  C   UNL     1       6.174   6.106  17.049  0.00  0.00    +0.000 A 
ATOM      5  N   UNL     1       5.053   6.725  17.352  0.00  0.00    +0.000 NA
ATOM      6  C   UNL     1       4.112   5.753  17.516  0.00  0.00    +0.000 A 
ATOM      7  C   UNL     1       2.758   5.885  17.842  0.00  0.00    +0.000 A 
ATOM      8  C   UNL     1       1.994   4.725  17.991  0.00  0.00    +0.000 A 
ATOM      9  C   UNL     1       2.569   3.464  17.808  0.00  0.00    +0.000 A 
ATOM     10  C   UNL     1       3.919   3.316  17.453  0.00  0.00    +0.000 A 
ATOM     11  C   UNL     1       4.659   4.492  17.318  0.00  0.00    +0.000 A 
ATOM     12  N   UNL     1       5.970   4.748  16.990  0.00  0.00    +0.000 N 
ATOM     13  H   UNL     1       8.208   6.027  16.872  0.00  0.00    +0.000 HD
ATOM     14  H   UNL     1       6.662   4.062  16.735  0.00  0.00    +0.000 HD
ENDBRANCH   2   3
BRANCH   1  18
ATOM     15  C   UNL     1       9.552  12.279  18.943  0.00  0.00    +0.000 A 
ATOM     16  C   UNL     1       9.858  11.230  19.819  0.00  0.00    +0.000 A 
ATOM     17  C   UNL     1       9.394   9.935  19.579  0.00  0.00    +0.000 A 
ATOM     18  C   UNL     1       8.623   9.679  18.450  0.00  0.00    +0.000 A 
ATOM     19  C   UNL     1       8.281  10.722  17.582  0.00  0.00    +0.000 A 
ATOM     20  C   UNL     1       8.734  12.020  17.837  0.00  0.00    +0.000 A 
BRANCH  15  24
ATOM     21  C   UNL     1      10.076  15.936  19.706  0.00  0.00    +0.000 C 
ATOM     22  C   UNL     1       9.334  14.620  19.760  0.00  0.00    +0.000 C 
ATOM     23  O   UNL     1       8.251  14.543  20.328  0.00  0.00    +0.000 OA
ATOM     24  N   UNL     1      10.017  13.598  19.123  0.00  0.00    +0.000 N 
ATOM     25  H   UNL     1      10.972  13.784  18.846  0.00  0.00    +0.000 HD
ENDBRANCH  15  24
ENDBRANCH   1  18
TORSDOF 3
ENDMDL
MODEL 6
REMARK VINA RESULT:      -7.6      1.291      1.651
REMARK  Name = 
REMARK  4 active torsions:
REMARK  status: ('A' for Active; 'I' for Inactive)
REMARK    1  A    between atoms: C_1  and  C_2
REMARK    2  A    between atoms: N_4  and  C_5
REMARK    3  A    between atoms: C_8  and  C_9
REMARK    4  A    between atoms: N_10  and  N_11
REMARK                            x       y       z     vdW  Elec       q    Type
REMARK                         _______ _______ _______ _____ _____    ______ ____
ROOT
ATOM      1  C   UNL     1       8.220   8.415  18.120  0.00  0.00    +0.000 C 
ATOM      2  N   UNL     1       7.703   8.064  16.982  0.00  0.00    +0.000 NA
ENDROOT
BRANCH   2   3
ATOM      3  N   UNL     1       7.395   6.725  16.842  0.00  0.00    +0.000 N 
ATOM      4  C   UNL     1       6.176   6.174  17.090  0.00  0.00    +0.000 A 
ATOM      5  N   UNL     1       5.041   6.779  17.366  0.00  0.00    +0.000 NA
ATOM      6  C   UNL     1       4.113   5.794  17.532  0.00  0.00    +0.000 A 
ATOM      7  C   UNL     1       2.753   5.908  17.837  0.00  0.00    +0.000 A 
ATOM      8  C   UNL     1       2.005   4.738  17.993  0.00  0.00    +0.000 A 
ATOM      9  C   UNL     1       2.604   3.485  17.838  0.00  0.00    +0.000 A 
ATOM     10  C   UNL     1       3.961   3.354  17.505  0.00  0.00    +0.000 A 
ATOM     11  C   UNL     1       4.684   4.540  17.362  0.00  0.00    +0.000 A 
ATOM     12  N   UNL     1       5.996   4.812  17.049  0.00  0.00    +0.000 N 
ATOM     13  H   UNL     1       8.213   6.127  16.944  0.00  0.00    +0.000 HD
ATOM     14  H   UNL     1       6.702   4.134  16.814  0.00  0.00    +0.000 HD
ENDBRANCH   2   3
BRANCH   1  18
ATOM     15  C   UNL     1       9.476  12.380  19.117  0.00  0.00    +0.000 A 
ATOM     16  C   UNL     1       8.778  12.141  17.927  0.00  0.00    +0.000 A 
ATOM     17  C   UNL     1       8.379  10.850  17.574  0.00  0.00    +0.000 A 
ATOM     18  C   UNL     1       8.671   9.786  18.420  0.00  0.00    +0.000 A 
ATOM     19  C   UNL     1       9.395  10.002  19.597  0.00  0.00    +0.000 A 
ATOM     20  C   UNL     1       9.807  11.294  19.937  0.00  0.00    +0.000 A 
BRANCH  15  24
ATOM     21  C   UNL     1       9.784  15.929  20.355  0.00  0.00    +0.000 C 
ATOM     22  C   UNL     1       9.059  14.628  20.103  0.00  0.00    +0.000 C 
ATOM     23  O   UNL     1       7.876  14.509  20.399  0.00  0.00    +0.000 OA
ATOM     24  N   UNL     1       9.877  13.666  19.534  0.00  0.00    +0.000 N 
ATOM     25  H   UNL     1      10.869  13.864  19.501  0.00  0.00    +0.000 HD
ENDBRANCH  15  24
ENDBRANCH   1  18
TORSDOF 3
ENDMDL
MODEL 7
REMARK VINA RESULT:      -7.6      6.480      8.668
REMARK  Name = 
REMARK  4 active torsions:
REMARK  status: ('A' for Active; 'I' for Inactive)
REMARK    1  A    between atoms: C_1  and  C_2
REMARK    2  A    between atoms: N_4  and  C_5
REMARK    3  A    between atoms: C_8  and  C_9
REMARK    4  A    between atoms: N_10  and  N_11
REMARK                            x       y       z     vdW  Elec       q    Type
REMARK                         _______ _______ _______ _____ _____    ______ ____
ROOT
ATOM      1  C   UNL     1       3.956   5.756  18.877  0.00  0.00    +0.000 C 
ATOM      2  N   UNL     1       3.006   6.641  18.907  0.00  0.00    +0.000 NA
ENDROOT
BRANCH   2   3
ATOM      3  N   UNL     1       2.383   6.821  20.126  0.00  0.00    +0.000 N 
ATOM      4  C   UNL     1       1.652   7.915  20.475  0.00  0.00    +0.000 A 
ATOM      5  N   UNL     1       1.277   8.927  19.723  0.00  0.00    +0.000 NA
ATOM      6  C   UNL     1       0.568   9.763  20.533  0.00  0.00    +0.000 A 
ATOM      7  C   UNL     1      -0.050  10.979  20.220  0.00  0.00    +0.000 A 
ATOM      8  C   UNL     1      -0.696  11.679  21.242  0.00  0.00    +0.000 A 
ATOM      9  C   UNL     1      -0.732  11.169  22.543  0.00  0.00    +0.000 A 
ATOM     10  C   UNL     1      -0.141   9.937  22.867  0.00  0.00    +0.000 A 
ATOM     11  C   UNL     1       0.503   9.263  21.828  0.00  0.00    +0.000 A 
ATOM     12  N   UNL     1       1.177   8.067  21.756  0.00  0.00    +0.000 N 
ATOM     13  H   UNL     1       2.833   6.296  20.874  0.00  0.00    +0.000 HD
ATOM     14  H   UNL     1       1.292   7.405  22.506  0.00  0.00    +0.000 HD
ENDBRANCH   2   3
BRANCH   1  18
ATOM     15  C   UNL     1       5.961   4.730  15.242  0.00  0.00    +0.000 A 
ATOM     16  C   UNL     1       5.804   3.774  16.252  0.00  0.00    +0.000 A 
ATOM     17  C   UNL     1       5.171   4.097  17.455  0.00  0.00    +0.000 A 
ATOM     18  C   UNL     1       4.682   5.384  17.650  0.00  0.00    +0.000 A 
ATOM     19  C   UNL     1       4.860   6.360  16.664  0.00  0.00    +0.000 A 
ATOM     20  C   UNL     1       5.510   6.036  15.469  0.00  0.00    +0.000 A 
BRANCH  15  24
ATOM     21  C   UNL     1       6.908   3.614  11.765  0.00  0.00    +0.000 C 
ATOM     22  C   UNL     1       5.955   3.846  12.915  0.00  0.00    +0.000 C 
ATOM     23  O   UNL     1       4.779   3.511  12.823  0.00  0.00    +0.000 OA
ATOM     24  N   UNL     1       6.567   4.451  14.000  0.00  0.00    +0.000 N 
ATOM     25  H   UNL     1       7.502   4.812  13.859  0.00  0.00    +0.000 HD
ENDBRANCH  15  24
ENDBRANCH   1  18
TORSDOF 3
ENDMDL
MODEL 8
REMARK VINA RESULT:      -7.6      1.779      2.162
REMARK  Name = 
REMARK  4 active torsions:
REMARK  status: ('A' for Active; 'I' for Inactive)
REMARK    1  A    between atoms: C_1  and  C_2
REMARK    2  A    between atoms: N_4  and  C_5
REMARK    3  A    between atoms: C_8  and  C_9
REMARK    4  A    between atoms: N_10  and  N_11
REMARK                            x       y       z     vdW  Elec       q    Type
REMARK                         _______ _______ _______ _____ _____    ______ ____
ROOT
ATOM      1  C   UNL     1       8.869   9.429  18.881  0.00  0.00    +0.000 C 
ATOM      2  N   UNL     1       8.572   8.415  18.126  0.00  0.00    +0.000 NA
ENDROOT
BRANCH   2   3
ATOM      3  N   UNL     1       8.259   7.241  18.782  0.00  0.00    +0.000 N 
ATOM      4  C   UNL     1       7.187   6.452  18.502  0.00  0.00    +0.000 A 
ATOM      5  N   UNL     1       6.331   6.549  17.507  0.00  0.00    +0.000 NA
ATOM      6  C   UNL     1       5.442   5.528  17.667  0.00  0.00    +0.000 A 
ATOM      7  C   UNL     1       4.340   5.189  16.875  0.00  0.00    +0.000 A 
ATOM      8  C   UNL     1       3.547   4.108  17.266  0.00  0.00    +0.000 A 
ATOM      9  C   UNL     1       3.857   3.377  18.417  0.00  0.00    +0.000 A 
ATOM     10  C   UNL     1       4.975   3.687  19.207  0.00  0.00    +0.000 A 
ATOM     11  C   UNL     1       5.745   4.777  18.795  0.00  0.00    +0.000 A 
ATOM     12  N   UNL     1       6.882   5.369  19.293  0.00  0.00    +0.000 N 
ATOM     13  H   UNL     1       8.629   7.216  19.731  0.00  0.00    +0.000 HD
ATOM     14  H   UNL     1       7.413   5.057  20.090  0.00  0.00    +0.000 HD
ENDBRANCH   2   3
BRANCH   1  18
ATOM     15  C   UNL     1      10.178  13.246  17.463  0.00  0.00    +0.000 A 
ATOM     16  C   UNL     1       8.812  12.942  17.506  0.00  0.00    +0.000 A 
ATOM     17  C   UNL     1       8.367  11.692  17.946  0.00  0.00    +0.000 A 
ATOM     18  C   UNL     1       9.292  10.738  18.354  0.00  0.00    +0.000 A 
ATOM     19  C   UNL     1      10.662  11.014  18.286  0.00  0.00    +0.000 A 
ATOM     20  C   UNL     1      11.103  12.260  17.829  0.00  0.00    +0.000 A 
BRANCH  15  24
ATOM     21  C   UNL     1      11.313  16.823  17.091  0.00  0.00    +0.000 C 
ATOM     22  C   UNL     1      10.829  15.615  17.859  0.00  0.00    +0.000 C 
ATOM     23  O   UNL     1      10.616  15.691  19.064  0.00  0.00    +0.000 OA
ATOM     24  N   UNL     1      10.679  14.498  17.055  0.00  0.00    +0.000 N 
ATOM     25  H   UNL     1      11.050  14.554  16.115  0.00  0.00    +0.000 HD
ENDBRANCH  15  24
ENDBRANCH   1  18
TORSDOF 3
ENDMDL
MODEL 9
REMARK VINA RESULT:      -7.5      3.685      9.508
REMARK  Name = 
REMARK  4 active torsions:
REMARK  status: ('A' for Active; 'I' for Inactive)
REMARK    1  A    between atoms: C_1  and  C_2
REMARK    2  A    between atoms: N_4  and  C_5
REMARK    3  A    between atoms: C_8  and  C_9
REMARK    4  A    between atoms: N_10  and  N_11
REMARK                            x       y       z     vdW  Elec       q    Type
REMARK                         _______ _______ _______ _____ _____    ______ ____
ROOT
ATOM      1  C   UNL     1       7.443   6.898  18.043  0.00  0.00    +0.000 C 
ATOM      2  N   UNL     1       8.282   7.878  17.899  0.00  0.00    +0.000 NA
ENDROOT
BRANCH   2   3
ATOM      3  N   UNL     1       8.624   8.558  19.052  0.00  0.00    +0.000 N 
ATOM      4  C   UNL     1       9.112   9.827  19.093  0.00  0.00    +0.000 A 
ATOM      5  N   UNL     1       9.230  10.696  18.112  0.00  0.00    +0.000 NA
ATOM      6  C   UNL     1       9.773  11.820  18.660  0.00  0.00    +0.000 A 
ATOM      7  C   UNL     1      10.098  13.032  18.041  0.00  0.00    +0.000 A 
ATOM      8  C   UNL     1      10.684  14.037  18.814  0.00  0.00    +0.000 A 
ATOM      9  C   UNL     1      10.930  13.837  20.175  0.00  0.00    +0.000 A 
ATOM     10  C   UNL     1      10.585  12.637  20.816  0.00  0.00    +0.000 A 
ATOM     11  C   UNL     1      10.007  11.648  20.018  0.00  0.00    +0.000 A 
ATOM     12  N   UNL     1       9.547  10.378  20.276  0.00  0.00    +0.000 N 
ATOM     13  H   UNL     1       8.876   7.930  19.813  0.00  0.00    +0.000 HD
ATOM     14  H   UNL     1       9.517   9.930  21.177  0.00  0.00    +0.000 HD
ENDBRANCH   2   3
BRANCH   1  18
ATOM     15  C   UNL     1       5.787   4.618  14.826  0.00  0.00    +0.000 A 
ATOM     16  C   UNL     1       6.893   4.134  15.534  0.00  0.00    +0.000 A 
ATOM     17  C   UNL     1       7.461   4.875  16.574  0.00  0.00    +0.000 A 
ATOM     18  C   UNL     1       6.916   6.108  16.916  0.00  0.00    +0.000 A 
ATOM     19  C   UNL     1       5.830   6.620  16.198  0.00  0.00    +0.000 A 
ATOM     20  C   UNL     1       5.277   5.882  15.147  0.00  0.00    +0.000 A 
BRANCH  15  24
ATOM     21  C   UNL     1       4.736   2.904  11.634  0.00  0.00    +0.000 C 
ATOM     22  C   UNL     1       5.705   3.619  12.547  0.00  0.00    +0.000 C 
ATOM     23  O   UNL     1       6.838   3.885  12.163  0.00  0.00    +0.000 OA
ATOM     24  N   UNL     1       5.158   3.900  13.788  0.00  0.00    +0.000 N 
ATOM     25  H   UNL     1       4.268   3.472  14.007  0.00  0.00    +0.000 HD
ENDBRANCH  15  24
ENDBRANCH   1  18
TORSDOF 3
ENDMDL
