MODEL 1
REMARK VINA RESULT:      -6.6      0.000      0.000
REMARK  Name = 
REMARK  4 active torsions:
REMARK  status: ('A' for Active; 'I' for Inactive)
REMARK    1  A    between atoms: N_6  and  C_7
REMARK    2  A    between atoms: C_7  and  C_8
REMARK    3  A    between atoms: C_9  and  C_10
REMARK    4  A    between atoms: C_10  and  N_11
REMARK                            x       y       z     vdW  Elec       q    Type
REMARK                         _______ _______ _______ _____ _____    ______ ____
ROOT
ATOM      1  C   UNL     1       5.136   4.011  16.438  0.00  0.00    +0.000 C 
ATOM      2  C   UNL     1       3.972   3.651  16.901  0.00  0.00    +0.000 C 
ENDROOT
BRANCH   1   3
ATOM      3  C   UNL     1       6.494   4.433  15.900  0.00  0.00    +0.000 C 
BRANCH   3   9
ATOM      4  O   UNL     1       7.865   4.276  18.300  0.00  0.00    +0.000 OA
ATOM      5  C   UNL     1       7.655   5.347  17.747  0.00  0.00    +0.000 C 
ATOM      6  C   UNL     1       7.737   6.657  18.426  0.00  0.00    +0.000 C 
ATOM      7  C   UNL     1       6.995   7.554  17.471  0.00  0.00    +0.000 C 
ATOM      8  O   UNL     1       6.696   6.822  16.268  0.00  0.00    +0.000 OA
ATOM      9  N   UNL     1       7.280   5.535  16.403  0.00  0.00    +0.000 N 
ENDBRANCH   3   9
ENDBRANCH   1   3
BRANCH   2  10
ATOM     10  C   UNL     1       2.622   3.288  17.353  0.00  0.00    +0.000 C 
BRANCH  10  11
ATOM     11  N   UNL     1       2.489   3.467  18.808  0.00  0.00    +0.000 NA
ATOM     12  C   UNL     1       1.065   3.517  19.176  0.00  0.00    +0.000 C 
ATOM     13  C   UNL     1       0.888   3.764  20.674  0.00  0.00    +0.000 C 
ATOM     14  C   UNL     1       1.628   2.719  21.502  0.00  0.00    +0.000 C 
ATOM     15  C   UNL     1       3.081   2.628  21.059  0.00  0.00    +0.000 C 
ATOM     16  C   UNL     1       3.185   2.405  19.551  0.00  0.00    +0.000 C 
ENDBRANCH  10  11
ENDBRANCH   2  10
TORSDOF 4
ENDMDL
MODEL 2
REMARK VINA RESULT:      -6.4      1.375      1.500
REMARK  Name = 
REMARK  4 active torsions:
REMARK  status: ('A' for Active; 'I' for Inactive)
REMARK    1  A    between atoms: N_6  and  C_7
REMARK    2  A    between atoms: C_7  and  C_8
REMARK    3  A    between atoms: C_9  and  C_10
REMARK    4  A    between atoms: C_10  and  N_11
REMARK                            x       y       z     vdW  Elec       q    Type
REMARK                         _______ _______ _______ _____ _____    ______ ____
ROOT
ATOM      1  C   UNL     1       4.833   5.062  17.457  0.00  0.00    +0.000 C 
ATOM      2  C   UNL     1       3.584   5.345  17.704  0.00  0.00    +0.000 C 
ENDROOT
BRANCH   1   3
ATOM      3  C   UNL     1       6.288   4.730  17.170  0.00  0.00    +0.000 C 
BRANCH   3   9
ATOM      4  O   UNL     1       7.609   5.177  19.562  0.00  0.00    +0.000 OA
ATOM      5  C   UNL     1       7.722   5.939  18.612  0.00  0.00    +0.000 C 
ATOM      6  C   UNL     1       8.219   7.327  18.720  0.00  0.00    +0.000 C 
ATOM      7  C   UNL     1       7.762   7.929  17.417  0.00  0.00    +0.000 C 
ATOM      8  O   UNL     1       7.222   6.890  16.580  0.00  0.00    +0.000 OA
ATOM      9  N   UNL     1       7.387   5.662  17.272  0.00  0.00    +0.000 N 
ENDBRANCH   3   9
ENDBRANCH   1   3
BRANCH   2  10
ATOM     10  C   UNL     1       2.205   5.709  18.054  0.00  0.00    +0.000 C 
BRANCH  10  11
ATOM     11  N   UNL     1       1.682   4.830  19.113  0.00  0.00    +0.000 NA
ATOM     12  C   UNL     1       1.459   3.479  18.575  0.00  0.00    +0.000 C 
ATOM     13  C   UNL     1       0.857   2.553  19.632  0.00  0.00    +0.000 C 
ATOM     14  C   UNL     1       1.722   2.504  20.887  0.00  0.00    +0.000 C 
ATOM     15  C   UNL     1       2.004   3.912  21.388  0.00  0.00    +0.000 C 
ATOM     16  C   UNL     1       2.580   4.788  20.278  0.00  0.00    +0.000 C 
ENDBRANCH  10  11
ENDBRANCH   2  10
TORSDOF 4
ENDMDL
MODEL 3
REMARK VINA RESULT:      -6.3      2.496      6.126
REMARK  Name = 
REMARK  4 active torsions:
REMARK  status: ('A' for Active; 'I' for Inactive)
REMARK    1  A    between atoms: N_6  and  C_7
REMARK    2  A    between atoms: C_7  and  C_8
REMARK    3  A    between atoms: C_9  and  C_10
REMARK    4  A    between atoms: C_10  and  N_11
REMARK                            x       y       z     vdW  Elec       q    Type
REMARK                         _______ _______ _______ _____ _____    ______ ____
ROOT
ATOM      1  C   UNL     1       3.840   3.017  17.525  0.00  0.00    +0.000 C 
ATOM      2  C   UNL     1       4.337   3.984  16.807  0.00  0.00    +0.000 C 
ENDROOT
BRANCH   1   3
ATOM      3  C   UNL     1       3.258   1.889  18.363  0.00  0.00    +0.000 C 
BRANCH   3   9
ATOM      4  O   UNL     1       0.573   2.563  18.364  0.00  0.00    +0.000 OA
ATOM      5  C   UNL     1       1.264   2.669  19.368  0.00  0.00    +0.000 C 
ATOM      6  C   UNL     1       0.900   3.496  20.538  0.00  0.00    +0.000 C 
ATOM      7  C   UNL     1       2.218   3.625  21.255  0.00  0.00    +0.000 C 
ATOM      8  O   UNL     1       3.188   2.771  20.622  0.00  0.00    +0.000 OA
ATOM      9  N   UNL     1       2.517   2.065  19.589  0.00  0.00    +0.000 N 
ENDBRANCH   3   9
ENDBRANCH   1   3
BRANCH   2  10
ATOM     10  C   UNL     1       4.938   5.105  16.071  0.00  0.00    +0.000 C 
BRANCH  10  11
ATOM     11  N   UNL     1       6.224   5.499  16.671  0.00  0.00    +0.000 NA
ATOM     12  C   UNL     1       6.201   6.932  17.002  0.00  0.00    +0.000 C 
ATOM     13  C   UNL     1       7.545   7.391  17.571  0.00  0.00    +0.000 C 
ATOM     14  C   UNL     1       7.949   6.558  18.782  0.00  0.00    +0.000 C 
ATOM     15  C   UNL     1       7.896   5.076  18.445  0.00  0.00    +0.000 C 
ATOM     16  C   UNL     1       6.538   4.691  17.860  0.00  0.00    +0.000 C 
ENDBRANCH  10  11
ENDBRANCH   2  10
TORSDOF 4
ENDMDL
MODEL 4
REMARK VINA RESULT:      -6.3      1.058      1.375
REMARK  Name = 
REMARK  4 active torsions:
REMARK  status: ('A' for Active; 'I' for Inactive)
REMARK    1  A    between atoms: N_6  and  C_7
REMARK    2  A    between atoms: C_7  and  C_8
REMARK    3  A    between atoms: C_9  and  C_10
REMARK    4  A    between atoms: C_10  and  N_11
REMARK                            x       y       z     vdW  Elec       q    Type
REMARK                         _______ _______ _______ _____ _____    ______ ____
ROOT
ATOM      1  C   UNL     1       5.093   3.914  16.406  0.00  0.00    +0.000 C 
ATOM      2  C   UNL     1       3.893   3.592  16.800  0.00  0.00    +0.000 C 
ENDROOT
BRANCH   1   3
ATOM      3  C   UNL     1       6.492   4.291  15.945  0.00  0.00    +0.000 C 
BRANCH   3   9
ATOM      4  O   UNL     1       7.951   4.308  18.297  0.00  0.00    +0.000 OA
ATOM      5  C   UNL     1       7.655   5.342  17.716  0.00  0.00    +0.000 C 
ATOM      6  C   UNL     1       7.676   6.679  18.346  0.00  0.00    +0.000 C 
ATOM      7  C   UNL     1       6.845   7.493  17.388  0.00  0.00    +0.000 C 
ATOM      8  O   UNL     1       6.554   6.699  16.223  0.00  0.00    +0.000 OA
ATOM      9  N   UNL     1       7.222   5.457  16.380  0.00  0.00    +0.000 N 
ENDBRANCH   3   9
ENDBRANCH   1   3
BRANCH   2  10
ATOM     10  C   UNL     1       2.540   3.166  17.182  0.00  0.00    +0.000 C 
BRANCH  10  11
ATOM     11  N   UNL     1       1.990   4.039  18.232  0.00  0.00    +0.000 NA
ATOM     12  C   UNL     1       1.582   3.229  19.391  0.00  0.00    +0.000 C 
ATOM     13  C   UNL     1       0.948   4.096  20.479  0.00  0.00    +0.000 C 
ATOM     14  C   UNL     1       1.881   5.225  20.904  0.00  0.00    +0.000 C 
ATOM     15  C   UNL     1       2.352   6.007  19.687  0.00  0.00    +0.000 C 
ATOM     16  C   UNL     1       2.951   5.078  18.632  0.00  0.00    +0.000 C 
ENDBRANCH  10  11
ENDBRANCH   2  10
TORSDOF 4
ENDMDL
MODEL 5
REMARK VINA RESULT:      -6.2      1.848      2.757
REMARK  Name = 
REMARK  4 active torsions:
REMARK  status: ('A' for Active; 'I' for Inactive)
REMARK    1  A    between atoms: N_6  and  C_7
REMARK    2  A    between atoms: C_7  and  C_8
REMARK    3  A    between atoms: C_9  and  C_10
REMARK    4  A    between atoms: C_10  and  N_11
REMARK                            x       y       z     vdW  Elec       q    Type
REMARK                         _______ _______ _______ _____ _____    ______ ____
ROOT
ATOM      1  C   UNL     1       5.171   5.428  18.798  0.00  0.00    +0.000 C 
ATOM      2  C   UNL     1       3.992   5.818  19.195  0.00  0.00    +0.000 C 
ENDROOT
BRANCH   1   3
ATOM      3  C   UNL     1       6.546   4.974  18.334  0.00  0.00    +0.000 C 
BRANCH   3   9
ATOM      4  O   UNL     1       7.616   6.579  16.349  0.00  0.00    +0.000 OA
ATOM      5  C   UNL     1       7.117   5.491  16.098  0.00  0.00    +0.000 C 
ATOM      6  C   UNL     1       6.673   5.077  14.750  0.00  0.00    +0.000 C 
ATOM      7  C   UNL     1       5.779   3.905  15.059  0.00  0.00    +0.000 C 
ATOM      8  O   UNL     1       5.881   3.587  16.459  0.00  0.00    +0.000 OA
ATOM      9  N   UNL     1       6.849   4.461  17.019  0.00  0.00    +0.000 N 
ENDBRANCH   3   9
ENDBRANCH   1   3
BRANCH   2  10
ATOM     10  C   UNL     1       2.630   6.185  19.604  0.00  0.00    +0.000 C 
BRANCH  10  11
ATOM     11  N   UNL     1       1.801   4.985  19.809  0.00  0.00    +0.000 NA
ATOM     12  C   UNL     1       1.796   4.168  18.586  0.00  0.00    +0.000 C 
ATOM     13  C   UNL     1       0.894   2.943  18.741  0.00  0.00    +0.000 C 
ATOM     14  C   UNL     1       1.294   2.108  19.953  0.00  0.00    +0.000 C 
ATOM     15  C   UNL     1       1.366   2.983  21.195  0.00  0.00    +0.000 C 
ATOM     16  C   UNL     1       2.262   4.198  20.963  0.00  0.00    +0.000 C 
ENDBRANCH  10  11
ENDBRANCH   2  10
TORSDOF 4
ENDMDL
MODEL 6
REMARK VINA RESULT:      -6.1      0.686      1.377
REMARK  Name = 
REMARK  4 active torsions:
REMARK  status: ('A' for Active; 'I' for Inactive)
REMARK    1  A    between atoms: N_6  and  C_7
REMARK    2  A    between atoms: C_7  and  C_8
REMARK    3  A    between atoms: C_9  and  C_10
REMARK    4  A    between atoms: C_10  and  N_11
REMARK                            x       y       z     vdW  Elec       q    Type
REMARK                         _______ _______ _______ _____ _____    ______ ____
ROOT
ATOM      1  C   UNL     1       5.077   4.425  16.936  0.00  0.00    +0.000 C 
ATOM      2  C   UNL     1       3.813   4.392  17.252  0.00  0.00    +0.000 C 
ENDROOT
BRANCH   1   3
ATOM      3  C   UNL     1       6.551   4.463  16.566  0.00  0.00    +0.000 C 
BRANCH   3   9
ATOM      4  O   UNL     1       7.859   4.739  18.991  0.00  0.00    +0.000 OA
ATOM      5  C   UNL     1       7.776   5.664  18.196  0.00  0.00    +0.000 C 
ATOM      6  C   UNL     1       7.989   7.083  18.553  0.00  0.00    +0.000 C 
ATOM      7  C   UNL     1       7.364   7.800  17.385  0.00  0.00    +0.000 C 
ATOM      8  O   UNL     1       7.007   6.838  16.375  0.00  0.00    +0.000 OA
ATOM      9  N   UNL     1       7.444   5.567  16.830  0.00  0.00    +0.000 N 
ENDBRANCH   3   9
ENDBRANCH   1   3
BRANCH   2  10
ATOM     10  C   UNL     1       2.405   4.282  17.656  0.00  0.00    +0.000 C 
BRANCH  10  11
ATOM     11  N   UNL     1       2.265   3.426  18.846  0.00  0.00    +0.000 NA
ATOM     12  C   UNL     1       3.538   3.383  19.582  0.00  0.00    +0.000 C 
ATOM     13  C   UNL     1       3.447   2.452  20.792  0.00  0.00    +0.000 C 
ATOM     14  C   UNL     1       2.298   2.847  21.713  0.00  0.00    +0.000 C 
ATOM     15  C   UNL     1       1.003   2.958  20.922  0.00  0.00    +0.000 C 
ATOM     16  C   UNL     1       1.170   3.882  19.717  0.00  0.00    +0.000 C 
ENDBRANCH  10  11
ENDBRANCH   2  10
TORSDOF 4
ENDMDL
MODEL 7
REMARK VINA RESULT:      -6.1      4.057      8.359
REMARK  Name = 
REMARK  4 active torsions:
REMARK  status: ('A' for Active; 'I' for Inactive)
REMARK    1  A    between atoms: N_6  and  C_7
REMARK    2  A    between atoms: C_7  and  C_8
REMARK    3  A    between atoms: C_9  and  C_10
REMARK    4  A    between atoms: C_10  and  N_11
REMARK                            x       y       z     vdW  Elec       q    Type
REMARK                         _______ _______ _______ _____ _____    ______ ____
ROOT
ATOM      1  C   UNL     1       8.037   7.534  18.347  0.00  0.00    +0.000 C 
ATOM      2  C   UNL     1       8.320   8.795  18.175  0.00  0.00    +0.000 C 
ENDROOT
BRANCH   1   3
ATOM      3  C   UNL     1       7.708   6.063  18.546  0.00  0.00    +0.000 C 
BRANCH   3   9
ATOM      4  O   UNL     1       7.856   4.444  16.306  0.00  0.00    +0.000 OA
ATOM      5  C   UNL     1       6.787   4.859  16.730  0.00  0.00    +0.000 C 
ATOM      6  C   UNL     1       5.540   4.894  15.937  0.00  0.00    +0.000 C 
ATOM      7  C   UNL     1       4.688   5.850  16.730  0.00  0.00    +0.000 C 
ATOM      8  O   UNL     1       5.354   6.164  17.967  0.00  0.00    +0.000 OA
ATOM      9  N   UNL     1       6.545   5.394  18.011  0.00  0.00    +0.000 N 
ENDBRANCH   3   9
ENDBRANCH   1   3
BRANCH   2  10
ATOM     10  C   UNL     1       8.551  10.231  17.972  0.00  0.00    +0.000 C 
BRANCH  10  11
ATOM     11  N   UNL     1       9.737  10.684  18.717  0.00  0.00    +0.000 NA
ATOM     12  C   UNL     1      10.594  11.500  17.843  0.00  0.00    +0.000 C 
ATOM     13  C   UNL     1      11.868  11.937  18.567  0.00  0.00    +0.000 C 
ATOM     14  C   UNL     1      11.547  12.677  19.861  0.00  0.00    +0.000 C 
ATOM     15  C   UNL     1      10.602  11.851  20.720  0.00  0.00    +0.000 C 
ATOM     16  C   UNL     1       9.364  11.429  19.930  0.00  0.00    +0.000 C 
ENDBRANCH  10  11
ENDBRANCH   2  10
TORSDOF 4
ENDMDL
MODEL 8
REMARK VINA RESULT:      -6.1      4.321      8.794
REMARK  Name = 
REMARK  4 active torsions:
REMARK  status: ('A' for Active; 'I' for Inactive)
REMARK    1  A    between atoms: N_6  and  C_7
REMARK    2  A    between atoms: C_7  and  C_8
REMARK    3  A    between atoms: C_9  and  C_10
REMARK    4  A    between atoms: C_10  and  N_11
REMARK                            x       y       z     vdW  Elec       q    Type
REMARK                         _______ _______ _______ _____ _____    ______ ____
ROOT
ATOM      1  C   UNL     1       8.052   8.211  17.913  0.00  0.00    +0.000 C 
ATOM      2  C   UNL     1       8.348   9.473  18.049  0.00  0.00    +0.000 C 
ENDROOT
BRANCH   1   3
ATOM      3  C   UNL     1       7.708   6.738  17.755  0.00  0.00    +0.000 C 
BRANCH   3   9
ATOM      4  O   UNL     1       5.568   5.087  18.353  0.00  0.00    +0.000 OA
ATOM      5  C   UNL     1       6.017   5.174  17.218  0.00  0.00    +0.000 C 
ATOM      6  C   UNL     1       5.769   4.179  16.153  0.00  0.00    +0.000 C 
ATOM      7  C   UNL     1       6.849   4.508  15.156  0.00  0.00    +0.000 C 
ATOM      8  O   UNL     1       7.516   5.718  15.563  0.00  0.00    +0.000 OA
ATOM      9  N   UNL     1       6.855   6.193  16.725  0.00  0.00    +0.000 N 
ENDBRANCH   3   9
ENDBRANCH   1   3
BRANCH   2  10
ATOM     10  C   UNL     1       8.605  10.915  18.158  0.00  0.00    +0.000 C 
BRANCH  10  11
ATOM     11  N   UNL     1      10.029  11.176  18.429  0.00  0.00    +0.000 NA
ATOM     12  C   UNL     1      10.525  12.223  17.522  0.00  0.00    +0.000 C 
ATOM     13  C   UNL     1      12.018  12.477  17.733  0.00  0.00    +0.000 C 
ATOM     14  C   UNL     1      12.323  12.826  19.186  0.00  0.00    +0.000 C 
ATOM     15  C   UNL     1      11.739  11.772  20.115  0.00  0.00    +0.000 C 
ATOM     16  C   UNL     1      10.254  11.551  19.834  0.00  0.00    +0.000 C 
ENDBRANCH  10  11
ENDBRANCH   2  10
TORSDOF 4
ENDMDL
MODEL 9
REMARK VINA RESULT:      -6.0      1.052      1.295
REMARK  Name = 
REMARK  4 active torsions:
REMARK  status: ('A' for Active; 'I' for Inactive)
REMARK    1  A    between atoms: N_6  and  C_7
REMARK    2  A    between atoms: C_7  and  C_8
REMARK    3  A    between atoms: C_9  and  C_10
REMARK    4  A    between atoms: C_10  and  N_11
REMARK                            x       y       z     vdW  Elec       q    Type
REMARK                         _______ _______ _______ _____ _____    ______ ____
ROOT
ATOM      1  C   UNL     1       4.971   3.695  16.296  0.00  0.00    +0.000 C 
ATOM      2  C   UNL     1       4.115   3.021  17.011  0.00  0.00    +0.000 C 
ENDROOT
BRANCH   1   3
ATOM      3  C   UNL     1       5.969   4.481  15.459  0.00  0.00    +0.000 C 
BRANCH   3   9
ATOM      4  O   UNL     1       8.015   4.226  17.307  0.00  0.00    +0.000 OA
ATOM      5  C   UNL     1       7.512   5.311  17.049  0.00  0.00    +0.000 C 
ATOM      6  C   UNL     1       7.630   6.503  17.914  0.00  0.00    +0.000 C 
ATOM      7  C   UNL     1       6.523   7.382  17.393  0.00  0.00    +0.000 C 
ATOM      8  O   UNL     1       5.968   6.789  16.204  0.00  0.00    +0.000 OA
ATOM      9  N   UNL     1       6.723   5.621  15.924  0.00  0.00    +0.000 N 
ENDBRANCH   3   9
ENDBRANCH   1   3
BRANCH   2  10
ATOM     10  C   UNL     1       3.211   2.197  17.825  0.00  0.00    +0.000 C 
BRANCH  10  11
ATOM     11  N   UNL     1       2.842   2.892  19.069  0.00  0.00    +0.000 NA
ATOM     12  C   UNL     1       2.885   4.347  18.858  0.00  0.00    +0.000 C 
ATOM     13  C   UNL     1       2.566   5.104  20.148  0.00  0.00    +0.000 C 
ATOM     14  C   UNL     1       1.222   4.676  20.727  0.00  0.00    +0.000 C 
ATOM     15  C   UNL     1       1.167   3.163  20.869  0.00  0.00    +0.000 C 
ATOM     16  C   UNL     1       1.518   2.471  19.553  0.00  0.00    +0.000 C 
ENDBRANCH  10  11
ENDBRANCH   2  10
TORSDOF 4
ENDMDL
