MODEL 1
REMARK VINA RESULT:      -8.0      0.000      0.000
REMARK  Name = 
REMARK  6 active torsions:
REMARK  status: ('A' for Active; 'I' for Inactive)
REMARK    1  A    between atoms: C_1  and  O_2
REMARK    2  A    between atoms: O_2  and  C_3
REMARK    3  A    between atoms: C_5  and  C_6
REMARK    4  A    between atoms: N_11  and  C_12
REMARK    5  A    between atoms: C_12  and  C_13
REMARK    6  A    between atoms: C_23  and  O_24
REMARK                            x       y       z     vdW  Elec       q    Type
REMARK                         _______ _______ _______ _____ _____    ______ ____
ROOT
ATOM      1  C   UNL     1       2.965   6.964  18.055  0.00  0.00    +0.000 C 
ATOM      2  C   UNL     1       2.307   7.826  18.846  0.00  0.00    +0.000 C 
ATOM      3  S   UNL     1       1.909   7.560  20.494  0.00  0.00    +0.000 S 
ATOM      4  C   UNL     1       0.741   8.874  20.504  0.00  0.00    +0.000 C 
ATOM      5  S   UNL     1      -0.409   8.931  21.710  0.00  0.00    +0.000 S 
ATOM      6  N   UNL     1       0.956   9.687  19.407  0.00  0.00    +0.000 N 
ATOM      7  C   UNL     1       1.745   9.129  18.414  0.00  0.00    +0.000 C 
ATOM      8  O   UNL     1       1.909   9.590  17.273  0.00  0.00    +0.000 OA
ENDROOT
BRANCH   1  11
ATOM      9  C   UNL     1       3.065   3.215  18.624  0.00  0.00    +0.000 A 
ATOM     10  C   UNL     1       2.601   4.503  18.303  0.00  0.00    +0.000 A 
ATOM     11  C   UNL     1       3.404   5.633  18.507  0.00  0.00    +0.000 A 
ATOM     12  C   UNL     1       4.680   5.467  19.056  0.00  0.00    +0.000 A 
ATOM     13  C   UNL     1       5.158   4.194  19.367  0.00  0.00    +0.000 A 
ATOM     14  C   UNL     1       4.356   3.071  19.150  0.00  0.00    +0.000 A 
BRANCH   9  16
ATOM     15  C   UNL     1       0.821   2.410  18.808  0.00  0.00    +0.000 C 
ATOM     16  O   UNL     1       2.153   2.229  18.349  0.00  0.00    +0.000 OA
ENDBRANCH   9  16
BRANCH  14  17
ATOM     17  O   UNL     1       4.877   1.845  19.459  0.00  0.00    +0.000 OA
ATOM     18  H   UNL     1       4.783   1.255  18.695  0.00  0.00    +0.000 HD
ENDBRANCH  14  17
ENDBRANCH   1  11
BRANCH   6  19
ATOM     19  C   UNL     1       0.279  10.942  19.078  0.00  0.00    +0.000 C 
BRANCH  19  20
ATOM     20  C   UNL     1      -1.163  10.828  18.612  0.00  0.00    +0.000 A 
ATOM     21  C   UNL     1      -2.155  11.680  19.136  0.00  0.00    +0.000 A 
ATOM     22  C   UNL     1      -3.439  11.714  18.577  0.00  0.00    +0.000 A 
ATOM     23  C   UNL     1      -3.742  10.909  17.482  0.00  0.00    +0.000 A 
ATOM     24  C   UNL     1      -2.785  10.029  16.979  0.00  0.00    +0.000 A 
ATOM     25  C   UNL     1      -1.511   9.973  17.554  0.00  0.00    +0.000 A 
ENDBRANCH  19  20
ENDBRANCH   6  19
TORSDOF 5
ENDMDL
MODEL 2
REMARK VINA RESULT:      -7.8      0.930      2.050
REMARK  Name = 
REMARK  6 active torsions:
REMARK  status: ('A' for Active; 'I' for Inactive)
REMARK    1  A    between atoms: C_1  and  O_2
REMARK    2  A    between atoms: O_2  and  C_3
REMARK    3  A    between atoms: C_5  and  C_6
REMARK    4  A    between atoms: N_11  and  C_12
REMARK    5  A    between atoms: C_12  and  C_13
REMARK    6  A    between atoms: C_23  and  O_24
REMARK                            x       y       z     vdW  Elec       q    Type
REMARK                         _______ _______ _______ _____ _____    ______ ____
ROOT
ATOM      1  C   UNL     1       3.019   7.213  17.862  0.00  0.00    +0.000 C 
ATOM      2  C   UNL     1       2.336   7.984  18.721  0.00  0.00    +0.000 C 
ATOM      3  S   UNL     1       1.976   7.582  20.350  0.00  0.00    +0.000 S 
ATOM      4  C   UNL     1       0.752   8.837  20.472  0.00  0.00    +0.000 C 
ATOM      5  S   UNL     1      -0.381   8.754  21.693  0.00  0.00    +0.000 S 
ATOM      6  N   UNL     1       0.913   9.736  19.435  0.00  0.00    +0.000 N 
ATOM      7  C   UNL     1       1.710   9.289  18.393  0.00  0.00    +0.000 C 
ATOM      8  O   UNL     1       1.836   9.839  17.288  0.00  0.00    +0.000 OA
ENDROOT
BRANCH   1  11
ATOM      9  C   UNL     1       5.378   4.391  18.789  0.00  0.00    +0.000 A 
ATOM     10  C   UNL     1       4.897   5.634  18.342  0.00  0.00    +0.000 A 
ATOM     11  C   UNL     1       3.523   5.874  18.209  0.00  0.00    +0.000 A 
ATOM     12  C   UNL     1       2.624   4.846  18.512  0.00  0.00    +0.000 A 
ATOM     13  C   UNL     1       3.087   3.611  18.969  0.00  0.00    +0.000 A 
ATOM     14  C   UNL     1       4.458   3.384  19.110  0.00  0.00    +0.000 A 
BRANCH   9  16
ATOM     15  C   UNL     1       7.494   4.765  17.741  0.00  0.00    +0.000 C 
ATOM     16  O   UNL     1       6.746   4.338  18.870  0.00  0.00    +0.000 OA
ENDBRANCH   9  16
BRANCH  14  17
ATOM     17  O   UNL     1       4.857   2.161  19.574  0.00  0.00    +0.000 OA
ATOM     18  H   UNL     1       5.701   2.257  20.045  0.00  0.00    +0.000 HD
ENDBRANCH  14  17
ENDBRANCH   1  11
BRANCH   6  19
ATOM     19  C   UNL     1       0.176  10.980  19.207  0.00  0.00    +0.000 C 
BRANCH  19  20
ATOM     20  C   UNL     1      -1.257  10.836  18.723  0.00  0.00    +0.000 A 
ATOM     21  C   UNL     1      -2.259  11.717  19.175  0.00  0.00    +0.000 A 
ATOM     22  C   UNL     1      -3.532  11.715  18.590  0.00  0.00    +0.000 A 
ATOM     23  C   UNL     1      -3.815  10.842  17.543  0.00  0.00    +0.000 A 
ATOM     24  C   UNL     1      -2.848   9.934  17.113  0.00  0.00    +0.000 A 
ATOM     25  C   UNL     1      -1.585   9.915  17.714  0.00  0.00    +0.000 A 
ENDBRANCH  19  20
ENDBRANCH   6  19
TORSDOF 5
ENDMDL
MODEL 3
REMARK VINA RESULT:      -7.8      0.322      1.036
REMARK  Name = 
REMARK  6 active torsions:
REMARK  status: ('A' for Active; 'I' for Inactive)
REMARK    1  A    between atoms: C_1  and  O_2
REMARK    2  A    between atoms: O_2  and  C_3
REMARK    3  A    between atoms: C_5  and  C_6
REMARK    4  A    between atoms: N_11  and  C_12
REMARK    5  A    between atoms: C_12  and  C_13
REMARK    6  A    between atoms: C_23  and  O_24
REMARK                            x       y       z     vdW  Elec       q    Type
REMARK                         _______ _______ _______ _____ _____    ______ ____
ROOT
ATOM      1  C   UNL     1       2.913   7.113  17.946  0.00  0.00    +0.000 C 
ATOM      2  C   UNL     1       2.283   7.949  18.786  0.00  0.00    +0.000 C 
ATOM      3  S   UNL     1       1.841   7.589  20.404  0.00  0.00    +0.000 S 
ATOM      4  C   UNL     1       0.740   8.956  20.490  0.00  0.00    +0.000 C 
ATOM      5  S   UNL     1      -0.430   8.985  21.679  0.00  0.00    +0.000 S 
ATOM      6  N   UNL     1       1.015   9.832  19.457  0.00  0.00    +0.000 N 
ATOM      7  C   UNL     1       1.794   9.306  18.439  0.00  0.00    +0.000 C 
ATOM      8  O   UNL     1       2.003   9.838  17.337  0.00  0.00    +0.000 OA
ENDROOT
BRANCH   1  11
ATOM      9  C   UNL     1       2.822   3.333  18.243  0.00  0.00    +0.000 A 
ATOM     10  C   UNL     1       2.427   4.662  18.007  0.00  0.00    +0.000 A 
ATOM     11  C   UNL     1       3.278   5.734  18.309  0.00  0.00    +0.000 A 
ATOM     12  C   UNL     1       4.531   5.466  18.869  0.00  0.00    +0.000 A 
ATOM     13  C   UNL     1       4.941   4.152  19.097  0.00  0.00    +0.000 A 
ATOM     14  C   UNL     1       4.091   3.088  18.783  0.00  0.00    +0.000 A 
BRANCH   9  16
ATOM     15  C   UNL     1       0.770   2.215  18.756  0.00  0.00    +0.000 C 
ATOM     16  O   UNL     1       1.870   2.415  17.879  0.00  0.00    +0.000 OA
ENDBRANCH   9  16
BRANCH  14  17
ATOM     17  O   UNL     1       4.546   1.819  19.012  0.00  0.00    +0.000 OA
ATOM     18  H   UNL     1       5.517   1.824  19.029  0.00  0.00    +0.000 HD
ENDBRANCH  14  17
ENDBRANCH   1  11
BRANCH   6  19
ATOM     19  C   UNL     1       0.407  11.139  19.208  0.00  0.00    +0.000 C 
BRANCH  19  20
ATOM     20  C   UNL     1      -1.006  11.131  18.650  0.00  0.00    +0.000 A 
ATOM     21  C   UNL     1      -1.394  10.173  17.693  0.00  0.00    +0.000 A 
ATOM     22  C   UNL     1      -2.738  10.035  17.321  0.00  0.00    +0.000 A 
ATOM     23  C   UNL     1      -3.708  10.843  17.907  0.00  0.00    +0.000 A 
ATOM     24  C   UNL     1      -3.336  11.825  18.823  0.00  0.00    +0.000 A 
ATOM     25  C   UNL     1      -1.991  11.983  19.176  0.00  0.00    +0.000 A 
ENDBRANCH  19  20
ENDBRANCH   6  19
TORSDOF 5
ENDMDL
MODEL 4
REMARK VINA RESULT:      -7.8      0.923      2.259
REMARK  Name = 
REMARK  6 active torsions:
REMARK  status: ('A' for Active; 'I' for Inactive)
REMARK    1  A    between atoms: C_1  and  O_2
REMARK    2  A    between atoms: O_2  and  C_3
REMARK    3  A    between atoms: C_5  and  C_6
REMARK    4  A    between atoms: N_11  and  C_12
REMARK    5  A    between atoms: C_12  and  C_13
REMARK    6  A    between atoms: C_23  and  O_24
REMARK                            x       y       z     vdW  Elec       q    Type
REMARK                         _______ _______ _______ _____ _____    ______ ____
ROOT
ATOM      1  C   UNL     1       2.962   7.332  17.774  0.00  0.00    +0.000 C 
ATOM      2  C   UNL     1       2.305   8.080  18.674  0.00  0.00    +0.000 C 
ATOM      3  S   UNL     1       1.922   7.602  20.277  0.00  0.00    +0.000 S 
ATOM      4  C   UNL     1       0.747   8.896  20.465  0.00  0.00    +0.000 C 
ATOM      5  S   UNL     1      -0.394   8.788  21.676  0.00  0.00    +0.000 S 
ATOM      6  N   UNL     1       0.947   9.844  19.479  0.00  0.00    +0.000 N 
ATOM      7  C   UNL     1       1.731   9.424  18.417  0.00  0.00    +0.000 C 
ATOM      8  O   UNL     1       1.883  10.029  17.344  0.00  0.00    +0.000 OA
ENDROOT
BRANCH   1  11
ATOM      9  C   UNL     1       5.180   4.391  18.682  0.00  0.00    +0.000 A 
ATOM     10  C   UNL     1       4.762   5.680  18.303  0.00  0.00    +0.000 A 
ATOM     11  C   UNL     1       3.413   5.958  18.048  0.00  0.00    +0.000 A 
ATOM     12  C   UNL     1       2.477   4.924  18.158  0.00  0.00    +0.000 A 
ATOM     13  C   UNL     1       2.875   3.644  18.545  0.00  0.00    +0.000 A 
ATOM     14  C   UNL     1       4.221   3.378  18.809  0.00  0.00    +0.000 A 
BRANCH   9  16
ATOM     15  C   UNL     1       7.401   4.672  17.840  0.00  0.00    +0.000 C 
ATOM     16  O   UNL     1       6.531   4.305  18.902  0.00  0.00    +0.000 OA
ENDBRANCH   9  16
BRANCH  14  17
ATOM     17  O   UNL     1       4.557   2.111  19.199  0.00  0.00    +0.000 OA
ATOM     18  H   UNL     1       3.759   1.558  19.214  0.00  0.00    +0.000 HD
ENDBRANCH  14  17
ENDBRANCH   1  11
BRANCH   6  19
ATOM     19  C   UNL     1       0.260  11.126  19.319  0.00  0.00    +0.000 C 
BRANCH  19  20
ATOM     20  C   UNL     1      -1.132  11.073  18.710  0.00  0.00    +0.000 A 
ATOM     21  C   UNL     1      -1.479  10.054  17.802  0.00  0.00    +0.000 A 
ATOM     22  C   UNL     1      -2.807   9.885  17.388  0.00  0.00    +0.000 A 
ATOM     23  C   UNL     1      -3.802  10.723  17.885  0.00  0.00    +0.000 A 
ATOM     24  C   UNL     1      -3.468  11.763  18.750  0.00  0.00    +0.000 A 
ATOM     25  C   UNL     1      -2.138  11.951  19.143  0.00  0.00    +0.000 A 
ENDBRANCH  19  20
ENDBRANCH   6  19
TORSDOF 5
ENDMDL
MODEL 5
REMARK VINA RESULT:      -7.2      1.831      3.045
REMARK  Name = 
REMARK  6 active torsions:
REMARK  status: ('A' for Active; 'I' for Inactive)
REMARK    1  A    between atoms: C_1  and  O_2
REMARK    2  A    between atoms: O_2  and  C_3
REMARK    3  A    between atoms: C_5  and  C_6
REMARK    4  A    between atoms: N_11  and  C_12
REMARK    5  A    between atoms: C_12  and  C_13
REMARK    6  A    between atoms: C_23  and  O_24
REMARK                            x       y       z     vdW  Elec       q    Type
REMARK                         _______ _______ _______ _____ _____    ______ ____
ROOT
ATOM      1  C   UNL     1       2.833   7.156  17.906  0.00  0.00    +0.000 C 
ATOM      2  C   UNL     1       2.254   8.027  18.746  0.00  0.00    +0.000 C 
ATOM      3  S   UNL     1       1.861   7.716  20.387  0.00  0.00    +0.000 S 
ATOM      4  C   UNL     1       0.797   9.112  20.478  0.00  0.00    +0.000 C 
ATOM      5  S   UNL     1      -0.328   9.198  21.706  0.00  0.00    +0.000 S 
ATOM      6  N   UNL     1       1.056   9.956  19.415  0.00  0.00    +0.000 N 
ATOM      7  C   UNL     1       1.786   9.387  18.383  0.00  0.00    +0.000 C 
ATOM      8  O   UNL     1       1.967   9.887  17.262  0.00  0.00    +0.000 OA
ENDROOT
BRANCH   1  11
ATOM      9  C   UNL     1       2.689   3.381  18.253  0.00  0.00    +0.000 A 
ATOM     10  C   UNL     1       2.314   4.712  17.997  0.00  0.00    +0.000 A 
ATOM     11  C   UNL     1       3.177   5.777  18.289  0.00  0.00    +0.000 A 
ATOM     12  C   UNL     1       4.424   5.500  18.860  0.00  0.00    +0.000 A 
ATOM     13  C   UNL     1       4.814   4.183  19.108  0.00  0.00    +0.000 A 
ATOM     14  C   UNL     1       3.952   3.127  18.804  0.00  0.00    +0.000 A 
BRANCH   9  16
ATOM     15  C   UNL     1       0.684   2.209  18.824  0.00  0.00    +0.000 C 
ATOM     16  O   UNL     1       1.728   2.471  17.896  0.00  0.00    +0.000 OA
ENDBRANCH   9  16
BRANCH  14  17
ATOM     17  O   UNL     1       4.389   1.856  19.053  0.00  0.00    +0.000 OA
ATOM     18  H   UNL     1       5.213   1.894  19.563  0.00  0.00    +0.000 HD
ENDBRANCH  14  17
ENDBRANCH   1  11
BRANCH   6  19
ATOM     19  C   UNL     1       0.471  11.272  19.155  0.00  0.00    +0.000 C 
BRANCH  19  20
ATOM     20  C   UNL     1       1.381  12.469  19.375  0.00  0.00    +0.000 A 
ATOM     21  C   UNL     1       1.786  12.833  20.674  0.00  0.00    +0.000 A 
ATOM     22  C   UNL     1       2.773  13.808  20.871  0.00  0.00    +0.000 A 
ATOM     23  C   UNL     1       3.372  14.421  19.774  0.00  0.00    +0.000 A 
ATOM     24  C   UNL     1       2.951  14.105  18.483  0.00  0.00    +0.000 A 
ATOM     25  C   UNL     1       1.947  13.151  18.286  0.00  0.00    +0.000 A 
ENDBRANCH  19  20
ENDBRANCH   6  19
TORSDOF 5
ENDMDL
MODEL 6
REMARK VINA RESULT:      -7.0      1.910      3.514
REMARK  Name = 
REMARK  6 active torsions:
REMARK  status: ('A' for Active; 'I' for Inactive)
REMARK    1  A    between atoms: C_1  and  O_2
REMARK    2  A    between atoms: O_2  and  C_3
REMARK    3  A    between atoms: C_5  and  C_6
REMARK    4  A    between atoms: N_11  and  C_12
REMARK    5  A    between atoms: C_12  and  C_13
REMARK    6  A    between atoms: C_23  and  O_24
REMARK                            x       y       z     vdW  Elec       q    Type
REMARK                         _______ _______ _______ _____ _____    ______ ____
ROOT
ATOM      1  C   UNL     1       2.818   7.294  17.787  0.00  0.00    +0.000 C 
ATOM      2  C   UNL     1       2.220   8.077  18.698  0.00  0.00    +0.000 C 
ATOM      3  S   UNL     1       1.950   7.665  20.342  0.00  0.00    +0.000 S 
ATOM      4  C   UNL     1       0.782   8.961  20.556  0.00  0.00    +0.000 C 
ATOM      5  S   UNL     1      -0.273   8.901  21.846  0.00  0.00    +0.000 S 
ATOM      6  N   UNL     1       0.909   9.868  19.521  0.00  0.00    +0.000 N 
ATOM      7  C   UNL     1       1.621   9.407  18.426  0.00  0.00    +0.000 C 
ATOM      8  O   UNL     1       1.696   9.968  17.321  0.00  0.00    +0.000 OA
ENDROOT
BRANCH   1  11
ATOM      9  C   UNL     1       5.083   4.417  18.779  0.00  0.00    +0.000 A 
ATOM     10  C   UNL     1       4.644   5.691  18.377  0.00  0.00    +0.000 A 
ATOM     11  C   UNL     1       3.295   5.934  18.086  0.00  0.00    +0.000 A 
ATOM     12  C   UNL     1       2.382   4.879  18.183  0.00  0.00    +0.000 A 
ATOM     13  C   UNL     1       2.801   3.613  18.593  0.00  0.00    +0.000 A 
ATOM     14  C   UNL     1       4.146   3.382  18.892  0.00  0.00    +0.000 A 
BRANCH   9  16
ATOM     15  C   UNL     1       7.318   4.716  17.980  0.00  0.00    +0.000 C 
ATOM     16  O   UNL     1       6.430   4.366  19.032  0.00  0.00    +0.000 OA
ENDBRANCH   9  16
BRANCH  14  17
ATOM     17  O   UNL     1       4.502   2.128  19.303  0.00  0.00    +0.000 OA
ATOM     18  H   UNL     1       4.468   1.521  18.546  0.00  0.00    +0.000 HD
ENDBRANCH  14  17
ENDBRANCH   1  11
BRANCH   6  19
ATOM     19  C   UNL     1       0.205  11.140  19.355  0.00  0.00    +0.000 C 
BRANCH  19  20
ATOM     20  C   UNL     1       1.040  12.400  19.514  0.00  0.00    +0.000 A 
ATOM     21  C   UNL     1       1.738  12.651  20.712  0.00  0.00    +0.000 A 
ATOM     22  C   UNL     1       2.659  13.703  20.797  0.00  0.00    +0.000 A 
ATOM     23  C   UNL     1       2.902  14.507  19.686  0.00  0.00    +0.000 A 
ATOM     24  C   UNL     1       2.188  14.298  18.507  0.00  0.00    +0.000 A 
ATOM     25  C   UNL     1       1.247  13.266  18.428  0.00  0.00    +0.000 A 
ENDBRANCH  19  20
ENDBRANCH   6  19
TORSDOF 5
ENDMDL
MODEL 7
REMARK VINA RESULT:      -7.0      1.830      3.029
REMARK  Name = 
REMARK  6 active torsions:
REMARK  status: ('A' for Active; 'I' for Inactive)
REMARK    1  A    between atoms: C_1  and  O_2
REMARK    2  A    between atoms: O_2  and  C_3
REMARK    3  A    between atoms: C_5  and  C_6
REMARK    4  A    between atoms: N_11  and  C_12
REMARK    5  A    between atoms: C_12  and  C_13
REMARK    6  A    between atoms: C_23  and  O_24
REMARK                            x       y       z     vdW  Elec       q    Type
REMARK                         _______ _______ _______ _____ _____    ______ ____
ROOT
ATOM      1  C   UNL     1       2.797   7.210  17.916  0.00  0.00    +0.000 C 
ATOM      2  C   UNL     1       2.214   8.070  18.765  0.00  0.00    +0.000 C 
ATOM      3  S   UNL     1       1.838   7.748  20.408  0.00  0.00    +0.000 S 
ATOM      4  C   UNL     1       0.758   9.131  20.513  0.00  0.00    +0.000 C 
ATOM      5  S   UNL     1      -0.358   9.199  21.751  0.00  0.00    +0.000 S 
ATOM      6  N   UNL     1       0.999   9.982  19.452  0.00  0.00    +0.000 N 
ATOM      7  C   UNL     1       1.727   9.427  18.412  0.00  0.00    +0.000 C 
ATOM      8  O   UNL     1       1.894   9.933  17.291  0.00  0.00    +0.000 OA
ENDROOT
BRANCH   1  11
ATOM      9  C   UNL     1       2.702   3.432  18.244  0.00  0.00    +0.000 A 
ATOM     10  C   UNL     1       2.309   4.759  17.997  0.00  0.00    +0.000 A 
ATOM     11  C   UNL     1       3.159   5.833  18.291  0.00  0.00    +0.000 A 
ATOM     12  C   UNL     1       4.411   5.570  18.856  0.00  0.00    +0.000 A 
ATOM     13  C   UNL     1       4.820   4.257  19.096  0.00  0.00    +0.000 A 
ATOM     14  C   UNL     1       3.971   3.191  18.789  0.00  0.00    +0.000 A 
BRANCH   9  16
ATOM     15  C   UNL     1       0.683   2.273  18.791  0.00  0.00    +0.000 C 
ATOM     16  O   UNL     1       1.752   2.511  17.886  0.00  0.00    +0.000 OA
ENDBRANCH   9  16
BRANCH  14  17
ATOM     17  O   UNL     1       4.425   1.924  19.030  0.00  0.00    +0.000 OA
ATOM     18  H   UNL     1       4.712   1.522  18.194  0.00  0.00    +0.000 HD
ENDBRANCH  14  17
ENDBRANCH   1  11
BRANCH   6  19
ATOM     19  C   UNL     1       0.397  11.292  19.202  0.00  0.00    +0.000 C 
BRANCH  19  20
ATOM     20  C   UNL     1       1.290  12.500  19.432  0.00  0.00    +0.000 A 
ATOM     21  C   UNL     1       1.537  13.418  18.392  0.00  0.00    +0.000 A 
ATOM     22  C   UNL     1       2.196  14.628  18.646  0.00  0.00    +0.000 A 
ATOM     23  C   UNL     1       2.604  14.940  19.940  0.00  0.00    +0.000 A 
ATOM     24  C   UNL     1       2.406  14.024  20.972  0.00  0.00    +0.000 A 
ATOM     25  C   UNL     1       1.773  12.802  20.716  0.00  0.00    +0.000 A 
ENDBRANCH  19  20
ENDBRANCH   6  19
TORSDOF 5
ENDMDL
MODEL 8
REMARK VINA RESULT:      -6.9      1.978      3.548
REMARK  Name = 
REMARK  6 active torsions:
REMARK  status: ('A' for Active; 'I' for Inactive)
REMARK    1  A    between atoms: C_1  and  O_2
REMARK    2  A    between atoms: O_2  and  C_3
REMARK    3  A    between atoms: C_5  and  C_6
REMARK    4  A    between atoms: N_11  and  C_12
REMARK    5  A    between atoms: C_12  and  C_13
REMARK    6  A    between atoms: C_23  and  O_24
REMARK                            x       y       z     vdW  Elec       q    Type
REMARK                         _______ _______ _______ _____ _____    ______ ____
ROOT
ATOM      1  C   UNL     1       2.778   7.329  17.851  0.00  0.00    +0.000 C 
ATOM      2  C   UNL     1       2.172   8.084  18.780  0.00  0.00    +0.000 C 
ATOM      3  S   UNL     1       1.887   7.621  20.408  0.00  0.00    +0.000 S 
ATOM      4  C   UNL     1       0.719   8.912  20.652  0.00  0.00    +0.000 C 
ATOM      5  S   UNL     1      -0.347   8.813  21.930  0.00  0.00    +0.000 S 
ATOM      6  N   UNL     1       0.857   9.850  19.647  0.00  0.00    +0.000 N 
ATOM      7  C   UNL     1       1.578   9.422  18.544  0.00  0.00    +0.000 C 
ATOM      8  O   UNL     1       1.663  10.017  17.458  0.00  0.00    +0.000 OA
ENDROOT
BRANCH   1  11
ATOM      9  C   UNL     1       4.972   4.429  18.930  0.00  0.00    +0.000 A 
ATOM     10  C   UNL     1       4.554   5.721  18.566  0.00  0.00    +0.000 A 
ATOM     11  C   UNL     1       3.250   5.959  18.111  0.00  0.00    +0.000 A 
ATOM     12  C   UNL     1       2.363   4.882  18.005  0.00  0.00    +0.000 A 
ATOM     13  C   UNL     1       2.761   3.596  18.374  0.00  0.00    +0.000 A 
ATOM     14  C   UNL     1       4.059   3.370  18.837  0.00  0.00    +0.000 A 
BRANCH   9  16
ATOM     15  C   UNL     1       7.068   5.550  19.196  0.00  0.00    +0.000 C 
ATOM     16  O   UNL     1       6.273   4.384  19.361  0.00  0.00    +0.000 OA
ENDBRANCH   9  16
BRANCH  14  17
ATOM     17  O   UNL     1       4.394   2.094  19.199  0.00  0.00    +0.000 OA
ATOM     18  H   UNL     1       3.628   1.512  19.068  0.00  0.00    +0.000 HD
ENDBRANCH  14  17
ENDBRANCH   1  11
BRANCH   6  19
ATOM     19  C   UNL     1       0.155  11.128  19.515  0.00  0.00    +0.000 C 
BRANCH  19  20
ATOM     20  C   UNL     1       0.656  12.266  20.389  0.00  0.00    +0.000 A 
ATOM     21  C   UNL     1       1.909  12.861  20.145  0.00  0.00    +0.000 A 
ATOM     22  C   UNL     1       2.291  14.029  20.817  0.00  0.00    +0.000 A 
ATOM     23  C   UNL     1       1.423  14.621  21.730  0.00  0.00    +0.000 A 
ATOM     24  C   UNL     1       0.198  14.021  22.016  0.00  0.00    +0.000 A 
ATOM     25  C   UNL     1      -0.174  12.839  21.366  0.00  0.00    +0.000 A 
ENDBRANCH  19  20
ENDBRANCH   6  19
TORSDOF 5
ENDMDL
MODEL 9
REMARK VINA RESULT:      -6.9      1.892      3.489
REMARK  Name = 
REMARK  6 active torsions:
REMARK  status: ('A' for Active; 'I' for Inactive)
REMARK    1  A    between atoms: C_1  and  O_2
REMARK    2  A    between atoms: O_2  and  C_3
REMARK    3  A    between atoms: C_5  and  C_6
REMARK    4  A    between atoms: N_11  and  C_12
REMARK    5  A    between atoms: C_12  and  C_13
REMARK    6  A    between atoms: C_23  and  O_24
REMARK                            x       y       z     vdW  Elec       q    Type
REMARK                         _______ _______ _______ _____ _____    ______ ____
ROOT
ATOM      1  C   UNL     1       2.776   7.302  17.867  0.00  0.00    +0.000 C 
ATOM      2  C   UNL     1       2.168   8.086  18.770  0.00  0.00    +0.000 C 
ATOM      3  S   UNL     1       1.903   7.687  20.418  0.00  0.00    +0.000 S 
ATOM      4  C   UNL     1       0.720   8.972  20.620  0.00  0.00    +0.000 C 
ATOM      5  S   UNL     1      -0.334   8.912  21.910  0.00  0.00    +0.000 S 
ATOM      6  N   UNL     1       0.837   9.870  19.576  0.00  0.00    +0.000 N 
ATOM      7  C   UNL     1       1.555   9.407  18.485  0.00  0.00    +0.000 C 
ATOM      8  O   UNL     1       1.623   9.957  17.375  0.00  0.00    +0.000 OA
ENDROOT
BRANCH   1  11
ATOM      9  C   UNL     1       5.020   4.475  19.036  0.00  0.00    +0.000 A 
ATOM     10  C   UNL     1       4.581   5.746  18.624  0.00  0.00    +0.000 A 
ATOM     11  C   UNL     1       3.268   5.950  18.179  0.00  0.00    +0.000 A 
ATOM     12  C   UNL     1       2.393   4.859  18.133  0.00  0.00    +0.000 A 
ATOM     13  C   UNL     1       2.811   3.595  18.551  0.00  0.00    +0.000 A 
ATOM     14  C   UNL     1       4.118   3.403  19.004  0.00  0.00    +0.000 A 
BRANCH   9  16
ATOM     15  C   UNL     1       7.126   5.603  19.158  0.00  0.00    +0.000 C 
ATOM     16  O   UNL     1       6.328   4.464  19.449  0.00  0.00    +0.000 OA
ENDBRANCH   9  16
BRANCH  14  17
ATOM     17  O   UNL     1       4.473   2.149  19.415  0.00  0.00    +0.000 OA
ATOM     18  H   UNL     1       4.827   1.651  18.660  0.00  0.00    +0.000 HD
ENDBRANCH  14  17
ENDBRANCH   1  11
BRANCH   6  19
ATOM     19  C   UNL     1       0.118  11.133  19.398  0.00  0.00    +0.000 C 
BRANCH  19  20
ATOM     20  C   UNL     1       0.943  12.402  19.528  0.00  0.00    +0.000 A 
ATOM     21  C   UNL     1       0.797  13.451  18.599  0.00  0.00    +0.000 A 
ATOM     22  C   UNL     1       1.405  14.694  18.819  0.00  0.00    +0.000 A 
ATOM     23  C   UNL     1       2.154  14.906  19.972  0.00  0.00    +0.000 A 
ATOM     24  C   UNL     1       2.345  13.866  20.881  0.00  0.00    +0.000 A 
ATOM     25  C   UNL     1       1.761  12.616  20.649  0.00  0.00    +0.000 A 
ENDBRANCH  19  20
ENDBRANCH   6  19
TORSDOF 5
ENDMDL
