MODEL 1
REMARK VINA RESULT:      -8.5      0.000      0.000
REMARK  Name = 
REMARK  3 active torsions:
REMARK  status: ('A' for Active; 'I' for Inactive)
REMARK    1  A    between atoms: C_1  and  N_2
REMARK    2  A    between atoms: C_8  and  N_9
REMARK    3  A    between atoms: N_16  and  C_17
REMARK                            x       y       z     vdW  Elec       q    Type
REMARK                         _______ _______ _______ _____ _____    ______ ____
ROOT
ATOM      1  N   UNL     1       2.015   7.783  21.420  0.00  0.00    +0.000 N 
ATOM      2  C   UNL     1       1.112   8.837  21.496  0.00  0.00    +0.000 A 
ATOM      3  N   UNL     1       0.892   9.372  22.706  0.00  0.00    +0.000 NA
ATOM      4  C   UNL     1      -0.051  10.339  22.795  0.00  0.00    +0.000 A 
ATOM      5  C   UNL     1      -0.758  10.805  21.712  0.00  0.00    +0.000 A 
ATOM      6  C   UNL     1      -1.812  11.822  21.835  0.00  0.00    +0.000 A 
ATOM      7  O   UNL     1      -2.107  12.189  22.970  0.00  0.00    +0.000 OA
ATOM      8  N   UNL     1      -2.437  12.241  20.659  0.00  0.00    +0.000 N 
ATOM      9  C   UNL     1      -2.114  11.645  19.445  0.00  0.00    +0.000 A 
ATOM     10  N   UNL     1      -2.602  11.883  18.245  0.00  0.00    +0.000 NA
ATOM     11  C   UNL     1      -1.913  11.057  17.390  0.00  0.00    +0.000 A 
ATOM     12  C   UNL     1      -0.997  10.298  18.077  0.00  0.00    +0.000 A 
ATOM     13  N   UNL     1      -1.131  10.682  19.386  0.00  0.00    +0.000 N 
ATOM     14  C   UNL     1      -0.430  10.234  20.514  0.00  0.00    +0.000 A 
ATOM     15  N   UNL     1       0.490   9.263  20.381  0.00  0.00    +0.000 NA
ATOM     16  H   UNL     1       2.462   7.611  22.309  0.00  0.00    +0.000 HD
ENDROOT
BRANCH   1  24
ATOM     17  C   UNL     1       5.043   4.273  15.720  0.00  0.00    +0.000 C 
ATOM     18  N   UNL     1       4.282   4.154  16.963  0.00  0.00    +0.000 NA
ATOM     19  C   UNL     1       3.041   3.394  16.751  0.00  0.00    +0.000 C 
ATOM     20  C   UNL     1       2.315   3.148  18.083  0.00  0.00    +0.000 C 
ATOM     21  C   UNL     1       2.140   4.414  18.880  0.00  0.00    +0.000 A 
ATOM     22  C   UNL     1       1.200   4.494  19.916  0.00  0.00    +0.000 A 
ATOM     23  C   UNL     1       1.126   5.638  20.719  0.00  0.00    +0.000 A 
ATOM     24  C   UNL     1       2.001   6.708  20.517  0.00  0.00    +0.000 A 
ATOM     25  C   UNL     1       2.909   6.628  19.453  0.00  0.00    +0.000 A 
ATOM     26  C   UNL     1       2.997   5.494  18.640  0.00  0.00    +0.000 A 
ATOM     27  C   UNL     1       3.973   5.495  17.486  0.00  0.00    +0.000 C 
ENDBRANCH   1  24
BRANCH   8  28
ATOM     28  C   UNL     1      -3.430  13.255  20.672  0.00  0.00    +0.000 A 
ATOM     29  C   UNL     1      -4.788  12.895  20.712  0.00  0.00    +0.000 A 
ATOM     30  C   UNL     1      -5.777  13.871  20.854  0.00  0.00    +0.000 A 
ATOM     31  C   UNL     1      -5.427  15.216  20.937  0.00  0.00    +0.000 A 
ATOM     32  C   UNL     1      -4.087  15.592  20.858  0.00  0.00    +0.000 A 
ATOM     33  C   UNL     1      -3.091  14.620  20.724  0.00  0.00    +0.000 A 
ATOM     34 CL   UNL     1      -1.466  15.182  20.491  0.00  0.00    +0.000 Cl
ENDBRANCH   8  28
TORSDOF 2
ENDMDL
MODEL 2
REMARK VINA RESULT:      -8.1      0.975      1.283
REMARK  Name = 
REMARK  3 active torsions:
REMARK  status: ('A' for Active; 'I' for Inactive)
REMARK    1  A    between atoms: C_1  and  N_2
REMARK    2  A    between atoms: C_8  and  N_9
REMARK    3  A    between atoms: N_16  and  C_17
REMARK                            x       y       z     vdW  Elec       q    Type
REMARK                         _______ _______ _______ _____ _____    ______ ____
ROOT
ATOM      1  N   UNL     1       1.859   7.886  21.502  0.00  0.00    +0.000 N 
ATOM      2  C   UNL     1       0.970   8.954  21.559  0.00  0.00    +0.000 A 
ATOM      3  N   UNL     1       0.730   9.490  22.765  0.00  0.00    +0.000 NA
ATOM      4  C   UNL     1      -0.200  10.470  22.833  0.00  0.00    +0.000 A 
ATOM      5  C   UNL     1      -0.875  10.949  21.736  0.00  0.00    +0.000 A 
ATOM      6  C   UNL     1      -1.916  11.981  21.837  0.00  0.00    +0.000 A 
ATOM      7  O   UNL     1      -2.232  12.350  22.965  0.00  0.00    +0.000 OA
ATOM      8  N   UNL     1      -2.508  12.411  20.647  0.00  0.00    +0.000 N 
ATOM      9  C   UNL     1      -2.167  11.812  19.440  0.00  0.00    +0.000 A 
ATOM     10  N   UNL     1      -2.624  12.060  18.229  0.00  0.00    +0.000 NA
ATOM     11  C   UNL     1      -1.928  11.224  17.389  0.00  0.00    +0.000 A 
ATOM     12  C   UNL     1      -1.038  10.451  18.096  0.00  0.00    +0.000 A 
ATOM     13  N   UNL     1      -1.197  10.835  19.401  0.00  0.00    +0.000 N 
ATOM     14  C   UNL     1      -0.528  10.375  20.544  0.00  0.00    +0.000 A 
ATOM     15  N   UNL     1       0.380   9.390  20.430  0.00  0.00    +0.000 NA
ATOM     16  H   UNL     1       2.283   7.707  22.400  0.00  0.00    +0.000 HD
ENDROOT
BRANCH   1  24
ATOM     17  C   UNL     1       4.930   4.373  15.827  0.00  0.00    +0.000 C 
ATOM     18  N   UNL     1       4.156   4.255  17.061  0.00  0.00    +0.000 NA
ATOM     19  C   UNL     1       2.914   3.501  16.834  0.00  0.00    +0.000 C 
ATOM     20  C   UNL     1       2.173   3.256  18.159  0.00  0.00    +0.000 C 
ATOM     21  C   UNL     1       1.995   4.522  18.957  0.00  0.00    +0.000 A 
ATOM     22  C   UNL     1       1.045   4.604  19.982  0.00  0.00    +0.000 A 
ATOM     23  C   UNL     1       0.967   5.747  20.787  0.00  0.00    +0.000 A 
ATOM     24  C   UNL     1       1.849   6.813  20.596  0.00  0.00    +0.000 A 
ATOM     25  C   UNL     1       2.768   6.731  19.541  0.00  0.00    +0.000 A 
ATOM     26  C   UNL     1       2.859   5.598  18.727  0.00  0.00    +0.000 A 
ATOM     27  C   UNL     1       3.848   5.597  17.584  0.00  0.00    +0.000 C 
ENDBRANCH   1  24
BRANCH   8  28
ATOM     28  C   UNL     1      -3.487  13.440  20.640  0.00  0.00    +0.000 A 
ATOM     29  C   UNL     1      -3.091  14.775  20.828  0.00  0.00    +0.000 A 
ATOM     30  C   UNL     1      -4.014  15.815  20.699  0.00  0.00    +0.000 A 
ATOM     31  C   UNL     1      -5.345  15.535  20.401  0.00  0.00    +0.000 A 
ATOM     32  C   UNL     1      -5.762  14.214  20.252  0.00  0.00    +0.000 A 
ATOM     33  C   UNL     1      -4.841  13.168  20.371  0.00  0.00    +0.000 A 
ATOM     34 CL   UNL     1      -5.470  11.553  20.312  0.00  0.00    +0.000 Cl
ENDBRANCH   8  28
TORSDOF 2
ENDMDL
MODEL 3
REMARK VINA RESULT:      -7.8      1.205      1.816
REMARK  Name = 
REMARK  3 active torsions:
REMARK  status: ('A' for Active; 'I' for Inactive)
REMARK    1  A    between atoms: C_1  and  N_2
REMARK    2  A    between atoms: C_8  and  N_9
REMARK    3  A    between atoms: N_16  and  C_17
REMARK                            x       y       z     vdW  Elec       q    Type
REMARK                         _______ _______ _______ _____ _____    ______ ____
ROOT
ATOM      1  N   UNL     1       1.903   8.279  21.578  0.00  0.00    +0.000 N 
ATOM      2  C   UNL     1       0.906   9.242  21.687  0.00  0.00    +0.000 A 
ATOM      3  N   UNL     1       0.552   9.624  22.923  0.00  0.00    +0.000 NA
ATOM      4  C   UNL     1      -0.477  10.495  23.033  0.00  0.00    +0.000 A 
ATOM      5  C   UNL     1      -1.143  11.017  21.950  0.00  0.00    +0.000 A 
ATOM      6  C   UNL     1      -2.290  11.925  22.089  0.00  0.00    +0.000 A 
ATOM      7  O   UNL     1      -2.698  12.142  23.227  0.00  0.00    +0.000 OA
ATOM      8  N   UNL     1      -2.863  12.417  20.914  0.00  0.00    +0.000 N 
ATOM      9  C   UNL     1      -2.402  11.983  19.677  0.00  0.00    +0.000 A 
ATOM     10  N   UNL     1      -2.822  12.309  18.471  0.00  0.00    +0.000 NA
ATOM     11  C   UNL     1      -2.002  11.639  17.596  0.00  0.00    +0.000 A 
ATOM     12  C   UNL     1      -1.073  10.887  18.275  0.00  0.00    +0.000 A 
ATOM     13  N   UNL     1      -1.335  11.116  19.600  0.00  0.00    +0.000 N 
ATOM     14  C   UNL     1      -0.680  10.607  20.730  0.00  0.00    +0.000 A 
ATOM     15  N   UNL     1       0.331   9.734  20.574  0.00  0.00    +0.000 NA
ATOM     16  H   UNL     1       2.298   8.050  22.478  0.00  0.00    +0.000 HD
ENDROOT
BRANCH   1  24
ATOM     17  C   UNL     1       0.996   1.360  19.280  0.00  0.00    +0.000 C 
ATOM     18  N   UNL     1       1.055   2.773  18.907  0.00  0.00    +0.000 NA
ATOM     19  C   UNL     1       2.017   2.991  17.817  0.00  0.00    +0.000 C 
ATOM     20  C   UNL     1       1.973   4.449  17.332  0.00  0.00    +0.000 C 
ATOM     21  C   UNL     1       2.085   5.433  18.467  0.00  0.00    +0.000 A 
ATOM     22  C   UNL     1       2.441   6.768  18.236  0.00  0.00    +0.000 A 
ATOM     23  C   UNL     1       2.433   7.695  19.285  0.00  0.00    +0.000 A 
ATOM     24  C   UNL     1       2.050   7.311  20.572  0.00  0.00    +0.000 A 
ATOM     25  C   UNL     1       1.734   5.964  20.794  0.00  0.00    +0.000 A 
ATOM     26  C   UNL     1       1.737   5.024  19.759  0.00  0.00    +0.000 A 
ATOM     27  C   UNL     1       1.424   3.581  20.081  0.00  0.00    +0.000 C 
ENDBRANCH   1  24
BRANCH   8  28
ATOM     28  C   UNL     1      -3.942  13.339  20.950  0.00  0.00    +0.000 A 
ATOM     29  C   UNL     1      -5.262  12.861  20.992  0.00  0.00    +0.000 A 
ATOM     30  C   UNL     1      -6.333  13.744  21.155  0.00  0.00    +0.000 A 
ATOM     31  C   UNL     1      -6.101  15.113  21.258  0.00  0.00    +0.000 A 
ATOM     32  C   UNL     1      -4.800  15.607  21.178  0.00  0.00    +0.000 A 
ATOM     33  C   UNL     1      -3.723  14.728  21.023  0.00  0.00    +0.000 A 
ATOM     34 CL   UNL     1      -2.156  15.434  20.790  0.00  0.00    +0.000 Cl
ENDBRANCH   8  28
TORSDOF 2
ENDMDL
MODEL 4
REMARK VINA RESULT:      -7.7      2.061      2.982
REMARK  Name = 
REMARK  3 active torsions:
REMARK  status: ('A' for Active; 'I' for Inactive)
REMARK    1  A    between atoms: C_1  and  N_2
REMARK    2  A    between atoms: C_8  and  N_9
REMARK    3  A    between atoms: N_16  and  C_17
REMARK                            x       y       z     vdW  Elec       q    Type
REMARK                         _______ _______ _______ _____ _____    ______ ____
ROOT
ATOM      1  N   UNL     1       1.471   9.944  20.834  0.00  0.00    +0.000 N 
ATOM      2  C   UNL     1       0.288  10.675  20.830  0.00  0.00    +0.000 A 
ATOM      3  N   UNL     1      -0.018  11.356  21.945  0.00  0.00    +0.000 NA
ATOM      4  C   UNL     1      -1.210  11.996  21.973  0.00  0.00    +0.000 A 
ATOM      5  C   UNL     1      -2.089  12.000  20.917  0.00  0.00    +0.000 A 
ATOM      6  C   UNL     1      -3.400  12.661  20.983  0.00  0.00    +0.000 A 
ATOM      7  O   UNL     1      -3.729  13.147  22.063  0.00  0.00    +0.000 OA
ATOM      8  N   UNL     1      -4.193  12.627  19.834  0.00  0.00    +0.000 N 
ATOM      9  C   UNL     1      -3.771  11.919  18.714  0.00  0.00    +0.000 A 
ATOM     10  N   UNL     1      -4.379  11.751  17.557  0.00  0.00    +0.000 NA
ATOM     11  C   UNL     1      -3.516  11.011  16.786  0.00  0.00    +0.000 A 
ATOM     12  C   UNL     1      -2.369  10.715  17.482  0.00  0.00    +0.000 A 
ATOM     13  N   UNL     1      -2.540  11.300  18.709  0.00  0.00    +0.000 N 
ATOM     14  C   UNL     1      -1.669  11.321  19.807  0.00  0.00    +0.000 A 
ATOM     15  N   UNL     1      -0.500  10.661  19.739  0.00  0.00    +0.000 NA
ATOM     16  H   UNL     1       2.000  10.098  21.680  0.00  0.00    +0.000 HD
ENDROOT
BRANCH   1  24
ATOM     17  C   UNL     1       1.573   2.600  20.684  0.00  0.00    +0.000 C 
ATOM     18  N   UNL     1       1.410   3.835  19.918  0.00  0.00    +0.000 NA
ATOM     19  C   UNL     1       2.307   3.854  18.753  0.00  0.00    +0.000 C 
ATOM     20  C   UNL     1       2.033   5.084  17.873  0.00  0.00    +0.000 C 
ATOM     21  C   UNL     1       2.019   6.364  18.668  0.00  0.00    +0.000 A 
ATOM     22  C   UNL     1       2.165   7.608  18.041  0.00  0.00    +0.000 A 
ATOM     23  C   UNL     1       2.038   8.792  18.777  0.00  0.00    +0.000 A 
ATOM     24  C   UNL     1       1.742   8.754  20.142  0.00  0.00    +0.000 A 
ATOM     25  C   UNL     1       1.638   7.501  20.761  0.00  0.00    +0.000 A 
ATOM     26  C   UNL     1       1.762   6.308  20.042  0.00  0.00    +0.000 A 
ATOM     27  C   UNL     1       1.677   4.994  20.784  0.00  0.00    +0.000 C 
ENDBRANCH   1  24
BRANCH   8  28
ATOM     28  C   UNL     1      -5.453  13.281  19.787  0.00  0.00    +0.000 A 
ATOM     29  C   UNL     1      -5.505  14.672  19.597  0.00  0.00    +0.000 A 
ATOM     30  C   UNL     1      -6.730  15.319  19.420  0.00  0.00    +0.000 A 
ATOM     31  C   UNL     1      -7.917  14.591  19.451  0.00  0.00    +0.000 A 
ATOM     32  C   UNL     1      -7.884  13.216  19.678  0.00  0.00    +0.000 A 
ATOM     33  C   UNL     1      -6.660  12.561  19.847  0.00  0.00    +0.000 A 
ATOM     34 CL   UNL     1      -6.719  10.878  20.265  0.00  0.00    +0.000 Cl
ENDBRANCH   8  28
TORSDOF 2
ENDMDL
MODEL 5
REMARK VINA RESULT:      -7.7      2.486      3.863
REMARK  Name = 
REMARK  3 active torsions:
REMARK  status: ('A' for Active; 'I' for Inactive)
REMARK    1  A    between atoms: C_1  and  N_2
REMARK    2  A    between atoms: C_8  and  N_9
REMARK    3  A    between atoms: N_16  and  C_17
REMARK                            x       y       z     vdW  Elec       q    Type
REMARK                         _______ _______ _______ _____ _____    ______ ____
ROOT
ATOM      1  N   UNL     1       2.354   8.541  17.450  0.00  0.00    +0.000 N 
ATOM      2  C   UNL     1       1.771   9.611  18.120  0.00  0.00    +0.000 A 
ATOM      3  N   UNL     1       1.866  10.820  17.548  0.00  0.00    +0.000 NA
ATOM      4  C   UNL     1       1.376  11.874  18.241  0.00  0.00    +0.000 A 
ATOM      5  C   UNL     1       0.773  11.755  19.470  0.00  0.00    +0.000 A 
ATOM      6  C   UNL     1       0.290  12.917  20.230  0.00  0.00    +0.000 A 
ATOM      7  O   UNL     1       0.523  14.029  19.762  0.00  0.00    +0.000 OA
ATOM      8  N   UNL     1      -0.336  12.666  21.452  0.00  0.00    +0.000 N 
ATOM      9  C   UNL     1      -0.413  11.369  21.946  0.00  0.00    +0.000 A 
ATOM     10  N   UNL     1      -0.938  10.938  23.075  0.00  0.00    +0.000 NA
ATOM     11  C   UNL     1      -0.792   9.572  23.057  0.00  0.00    +0.000 A 
ATOM     12  C   UNL     1      -0.163   9.163  21.905  0.00  0.00    +0.000 A 
ATOM     13  N   UNL     1       0.072  10.316  21.203  0.00  0.00    +0.000 N 
ATOM     14  C   UNL     1       0.680  10.478  19.951  0.00  0.00    +0.000 A 
ATOM     15  N   UNL     1       1.163   9.404  19.303  0.00  0.00    +0.000 NA
ATOM     16  H   UNL     1       2.711   8.818  16.547  0.00  0.00    +0.000 HD
ENDROOT
BRANCH   1  24
ATOM     17  C   UNL     1       1.627   2.506  21.575  0.00  0.00    +0.000 C 
ATOM     18  N   UNL     1       2.299   3.134  20.439  0.00  0.00    +0.000 NA
ATOM     19  C   UNL     1       3.760   3.023  20.563  0.00  0.00    +0.000 C 
ATOM     20  C   UNL     1       4.459   3.556  19.302  0.00  0.00    +0.000 C 
ATOM     21  C   UNL     1       3.970   4.928  18.915  0.00  0.00    +0.000 A 
ATOM     22  C   UNL     1       4.712   5.745  18.052  0.00  0.00    +0.000 A 
ATOM     23  C   UNL     1       4.193   6.969  17.615  0.00  0.00    +0.000 A 
ATOM     24  C   UNL     1       2.921   7.387  18.012  0.00  0.00    +0.000 A 
ATOM     25  C   UNL     1       2.209   6.576  18.906  0.00  0.00    +0.000 A 
ATOM     26  C   UNL     1       2.711   5.351  19.354  0.00  0.00    +0.000 A 
ATOM     27  C   UNL     1       1.903   4.549  20.349  0.00  0.00    +0.000 C 
ENDBRANCH   1  24
BRANCH   8  28
ATOM     28  C   UNL     1      -0.880  13.721  22.232  0.00  0.00    +0.000 A 
ATOM     29  C   UNL     1      -0.020  14.556  22.965  0.00  0.00    +0.000 A 
ATOM     30  C   UNL     1      -0.519  15.675  23.637  0.00  0.00    +0.000 A 
ATOM     31  C   UNL     1      -1.881  15.963  23.602  0.00  0.00    +0.000 A 
ATOM     32  C   UNL     1      -2.752  15.121  22.913  0.00  0.00    +0.000 A 
ATOM     33  C   UNL     1      -2.259  14.004  22.231  0.00  0.00    +0.000 A 
ATOM     34 CL   UNL     1      -3.425  12.935  21.520  0.00  0.00    +0.000 Cl
ENDBRANCH   8  28
TORSDOF 2
ENDMDL
MODEL 6
REMARK VINA RESULT:      -7.4      1.556      2.225
REMARK  Name = 
REMARK  3 active torsions:
REMARK  status: ('A' for Active; 'I' for Inactive)
REMARK    1  A    between atoms: C_1  and  N_2
REMARK    2  A    between atoms: C_8  and  N_9
REMARK    3  A    between atoms: N_16  and  C_17
REMARK                            x       y       z     vdW  Elec       q    Type
REMARK                         _______ _______ _______ _____ _____    ______ ____
ROOT
ATOM      1  N   UNL     1       1.793   8.252  21.706  0.00  0.00    +0.000 N 
ATOM      2  C   UNL     1       0.823   9.244  21.785  0.00  0.00    +0.000 A 
ATOM      3  N   UNL     1       0.412   9.605  23.010  0.00  0.00    +0.000 NA
ATOM      4  C   UNL     1      -0.594  10.508  23.086  0.00  0.00    +0.000 A 
ATOM      5  C   UNL     1      -1.181  11.078  21.982  0.00  0.00    +0.000 A 
ATOM      6  C   UNL     1      -2.304  12.020  22.082  0.00  0.00    +0.000 A 
ATOM      7  O   UNL     1      -2.769  12.221  23.202  0.00  0.00    +0.000 OA
ATOM      8  N   UNL     1      -2.795  12.560  20.892  0.00  0.00    +0.000 N 
ATOM      9  C   UNL     1      -2.279  12.143  19.670  0.00  0.00    +0.000 A 
ATOM     10  N   UNL     1      -2.620  12.513  18.453  0.00  0.00    +0.000 NA
ATOM     11  C   UNL     1      -1.774  11.839  17.606  0.00  0.00    +0.000 A 
ATOM     12  C   UNL     1      -0.909  11.040  18.315  0.00  0.00    +0.000 A 
ATOM     13  N   UNL     1      -1.238  11.243  19.629  0.00  0.00    +0.000 N 
ATOM     14  C   UNL     1      -0.663  10.685  20.779  0.00  0.00    +0.000 A 
ATOM     15  N   UNL     1       0.326   9.783  20.656  0.00  0.00    +0.000 NA
ATOM     16  H   UNL     1       2.129   7.986  22.619  0.00  0.00    +0.000 HD
ENDROOT
BRANCH   1  24
ATOM     17  C   UNL     1       0.967   1.378  19.247  0.00  0.00    +0.000 C 
ATOM     18  N   UNL     1       1.027   2.798  18.905  0.00  0.00    +0.000 NA
ATOM     19  C   UNL     1       2.011   3.043  17.840  0.00  0.00    +0.000 C 
ATOM     20  C   UNL     1       1.970   4.510  17.384  0.00  0.00    +0.000 C 
ATOM     21  C   UNL     1       2.053   5.471  18.541  0.00  0.00    +0.000 A 
ATOM     22  C   UNL     1       2.408   6.812  18.345  0.00  0.00    +0.000 A 
ATOM     23  C   UNL     1       2.374   7.717  19.412  0.00  0.00    +0.000 A 
ATOM     24  C   UNL     1       1.965   7.305  20.683  0.00  0.00    +0.000 A 
ATOM     25  C   UNL     1       1.652   5.953  20.870  0.00  0.00    +0.000 A 
ATOM     26  C   UNL     1       1.681   5.034  19.817  0.00  0.00    +0.000 A 
ATOM     27  C   UNL     1       1.368   3.583  20.103  0.00  0.00    +0.000 C 
ENDBRANCH   1  24
BRANCH   8  28
ATOM     28  C   UNL     1      -3.845  13.517  20.893  0.00  0.00    +0.000 A 
ATOM     29  C   UNL     1      -3.557  14.861  21.180  0.00  0.00    +0.000 A 
ATOM     30  C   UNL     1      -4.546  15.841  21.063  0.00  0.00    +0.000 A 
ATOM     31  C   UNL     1      -5.837  15.488  20.679  0.00  0.00    +0.000 A 
ATOM     32  C   UNL     1      -6.149  14.152  20.430  0.00  0.00    +0.000 A 
ATOM     33  C   UNL     1      -5.161  13.168  20.537  0.00  0.00    +0.000 A 
ATOM     34 CL   UNL     1      -5.667  11.520  20.350  0.00  0.00    +0.000 Cl
ENDBRANCH   8  28
TORSDOF 2
ENDMDL
MODEL 7
REMARK VINA RESULT:      -7.4      3.184      4.178
REMARK  Name = 
REMARK  3 active torsions:
REMARK  status: ('A' for Active; 'I' for Inactive)
REMARK    1  A    between atoms: C_1  and  N_2
REMARK    2  A    between atoms: C_8  and  N_9
REMARK    3  A    between atoms: N_16  and  C_17
REMARK                            x       y       z     vdW  Elec       q    Type
REMARK                         _______ _______ _______ _____ _____    ______ ____
ROOT
ATOM      1  N   UNL     1       2.091   9.046  17.830  0.00  0.00    +0.000 N 
ATOM      2  C   UNL     1       1.915  10.337  18.313  0.00  0.00    +0.000 A 
ATOM      3  N   UNL     1       2.583  11.321  17.692  0.00  0.00    +0.000 NA
ATOM      4  C   UNL     1       2.482  12.566  18.216  0.00  0.00    +0.000 A 
ATOM      5  C   UNL     1       1.716  12.861  19.318  0.00  0.00    +0.000 A 
ATOM      6  C   UNL     1       1.655  14.208  19.900  0.00  0.00    +0.000 A 
ATOM      7  O   UNL     1       2.392  15.063  19.414  0.00  0.00    +0.000 OA
ATOM      8  N   UNL     1       0.815  14.393  21.000  0.00  0.00    +0.000 N 
ATOM      9  C   UNL     1       0.138  13.312  21.552  0.00  0.00    +0.000 A 
ATOM     10  N   UNL     1      -0.674  13.279  22.590  0.00  0.00    +0.000 NA
ATOM     11  C   UNL     1      -1.106  11.978  22.685  0.00  0.00    +0.000 A 
ATOM     12  C   UNL     1      -0.547  11.204  21.697  0.00  0.00    +0.000 A 
ATOM     13  N   UNL     1       0.242  12.063  20.979  0.00  0.00    +0.000 N 
ATOM     14  C   UNL     1       1.033  11.803  19.852  0.00  0.00    +0.000 A 
ATOM     15  N   UNL     1       1.114  10.549  19.373  0.00  0.00    +0.000 NA
ATOM     16  H   UNL     1       2.655   9.035  16.993  0.00  0.00    +0.000 HD
ENDROOT
BRANCH   1  24
ATOM     17  C   UNL     1       3.333   1.814  18.200  0.00  0.00    +0.000 C 
ATOM     18  N   UNL     1       3.267   3.080  18.928  0.00  0.00    +0.000 NA
ATOM     19  C   UNL     1       2.380   2.971  20.096  0.00  0.00    +0.000 C 
ATOM     20  C   UNL     1       2.424   4.256  20.938  0.00  0.00    +0.000 C 
ATOM     21  C   UNL     1       2.205   5.492  20.105  0.00  0.00    +0.000 A 
ATOM     22  C   UNL     1       1.833   6.707  20.695  0.00  0.00    +0.000 A 
ATOM     23  C   UNL     1       1.743   7.872  19.923  0.00  0.00    +0.000 A 
ATOM     24  C   UNL     1       2.042   7.847  18.559  0.00  0.00    +0.000 A 
ATOM     25  C   UNL     1       2.374   6.616  17.977  0.00  0.00    +0.000 A 
ATOM     26  C   UNL     1       2.469   5.443  18.732  0.00  0.00    +0.000 A 
ATOM     27  C   UNL     1       2.794   4.145  18.029  0.00  0.00    +0.000 C 
ENDBRANCH   1  24
BRANCH   8  28
ATOM     28  C   UNL     1       0.652  15.671  21.598  0.00  0.00    +0.000 A 
ATOM     29  C   UNL     1       1.534  16.078  22.614  0.00  0.00    +0.000 A 
ATOM     30  C   UNL     1       1.474  17.375  23.128  0.00  0.00    +0.000 A 
ATOM     31  C   UNL     1       0.523  18.274  22.652  0.00  0.00    +0.000 A 
ATOM     32  C   UNL     1      -0.385  17.872  21.673  0.00  0.00    +0.000 A 
ATOM     33  C   UNL     1      -0.325  16.578  21.147  0.00  0.00    +0.000 A 
ATOM     34 CL   UNL     1      -1.578  16.117  20.040  0.00  0.00    +0.000 Cl
ENDBRANCH   8  28
TORSDOF 2
ENDMDL
MODEL 8
REMARK VINA RESULT:      -7.3      2.669      3.944
REMARK  Name = 
REMARK  3 active torsions:
REMARK  status: ('A' for Active; 'I' for Inactive)
REMARK    1  A    between atoms: C_1  and  N_2
REMARK    2  A    between atoms: C_8  and  N_9
REMARK    3  A    between atoms: N_16  and  C_17
REMARK                            x       y       z     vdW  Elec       q    Type
REMARK                         _______ _______ _______ _____ _____    ______ ____
ROOT
ATOM      1  N   UNL     1       2.375   8.515  17.452  0.00  0.00    +0.000 N 
ATOM      2  C   UNL     1       1.860   9.640  18.086  0.00  0.00    +0.000 A 
ATOM      3  N   UNL     1       1.995  10.817  17.455  0.00  0.00    +0.000 NA
ATOM      4  C   UNL     1       1.572  11.923  18.110  0.00  0.00    +0.000 A 
ATOM      5  C   UNL     1       0.997  11.889  19.357  0.00  0.00    +0.000 A 
ATOM      6  C   UNL     1       0.587  13.105  20.073  0.00  0.00    +0.000 A 
ATOM      7  O   UNL     1       0.859  14.182  19.548  0.00  0.00    +0.000 OA
ATOM      8  N   UNL     1      -0.018  12.940  21.321  0.00  0.00    +0.000 N 
ATOM      9  C   UNL     1      -0.141  11.672  21.876  0.00  0.00    +0.000 A 
ATOM     10  N   UNL     1      -0.656  11.318  23.036  0.00  0.00    +0.000 NA
ATOM     11  C   UNL     1      -0.574   9.947  23.078  0.00  0.00    +0.000 A 
ATOM     12  C   UNL     1       0.006   9.457  21.933  0.00  0.00    +0.000 A 
ATOM     13  N   UNL     1       0.275  10.564  21.172  0.00  0.00    +0.000 N 
ATOM     14  C   UNL     1       0.857  10.640  19.899  0.00  0.00    +0.000 A 
ATOM     15  N   UNL     1       1.273   9.516  19.291  0.00  0.00    +0.000 NA
ATOM     16  H   UNL     1       2.721   8.734  16.530  0.00  0.00    +0.000 HD
ENDROOT
BRANCH   1  24
ATOM     17  C   UNL     1       1.407   2.576  21.667  0.00  0.00    +0.000 C 
ATOM     18  N   UNL     1       2.126   3.170  20.541  0.00  0.00    +0.000 NA
ATOM     19  C   UNL     1       3.580   3.035  20.714  0.00  0.00    +0.000 C 
ATOM     20  C   UNL     1       4.328   3.531  19.465  0.00  0.00    +0.000 C 
ATOM     21  C   UNL     1       3.877   4.903  19.037  0.00  0.00    +0.000 A 
ATOM     22  C   UNL     1       4.661   5.689  18.183  0.00  0.00    +0.000 A 
ATOM     23  C   UNL     1       4.179   6.914  17.705  0.00  0.00    +0.000 A 
ATOM     24  C   UNL     1       2.903   7.362  18.055  0.00  0.00    +0.000 A 
ATOM     25  C   UNL     1       2.148   6.582  18.941  0.00  0.00    +0.000 A 
ATOM     26  C   UNL     1       2.613   5.357  19.428  0.00  0.00    +0.000 A 
ATOM     27  C   UNL     1       1.760   4.589  20.412  0.00  0.00    +0.000 C 
ENDBRANCH   1  24
BRANCH   8  28
ATOM     28  C   UNL     1      -0.493  14.054  22.063  0.00  0.00    +0.000 A 
ATOM     29  C   UNL     1      -1.869  14.185  22.314  0.00  0.00    +0.000 A 
ATOM     30  C   UNL     1      -2.346  15.200  23.147  0.00  0.00    +0.000 A 
ATOM     31  C   UNL     1      -1.460  16.106  23.723  0.00  0.00    +0.000 A 
ATOM     32  C   UNL     1      -0.096  16.014  23.452  0.00  0.00    +0.000 A 
ATOM     33  C   UNL     1       0.389  14.996  22.626  0.00  0.00    +0.000 A 
ATOM     34 CL   UNL     1       2.077  15.040  22.228  0.00  0.00    +0.000 Cl
ENDBRANCH   8  28
TORSDOF 2
ENDMDL
MODEL 9
REMARK VINA RESULT:      -7.2      1.667      2.493
REMARK  Name = 
REMARK  3 active torsions:
REMARK  status: ('A' for Active; 'I' for Inactive)
REMARK    1  A    between atoms: C_1  and  N_2
REMARK    2  A    between atoms: C_8  and  N_9
REMARK    3  A    between atoms: N_16  and  C_17
REMARK                            x       y       z     vdW  Elec       q    Type
REMARK                         _______ _______ _______ _____ _____    ______ ____
ROOT
ATOM      1  N   UNL     1       1.519   9.821  21.094  0.00  0.00    +0.000 N 
ATOM      2  C   UNL     1       0.352  10.576  21.139  0.00  0.00    +0.000 A 
ATOM      3  N   UNL     1       0.055  11.179  22.300  0.00  0.00    +0.000 NA
ATOM      4  C   UNL     1      -1.123  11.841  22.371  0.00  0.00    +0.000 A 
ATOM      5  C   UNL     1      -1.997  11.941  21.315  0.00  0.00    +0.000 A 
ATOM      6  C   UNL     1      -3.294  12.624  21.425  0.00  0.00    +0.000 A 
ATOM      7  O   UNL     1      -3.618  13.036  22.536  0.00  0.00    +0.000 OA
ATOM      8  N   UNL     1      -4.082  12.691  20.274  0.00  0.00    +0.000 N 
ATOM      9  C   UNL     1      -3.669  12.058  19.107  0.00  0.00    +0.000 A 
ATOM     10  N   UNL     1      -4.274  11.989  17.939  0.00  0.00    +0.000 NA
ATOM     11  C   UNL     1      -3.424  11.289  17.118  0.00  0.00    +0.000 A 
ATOM     12  C   UNL     1      -2.287  10.918  17.795  0.00  0.00    +0.000 A 
ATOM     13  N   UNL     1      -2.452  11.415  19.060  0.00  0.00    +0.000 N 
ATOM     14  C   UNL     1      -1.586  11.336  20.160  0.00  0.00    +0.000 A 
ATOM     15  N   UNL     1      -0.431  10.658  20.047  0.00  0.00    +0.000 NA
ATOM     16  H   UNL     1       2.047   9.901  21.950  0.00  0.00    +0.000 HD
ENDROOT
BRANCH   1  24
ATOM     17  C   UNL     1       1.629   2.502  20.464  0.00  0.00    +0.000 C 
ATOM     18  N   UNL     1       1.438   3.783  19.786  0.00  0.00    +0.000 NA
ATOM     19  C   UNL     1       2.294   3.882  18.594  0.00  0.00    +0.000 C 
ATOM     20  C   UNL     1       1.988   5.165  17.806  0.00  0.00    +0.000 C 
ATOM     21  C   UNL     1       1.998   6.390  18.682  0.00  0.00    +0.000 A 
ATOM     22  C   UNL     1       2.120   7.673  18.132  0.00  0.00    +0.000 A 
ATOM     23  C   UNL     1       2.016   8.806  18.948  0.00  0.00    +0.000 A 
ATOM     24  C   UNL     1       1.768   8.679  20.317  0.00  0.00    +0.000 A 
ATOM     25  C   UNL     1       1.688   7.388  20.856  0.00  0.00    +0.000 A 
ATOM     26  C   UNL     1       1.789   6.245  20.058  0.00  0.00    +0.000 A 
ATOM     27  C   UNL     1       1.732   4.886  20.716  0.00  0.00    +0.000 C 
ENDBRANCH   1  24
BRANCH   8  28
ATOM     28  C   UNL     1      -5.327  13.373  20.271  0.00  0.00    +0.000 A 
ATOM     29  C   UNL     1      -6.520  12.638  20.176  0.00  0.00    +0.000 A 
ATOM     30  C   UNL     1      -7.758  13.274  20.298  0.00  0.00    +0.000 A 
ATOM     31  C   UNL     1      -7.821  14.651  20.495  0.00  0.00    +0.000 A 
ATOM     32  C   UNL     1      -6.646  15.400  20.551  0.00  0.00    +0.000 A 
ATOM     33  C   UNL     1      -5.404  14.768  20.438  0.00  0.00    +0.000 A 
ATOM     34 CL   UNL     1      -4.003  15.790  20.376  0.00  0.00    +0.000 Cl
ENDBRANCH   8  28
TORSDOF 2
ENDMDL
