MODEL 1
REMARK VINA RESULT:      -6.8      0.000      0.000
REMARK  Name = 
REMARK  9 active torsions:
REMARK  status: ('A' for Active; 'I' for Inactive)
REMARK    1  A    between atoms: C_1  and  O_2
REMARK    2  A    between atoms: O_2  and  C_3
REMARK    3  A    between atoms: C_11  and  C_12
REMARK    4  A    between atoms: C_15  and  N_16
REMARK    5  A    between atoms: N_19  and  C_20
REMARK    6  A    between atoms: C_20  and  C_21
REMARK    7  A    between atoms: C_21  and  N_22
REMARK    8  A    between atoms: N_22  and  C_23
REMARK    9  A    between atoms: N_22  and  C_24
REMARK                            x       y       z     vdW  Elec       q    Type
REMARK                         _______ _______ _______ _____ _____    ______ ____
ROOT
ATOM      1  C   UNL     1       0.815  10.351  18.908  0.00  0.00    +0.000 A 
ATOM      2  C   UNL     1      -0.562  10.201  18.766  0.00  0.00    +0.000 A 
ATOM      3  C   UNL     1      -1.432  10.794  19.685  0.00  0.00    +0.000 A 
ATOM      4  C   UNL     1      -0.958  11.547  20.769  0.00  0.00    +0.000 A 
ATOM      5  C   UNL     1       0.433  11.681  20.894  0.00  0.00    +0.000 A 
ATOM      6  C   UNL     1       1.313  11.095  19.978  0.00  0.00    +0.000 A 
ENDROOT
BRANCH   1  15
ATOM      7  C   UNL     1       5.102   4.759  18.281  0.00  0.00    +0.000 A 
ATOM      8  C   UNL     1       4.401   4.575  19.487  0.00  0.00    +0.000 A 
ATOM      9  C   UNL     1       3.405   5.475  19.874  0.00  0.00    +0.000 A 
ATOM     10  C   UNL     1       3.144   6.541  19.035  0.00  0.00    +0.000 A 
ATOM     11  C   UNL     1       3.828   6.746  17.842  0.00  0.00    +0.000 A 
ATOM     12  C   UNL     1       4.821   5.859  17.458  0.00  0.00    +0.000 A 
ATOM     13  C   UNL     1       3.344   7.973  17.133  0.00  0.00    +0.000 C 
ATOM     14  C   UNL     1       2.324   8.563  18.084  0.00  0.00    +0.000 C 
ATOM     15  C   UNL     1       1.719   9.749  17.932  0.00  0.00    +0.000 C 
ATOM     16  C   UNL     1       2.175   7.618  19.239  0.00  0.00    +0.000 C 
ATOM     17  O   UNL     1       1.411   7.688  20.184  0.00  0.00    +0.000 OA
BRANCH   7  19
ATOM     18  C   UNL     1       7.311   4.608  17.449  0.00  0.00    +0.000 C 
ATOM     19  O   UNL     1       6.111   3.946  17.837  0.00  0.00    +0.000 OA
ENDBRANCH   7  19
ENDBRANCH   1  15
BRANCH   4  20
ATOM     20  N   UNL     1      -1.844  12.102  21.675  0.00  0.00    +0.000 N 
ATOM     21  C   UNL     1      -1.429  12.433  23.044  0.00  0.00    +0.000 C 
ATOM     22  C   UNL     1      -1.492  13.953  23.306  0.00  0.00    +0.000 C 
ATOM     23  N   UNL     1      -2.798  14.578  22.982  0.00  0.00    +0.000 NA
ATOM     24  C   UNL     1      -3.065  14.286  21.548  0.00  0.00    +0.000 C 
ATOM     25  C   UNL     1      -3.052  12.781  21.164  0.00  0.00    +0.000 C 
BRANCH  23  26
ATOM     26  C   UNL     1      -3.901  14.052  23.821  0.00  0.00    +0.000 C 
BRANCH  26  27
ATOM     27  C   UNL     1      -5.321  14.398  23.307  0.00  0.00    +0.000 C 
BRANCH  27  28
ATOM     28  N   UNL     1      -6.325  13.330  23.505  0.00  0.00    +0.000 NA
ATOM     29  C   UNL     1      -7.544  13.829  24.148  0.00  0.00    +0.000 C 
ATOM     30  C   UNL     1      -6.665  12.743  22.204  0.00  0.00    +0.000 C 
ENDBRANCH  27  28
ENDBRANCH  26  27
ENDBRANCH  23  26
ENDBRANCH   4  20
TORSDOF 6
ENDMDL
MODEL 2
REMARK VINA RESULT:      -6.7      1.299      2.047
REMARK  Name = 
REMARK  9 active torsions:
REMARK  status: ('A' for Active; 'I' for Inactive)
REMARK    1  A    between atoms: C_1  and  O_2
REMARK    2  A    between atoms: O_2  and  C_3
REMARK    3  A    between atoms: C_11  and  C_12
REMARK    4  A    between atoms: C_15  and  N_16
REMARK    5  A    between atoms: N_19  and  C_20
REMARK    6  A    between atoms: C_20  and  C_21
REMARK    7  A    between atoms: C_21  and  N_22
REMARK    8  A    between atoms: N_22  and  C_23
REMARK    9  A    between atoms: N_22  and  C_24
REMARK                            x       y       z     vdW  Elec       q    Type
REMARK                         _______ _______ _______ _____ _____    ______ ____
ROOT
ATOM      1  C   UNL     1       0.574  10.871  19.009  0.00  0.00    +0.000 A 
ATOM      2  C   UNL     1       1.066  11.614  20.079  0.00  0.00    +0.000 A 
ATOM      3  C   UNL     1       0.184  12.270  20.942  0.00  0.00    +0.000 A 
ATOM      4  C   UNL     1      -1.205  12.208  20.763  0.00  0.00    +0.000 A 
ATOM      5  C   UNL     1      -1.677  11.457  19.677  0.00  0.00    +0.000 A 
ATOM      6  C   UNL     1      -0.805  10.793  18.808  0.00  0.00    +0.000 A 
ENDROOT
BRANCH   1  15
ATOM      7  C   UNL     1       4.335   4.882  18.811  0.00  0.00    +0.000 A 
ATOM      8  C   UNL     1       3.515   4.786  19.950  0.00  0.00    +0.000 A 
ATOM      9  C   UNL     1       2.581   5.783  20.239  0.00  0.00    +0.000 A 
ATOM     10  C   UNL     1       2.500   6.857  19.373  0.00  0.00    +0.000 A 
ATOM     11  C   UNL     1       3.305   6.975  18.244  0.00  0.00    +0.000 A 
ATOM     12  C   UNL     1       4.237   5.991  17.958  0.00  0.00    +0.000 A 
ATOM     13  C   UNL     1       3.008   8.232  17.486  0.00  0.00    +0.000 C 
ATOM     14  C   UNL     1       1.969   8.932  18.337  0.00  0.00    +0.000 C 
ATOM     15  C   UNL     1       1.498  10.168  18.122  0.00  0.00    +0.000 C 
ATOM     16  C   UNL     1       1.627   8.024  19.480  0.00  0.00    +0.000 C 
ATOM     17  O   UNL     1       0.792   8.183  20.352  0.00  0.00    +0.000 OA
BRANCH   7  19
ATOM     18  C   UNL     1       6.435   4.497  17.794  0.00  0.00    +0.000 C 
ATOM     19  O   UNL     1       5.296   3.969  18.465  0.00  0.00    +0.000 OA
ENDBRANCH   7  19
ENDBRANCH   1  15
BRANCH   4  20
ATOM     20  N   UNL     1      -2.051  12.887  21.623  0.00  0.00    +0.000 N 
ATOM     21  C   UNL     1      -3.321  13.456  21.153  0.00  0.00    +0.000 C 
ATOM     22  C   UNL     1      -4.531  12.774  21.824  0.00  0.00    +0.000 C 
ATOM     23  N   UNL     1      -4.479  12.749  23.307  0.00  0.00    +0.000 NA
ATOM     24  C   UNL     1      -3.218  12.049  23.674  0.00  0.00    +0.000 C 
ATOM     25  C   UNL     1      -1.921  12.661  23.076  0.00  0.00    +0.000 C 
BRANCH  23  26
ATOM     26  C   UNL     1      -4.496  14.109  23.897  0.00  0.00    +0.000 C 
BRANCH  26  27
ATOM     27  C   UNL     1      -5.768  14.932  23.577  0.00  0.00    +0.000 C 
BRANCH  27  28
ATOM     28  N   UNL     1      -5.560  16.396  23.538  0.00  0.00    +0.000 NA
ATOM     29  C   UNL     1      -6.824  17.132  23.438  0.00  0.00    +0.000 C 
ATOM     30  C   UNL     1      -4.847  16.813  24.750  0.00  0.00    +0.000 C 
ENDBRANCH  27  28
ENDBRANCH  26  27
ENDBRANCH  23  26
ENDBRANCH   4  20
TORSDOF 6
ENDMDL
MODEL 3
REMARK VINA RESULT:      -6.6      1.429      1.996
REMARK  Name = 
REMARK  9 active torsions:
REMARK  status: ('A' for Active; 'I' for Inactive)
REMARK    1  A    between atoms: C_1  and  O_2
REMARK    2  A    between atoms: O_2  and  C_3
REMARK    3  A    between atoms: C_11  and  C_12
REMARK    4  A    between atoms: C_15  and  N_16
REMARK    5  A    between atoms: N_19  and  C_20
REMARK    6  A    between atoms: C_20  and  C_21
REMARK    7  A    between atoms: C_21  and  N_22
REMARK    8  A    between atoms: N_22  and  C_23
REMARK    9  A    between atoms: N_22  and  C_24
REMARK                            x       y       z     vdW  Elec       q    Type
REMARK                         _______ _______ _______ _____ _____    ______ ____
ROOT
ATOM      1  C   UNL     1       0.583  10.880  19.230  0.00  0.00    +0.000 A 
ATOM      2  C   UNL     1       1.093  11.613  20.299  0.00  0.00    +0.000 A 
ATOM      3  C   UNL     1       0.238  12.380  21.096  0.00  0.00    +0.000 A 
ATOM      4  C   UNL     1      -1.140  12.442  20.850  0.00  0.00    +0.000 A 
ATOM      5  C   UNL     1      -1.630  11.699  19.766  0.00  0.00    +0.000 A 
ATOM      6  C   UNL     1      -0.785  10.924  18.964  0.00  0.00    +0.000 A 
ENDROOT
BRANCH   1  15
ATOM      7  C   UNL     1       3.777   4.570  19.423  0.00  0.00    +0.000 A 
ATOM      8  C   UNL     1       2.901   4.594  20.523  0.00  0.00    +0.000 A 
ATOM      9  C   UNL     1       2.052   5.683  20.732  0.00  0.00    +0.000 A 
ATOM     10  C   UNL     1       2.110   6.725  19.826  0.00  0.00    +0.000 A 
ATOM     11  C   UNL     1       2.973   6.725  18.735  0.00  0.00    +0.000 A 
ATOM     12  C   UNL     1       3.821   5.650  18.528  0.00  0.00    +0.000 A 
ATOM     13  C   UNL     1       2.828   7.973  17.919  0.00  0.00    +0.000 C 
ATOM     14  C   UNL     1       1.822   8.798  18.694  0.00  0.00    +0.000 C 
ATOM     15  C   UNL     1       1.478  10.062  18.415  0.00  0.00    +0.000 C 
ATOM     16  C   UNL     1       1.345   7.970  19.851  0.00  0.00    +0.000 C 
ATOM     17  O   UNL     1       0.491   8.238  20.676  0.00  0.00    +0.000 OA
BRANCH   7  19
ATOM     18  C   UNL     1       4.391   2.316  19.789  0.00  0.00    +0.000 C 
ATOM     19  O   UNL     1       4.664   3.561  19.156  0.00  0.00    +0.000 OA
ENDBRANCH   7  19
ENDBRANCH   1  15
BRANCH   4  20
ATOM     20  N   UNL     1      -1.957  13.228  21.643  0.00  0.00    +0.000 N 
ATOM     21  C   UNL     1      -2.210  14.638  21.317  0.00  0.00    +0.000 C 
ATOM     22  C   UNL     1      -3.694  14.885  20.977  0.00  0.00    +0.000 C 
ATOM     23  N   UNL     1      -4.649  14.400  22.004  0.00  0.00    +0.000 NA
ATOM     24  C   UNL     1      -4.389  12.944  22.170  0.00  0.00    +0.000 C 
ATOM     25  C   UNL     1      -2.928  12.569  22.540  0.00  0.00    +0.000 C 
BRANCH  23  26
ATOM     26  C   UNL     1      -4.487  15.096  23.303  0.00  0.00    +0.000 C 
BRANCH  26  27
ATOM     27  C   UNL     1      -5.817  15.495  23.988  0.00  0.00    +0.000 C 
BRANCH  27  28
ATOM     28  N   UNL     1      -7.028  14.910  23.371  0.00  0.00    +0.000 NA
ATOM     29  C   UNL     1      -7.749  14.030  24.295  0.00  0.00    +0.000 C 
ATOM     30  C   UNL     1      -7.916  15.993  22.935  0.00  0.00    +0.000 C 
ENDBRANCH  27  28
ENDBRANCH  26  27
ENDBRANCH  23  26
ENDBRANCH   4  20
TORSDOF 6
ENDMDL
MODEL 4
REMARK VINA RESULT:      -6.6      1.298      1.777
REMARK  Name = 
REMARK  9 active torsions:
REMARK  status: ('A' for Active; 'I' for Inactive)
REMARK    1  A    between atoms: C_1  and  O_2
REMARK    2  A    between atoms: O_2  and  C_3
REMARK    3  A    between atoms: C_11  and  C_12
REMARK    4  A    between atoms: C_15  and  N_16
REMARK    5  A    between atoms: N_19  and  C_20
REMARK    6  A    between atoms: C_20  and  C_21
REMARK    7  A    between atoms: C_21  and  N_22
REMARK    8  A    between atoms: N_22  and  C_23
REMARK    9  A    between atoms: N_22  and  C_24
REMARK                            x       y       z     vdW  Elec       q    Type
REMARK                         _______ _______ _______ _____ _____    ______ ____
ROOT
ATOM      1  C   UNL     1       0.792  10.755  18.851  0.00  0.00    +0.000 A 
ATOM      2  C   UNL     1      -0.580  10.760  18.612  0.00  0.00    +0.000 A 
ATOM      3  C   UNL     1      -1.413  11.626  19.326  0.00  0.00    +0.000 A 
ATOM      4  C   UNL     1      -0.908  12.503  20.296  0.00  0.00    +0.000 A 
ATOM      5  C   UNL     1       0.476  12.478  20.522  0.00  0.00    +0.000 A 
ATOM      6  C   UNL     1       1.321  11.618  19.811  0.00  0.00    +0.000 A 
ENDROOT
BRANCH   1  15
ATOM      7  C   UNL     1       3.827   4.392  19.436  0.00  0.00    +0.000 A 
ATOM      8  C   UNL     1       2.957   4.507  20.535  0.00  0.00    +0.000 A 
ATOM      9  C   UNL     1       2.136   5.628  20.677  0.00  0.00    +0.000 A 
ATOM     10  C   UNL     1       2.217   6.608  19.706  0.00  0.00    +0.000 A 
ATOM     11  C   UNL     1       3.074   6.518  18.614  0.00  0.00    +0.000 A 
ATOM     12  C   UNL     1       3.894   5.410  18.474  0.00  0.00    +0.000 A 
ATOM     13  C   UNL     1       2.957   7.715  17.722  0.00  0.00    +0.000 C 
ATOM     14  C   UNL     1       1.975   8.612  18.446  0.00  0.00    +0.000 C 
ATOM     15  C   UNL     1       1.662   9.865  18.087  0.00  0.00    +0.000 C 
ATOM     16  C   UNL     1       1.483   7.872  19.654  0.00  0.00    +0.000 C 
ATOM     17  O   UNL     1       0.639   8.213  20.462  0.00  0.00    +0.000 OA
BRANCH   7  19
ATOM     18  C   UNL     1       4.355   2.133  19.900  0.00  0.00    +0.000 C 
ATOM     19  O   UNL     1       4.687   3.345  19.231  0.00  0.00    +0.000 OA
ENDBRANCH   7  19
ENDBRANCH   1  15
BRANCH   4  20
ATOM     20  N   UNL     1      -1.762  13.332  21.001  0.00  0.00    +0.000 N 
ATOM     21  C   UNL     1      -3.216  13.125  20.980  0.00  0.00    +0.000 C 
ATOM     22  C   UNL     1      -3.757  12.751  22.376  0.00  0.00    +0.000 C 
ATOM     23  N   UNL     1      -3.371  13.692  23.457  0.00  0.00    +0.000 NA
ATOM     24  C   UNL     1      -1.884  13.735  23.470  0.00  0.00    +0.000 C 
ATOM     25  C   UNL     1      -1.220  14.127  22.122  0.00  0.00    +0.000 C 
BRANCH  23  26
ATOM     26  C   UNL     1      -3.917  15.054  23.245  0.00  0.00    +0.000 C 
BRANCH  26  27
ATOM     27  C   UNL     1      -5.108  15.419  24.165  0.00  0.00    +0.000 C 
BRANCH  27  28
ATOM     28  N   UNL     1      -6.436  15.328  23.520  0.00  0.00    +0.000 NA
ATOM     29  C   UNL     1      -6.357  15.500  22.066  0.00  0.00    +0.000 C 
ATOM     30  C   UNL     1      -7.030  14.021  23.825  0.00  0.00    +0.000 C 
ENDBRANCH  27  28
ENDBRANCH  26  27
ENDBRANCH  23  26
ENDBRANCH   4  20
TORSDOF 6
ENDMDL
MODEL 5
REMARK VINA RESULT:      -6.6      1.742      2.877
REMARK  Name = 
REMARK  9 active torsions:
REMARK  status: ('A' for Active; 'I' for Inactive)
REMARK    1  A    between atoms: C_1  and  O_2
REMARK    2  A    between atoms: O_2  and  C_3
REMARK    3  A    between atoms: C_11  and  C_12
REMARK    4  A    between atoms: C_15  and  N_16
REMARK    5  A    between atoms: N_19  and  C_20
REMARK    6  A    between atoms: C_20  and  C_21
REMARK    7  A    between atoms: C_21  and  N_22
REMARK    8  A    between atoms: N_22  and  C_23
REMARK    9  A    between atoms: N_22  and  C_24
REMARK                            x       y       z     vdW  Elec       q    Type
REMARK                         _______ _______ _______ _____ _____    ______ ____
ROOT
ATOM      1  C   UNL     1       0.865  10.984  18.975  0.00  0.00    +0.000 A 
ATOM      2  C   UNL     1       1.512  11.799  19.900  0.00  0.00    +0.000 A 
ATOM      3  C   UNL     1       0.775  12.679  20.698  0.00  0.00    +0.000 A 
ATOM      4  C   UNL     1      -0.620  12.774  20.595  0.00  0.00    +0.000 A 
ATOM      5  C   UNL     1      -1.250  11.946  19.654  0.00  0.00    +0.000 A 
ATOM      6  C   UNL     1      -0.523  11.059  18.853  0.00  0.00    +0.000 A 
ENDROOT
BRANCH   1  15
ATOM      7  C   UNL     1       3.618   4.481  19.394  0.00  0.00    +0.000 A 
ATOM      8  C   UNL     1       2.830   4.642  20.548  0.00  0.00    +0.000 A 
ATOM      9  C   UNL     1       2.076   5.802  20.737  0.00  0.00    +0.000 A 
ATOM     10  C   UNL     1       2.139   6.775  19.758  0.00  0.00    +0.000 A 
ATOM     11  C   UNL     1       2.917   6.640  18.612  0.00  0.00    +0.000 A 
ATOM     12  C   UNL     1       3.671   5.493  18.424  0.00  0.00    +0.000 A 
ATOM     13  C   UNL     1       2.799   7.838  17.722  0.00  0.00    +0.000 C 
ATOM     14  C   UNL     1       1.913   8.785  18.504  0.00  0.00    +0.000 C 
ATOM     15  C   UNL     1       1.637  10.050  18.160  0.00  0.00    +0.000 C 
ATOM     16  C   UNL     1       1.467   8.073  19.747  0.00  0.00    +0.000 C 
ATOM     17  O   UNL     1       0.696   8.457  20.607  0.00  0.00    +0.000 OA
BRANCH   7  19
ATOM     18  C   UNL     1       3.723   2.171  18.898  0.00  0.00    +0.000 C 
ATOM     19  O   UNL     1       4.411   3.393  19.139  0.00  0.00    +0.000 OA
ENDBRANCH   7  19
ENDBRANCH   1  15
BRANCH   4  20
ATOM     20  N   UNL     1      -1.319  13.671  21.383  0.00  0.00    +0.000 N 
ATOM     21  C   UNL     1      -2.517  14.356  20.881  0.00  0.00    +0.000 C 
ATOM     22  C   UNL     1      -3.779  13.948  21.669  0.00  0.00    +0.000 C 
ATOM     23  N   UNL     1      -3.660  14.100  23.141  0.00  0.00    +0.000 NA
ATOM     24  C   UNL     1      -2.495  13.273  23.559  0.00  0.00    +0.000 C 
ATOM     25  C   UNL     1      -1.154  13.609  22.850  0.00  0.00    +0.000 C 
BRANCH  23  26
ATOM     26  C   UNL     1      -3.456  15.509  23.551  0.00  0.00    +0.000 C 
BRANCH  26  27
ATOM     27  C   UNL     1      -3.319  15.721  25.079  0.00  0.00    +0.000 C 
BRANCH  27  28
ATOM     28  N   UNL     1      -2.142  16.519  25.487  0.00  0.00    +0.000 NA
ATOM     29  C   UNL     1      -1.163  15.720  26.231  0.00  0.00    +0.000 C 
ATOM     30  C   UNL     1      -1.505  17.082  24.291  0.00  0.00    +0.000 C 
ENDBRANCH  27  28
ENDBRANCH  26  27
ENDBRANCH  23  26
ENDBRANCH   4  20
TORSDOF 6
ENDMDL
MODEL 6
REMARK VINA RESULT:      -6.6      1.543      2.188
REMARK  Name = 
REMARK  9 active torsions:
REMARK  status: ('A' for Active; 'I' for Inactive)
REMARK    1  A    between atoms: C_1  and  O_2
REMARK    2  A    between atoms: O_2  and  C_3
REMARK    3  A    between atoms: C_11  and  C_12
REMARK    4  A    between atoms: C_15  and  N_16
REMARK    5  A    between atoms: N_19  and  C_20
REMARK    6  A    between atoms: C_20  and  C_21
REMARK    7  A    between atoms: C_21  and  N_22
REMARK    8  A    between atoms: N_22  and  C_23
REMARK    9  A    between atoms: N_22  and  C_24
REMARK                            x       y       z     vdW  Elec       q    Type
REMARK                         _______ _______ _______ _____ _____    ______ ____
ROOT
ATOM      1  C   UNL     1       0.606  10.795  19.322  0.00  0.00    +0.000 A 
ATOM      2  C   UNL     1      -0.759  10.857  19.054  0.00  0.00    +0.000 A 
ATOM      3  C   UNL     1      -1.595  11.648  19.847  0.00  0.00    +0.000 A 
ATOM      4  C   UNL     1      -1.098  12.393  20.927  0.00  0.00    +0.000 A 
ATOM      5  C   UNL     1       0.279  12.311  21.179  0.00  0.00    +0.000 A 
ATOM      6  C   UNL     1       1.126  11.526  20.390  0.00  0.00    +0.000 A 
ENDROOT
BRANCH   1  15
ATOM      7  C   UNL     1       3.789   4.477  19.367  0.00  0.00    +0.000 A 
ATOM      8  C   UNL     1       2.940   4.490  20.488  0.00  0.00    +0.000 A 
ATOM      9  C   UNL     1       2.098   5.578  20.729  0.00  0.00    +0.000 A 
ATOM     10  C   UNL     1       2.137   6.630  19.834  0.00  0.00    +0.000 A 
ATOM     11  C   UNL     1       2.973   6.641  18.722  0.00  0.00    +0.000 A 
ATOM     12  C   UNL     1       3.813   5.566  18.483  0.00  0.00    +0.000 A 
ATOM     13  C   UNL     1       2.812   7.898  17.925  0.00  0.00    +0.000 C 
ATOM     14  C   UNL     1       1.826   8.716  18.733  0.00  0.00    +0.000 C 
ATOM     15  C   UNL     1       1.478   9.984  18.476  0.00  0.00    +0.000 C 
ATOM     16  C   UNL     1       1.376   7.877  19.891  0.00  0.00    +0.000 C 
ATOM     17  O   UNL     1       0.542   8.137  20.739  0.00  0.00    +0.000 OA
BRANCH   7  19
ATOM     18  C   UNL     1       4.413   2.220  19.702  0.00  0.00    +0.000 C 
ATOM     19  O   UNL     1       4.667   3.469  19.068  0.00  0.00    +0.000 OA
ENDBRANCH   7  19
ENDBRANCH   1  15
BRANCH   4  20
ATOM     20  N   UNL     1      -1.955  13.149  21.707  0.00  0.00    +0.000 N 
ATOM     21  C   UNL     1      -3.134  13.806  21.129  0.00  0.00    +0.000 C 
ATOM     22  C   UNL     1      -4.445  13.230  21.704  0.00  0.00    +0.000 C 
ATOM     23  N   UNL     1      -4.515  13.225  23.187  0.00  0.00    +0.000 NA
ATOM     24  C   UNL     1      -3.347  12.435  23.663  0.00  0.00    +0.000 C 
ATOM     25  C   UNL     1      -1.962  12.935  23.169  0.00  0.00    +0.000 C 
BRANCH  23  26
ATOM     26  C   UNL     1      -4.473  14.590  23.761  0.00  0.00    +0.000 C 
BRANCH  26  27
ATOM     27  C   UNL     1      -5.752  15.430  23.516  0.00  0.00    +0.000 C 
BRANCH  27  28
ATOM     28  N   UNL     1      -5.576  16.887  23.700  0.00  0.00    +0.000 NA
ATOM     29  C   UNL     1      -5.042  17.217  25.025  0.00  0.00    +0.000 C 
ATOM     30  C   UNL     1      -4.667  17.396  22.667  0.00  0.00    +0.000 C 
ENDBRANCH  27  28
ENDBRANCH  26  27
ENDBRANCH  23  26
ENDBRANCH   4  20
TORSDOF 6
ENDMDL
MODEL 7
REMARK VINA RESULT:      -6.6      1.326      1.876
REMARK  Name = 
REMARK  9 active torsions:
REMARK  status: ('A' for Active; 'I' for Inactive)
REMARK    1  A    between atoms: C_1  and  O_2
REMARK    2  A    between atoms: O_2  and  C_3
REMARK    3  A    between atoms: C_11  and  C_12
REMARK    4  A    between atoms: C_15  and  N_16
REMARK    5  A    between atoms: N_19  and  C_20
REMARK    6  A    between atoms: C_20  and  C_21
REMARK    7  A    between atoms: C_21  and  N_22
REMARK    8  A    between atoms: N_22  and  C_23
REMARK    9  A    between atoms: N_22  and  C_24
REMARK                            x       y       z     vdW  Elec       q    Type
REMARK                         _______ _______ _______ _____ _____    ______ ____
ROOT
ATOM      1  C   UNL     1       0.765  10.120  19.358  0.00  0.00    +0.000 A 
ATOM      2  C   UNL     1      -0.552  10.302  18.944  0.00  0.00    +0.000 A 
ATOM      3  C   UNL     1      -1.404  11.144  19.664  0.00  0.00    +0.000 A 
ATOM      4  C   UNL     1      -0.973  11.822  20.812  0.00  0.00    +0.000 A 
ATOM      5  C   UNL     1       0.356  11.620  21.212  0.00  0.00    +0.000 A 
ATOM      6  C   UNL     1       1.220  10.783  20.498  0.00  0.00    +0.000 A 
ENDROOT
BRANCH   1  15
ATOM      7  C   UNL     1       3.721   3.706  19.772  0.00  0.00    +0.000 A 
ATOM      8  C   UNL     1       2.808   3.781  20.839  0.00  0.00    +0.000 A 
ATOM      9  C   UNL     1       1.991   4.902  20.998  0.00  0.00    +0.000 A 
ATOM     10  C   UNL     1       2.119   5.925  20.078  0.00  0.00    +0.000 A 
ATOM     11  C   UNL     1       3.020   5.876  19.019  0.00  0.00    +0.000 A 
ATOM     12  C   UNL     1       3.836   4.767  18.861  0.00  0.00    +0.000 A 
ATOM     13  C   UNL     1       2.950   7.113  18.178  0.00  0.00    +0.000 C 
ATOM     14  C   UNL     1       1.946   7.986  18.902  0.00  0.00    +0.000 C 
ATOM     15  C   UNL     1       1.658   9.257  18.589  0.00  0.00    +0.000 C 
ATOM     16  C   UNL     1       1.399   7.197  20.054  0.00  0.00    +0.000 C 
ATOM     17  O   UNL     1       0.525   7.509  20.842  0.00  0.00    +0.000 OA
BRANCH   7  19
ATOM     18  C   UNL     1       4.058   1.581  18.789  0.00  0.00    +0.000 C 
ATOM     19  O   UNL     1       4.581   2.662  19.554  0.00  0.00    +0.000 OA
ENDBRANCH   7  19
ENDBRANCH   1  15
BRANCH   4  20
ATOM     20  N   UNL     1      -1.848  12.631  21.516  0.00  0.00    +0.000 N 
ATOM     21  C   UNL     1      -3.032  13.215  20.874  0.00  0.00    +0.000 C 
ATOM     22  C   UNL     1      -4.339  12.672  21.489  0.00  0.00    +0.000 C 
ATOM     23  N   UNL     1      -4.421  12.798  22.966  0.00  0.00    +0.000 NA
ATOM     24  C   UNL     1      -3.245  12.073  23.519  0.00  0.00    +0.000 C 
ATOM     25  C   UNL     1      -1.864  12.549  22.991  0.00  0.00    +0.000 C 
BRANCH  23  26
ATOM     26  C   UNL     1      -4.405  14.210  23.416  0.00  0.00    +0.000 C 
BRANCH  26  27
ATOM     27  C   UNL     1      -5.795  14.893  23.437  0.00  0.00    +0.000 C 
BRANCH  27  28
ATOM     28  N   UNL     1      -6.938  13.969  23.268  0.00  0.00    +0.000 NA
ATOM     29  C   UNL     1      -7.829  13.973  24.432  0.00  0.00    +0.000 C 
ATOM     30  C   UNL     1      -7.695  14.356  22.072  0.00  0.00    +0.000 C 
ENDBRANCH  27  28
ENDBRANCH  26  27
ENDBRANCH  23  26
ENDBRANCH   4  20
TORSDOF 6
ENDMDL
MODEL 8
REMARK VINA RESULT:      -6.6      4.512     11.242
REMARK  Name = 
REMARK  9 active torsions:
REMARK  status: ('A' for Active; 'I' for Inactive)
REMARK    1  A    between atoms: C_1  and  O_2
REMARK    2  A    between atoms: O_2  and  C_3
REMARK    3  A    between atoms: C_11  and  C_12
REMARK    4  A    between atoms: C_15  and  N_16
REMARK    5  A    between atoms: N_19  and  C_20
REMARK    6  A    between atoms: C_20  and  C_21
REMARK    7  A    between atoms: C_21  and  N_22
REMARK    8  A    between atoms: N_22  and  C_23
REMARK    9  A    between atoms: N_22  and  C_24
REMARK                            x       y       z     vdW  Elec       q    Type
REMARK                         _______ _______ _______ _____ _____    ______ ____
ROOT
ATOM      1  C   UNL     1       0.962   9.726  19.526  0.00  0.00    +0.000 A 
ATOM      2  C   UNL     1       1.525   9.913  18.266  0.00  0.00    +0.000 A 
ATOM      3  C   UNL     1       2.352   8.931  17.714  0.00  0.00    +0.000 A 
ATOM      4  C   UNL     1       2.643   7.743  18.399  0.00  0.00    +0.000 A 
ATOM      5  C   UNL     1       2.068   7.578  19.667  0.00  0.00    +0.000 A 
ATOM      6  C   UNL     1       1.236   8.553  20.229  0.00  0.00    +0.000 A 
ENDROOT
BRANCH   1  15
ATOM      7  C   UNL     1      -5.347  12.671  18.274  0.00  0.00    +0.000 A 
ATOM      8  C   UNL     1      -5.238  11.595  17.375  0.00  0.00    +0.000 A 
ATOM      9  C   UNL     1      -4.129  10.746  17.414  0.00  0.00    +0.000 A 
ATOM     10  C   UNL     1      -3.155  11.008  18.358  0.00  0.00    +0.000 A 
ATOM     11  C   UNL     1      -3.239  12.070  19.252  0.00  0.00    +0.000 A 
ATOM     12  C   UNL     1      -4.335  12.917  19.212  0.00  0.00    +0.000 A 
ATOM     13  C   UNL     1      -2.051  12.119  20.163  0.00  0.00    +0.000 C 
ATOM     14  C   UNL     1      -1.164  10.998  19.662  0.00  0.00    +0.000 C 
ATOM     15  C   UNL     1       0.080  10.746  20.089  0.00  0.00    +0.000 C 
ATOM     16  C   UNL     1      -1.904  10.282  18.571  0.00  0.00    +0.000 C 
ATOM     17  O   UNL     1      -1.571   9.287  17.954  0.00  0.00    +0.000 OA
BRANCH   7  19
ATOM     18  C   UNL     1      -6.380  14.493  19.373  0.00  0.00    +0.000 C 
ATOM     19  O   UNL     1      -6.381  13.570  18.289  0.00  0.00    +0.000 OA
ENDBRANCH   7  19
ENDBRANCH   1  15
BRANCH   4  20
ATOM     20  N   UNL     1       3.484   6.800  17.834  0.00  0.00    +0.000 N 
ATOM     21  C   UNL     1       4.477   7.173  16.819  0.00  0.00    +0.000 C 
ATOM     22  C   UNL     1       5.918   6.949  17.324  0.00  0.00    +0.000 C 
ATOM     23  N   UNL     1       6.180   5.584  17.847  0.00  0.00    +0.000 NA
ATOM     24  C   UNL     1       5.202   5.355  18.945  0.00  0.00    +0.000 C 
ATOM     25  C   UNL     1       3.710   5.528  18.551  0.00  0.00    +0.000 C 
BRANCH  23  26
ATOM     26  C   UNL     1       6.029   4.540  16.805  0.00  0.00    +0.000 C 
BRANCH  26  27
ATOM     27  C   UNL     1       7.126   4.559  15.712  0.00  0.00    +0.000 C 
BRANCH  27  28
ATOM     28  N   UNL     1       6.658   4.993  14.377  0.00  0.00    +0.000 NA
ATOM     29  C   UNL     1       7.770   5.309  13.477  0.00  0.00    +0.000 C 
ATOM     30  C   UNL     1       5.838   3.930  13.787  0.00  0.00    +0.000 C 
ENDBRANCH  27  28
ENDBRANCH  26  27
ENDBRANCH  23  26
ENDBRANCH   4  20
TORSDOF 6
ENDMDL
MODEL 9
REMARK VINA RESULT:      -6.5      1.191      1.634
REMARK  Name = 
REMARK  9 active torsions:
REMARK  status: ('A' for Active; 'I' for Inactive)
REMARK    1  A    between atoms: C_1  and  O_2
REMARK    2  A    between atoms: O_2  and  C_3
REMARK    3  A    between atoms: C_11  and  C_12
REMARK    4  A    between atoms: C_15  and  N_16
REMARK    5  A    between atoms: N_19  and  C_20
REMARK    6  A    between atoms: C_20  and  C_21
REMARK    7  A    between atoms: C_21  and  N_22
REMARK    8  A    between atoms: N_22  and  C_23
REMARK    9  A    between atoms: N_22  and  C_24
REMARK                            x       y       z     vdW  Elec       q    Type
REMARK                         _______ _______ _______ _____ _____    ______ ____
ROOT
ATOM      1  C   UNL     1       0.629  10.959  19.062  0.00  0.00    +0.000 A 
ATOM      2  C   UNL     1      -0.751  10.933  18.881  0.00  0.00    +0.000 A 
ATOM      3  C   UNL     1      -1.586  11.646  19.746  0.00  0.00    +0.000 A 
ATOM      4  C   UNL     1      -1.073  12.399  20.812  0.00  0.00    +0.000 A 
ATOM      5  C   UNL     1       0.320  12.407  20.976  0.00  0.00    +0.000 A 
ATOM      6  C   UNL     1       1.166  11.700  20.115  0.00  0.00    +0.000 A 
ENDROOT
BRANCH   1  15
ATOM      7  C   UNL     1       4.230   4.877  18.742  0.00  0.00    +0.000 A 
ATOM      8  C   UNL     1       3.455   4.807  19.914  0.00  0.00    +0.000 A 
ATOM      9  C   UNL     1       2.559   5.828  20.235  0.00  0.00    +0.000 A 
ATOM     10  C   UNL     1       2.469   6.899  19.367  0.00  0.00    +0.000 A 
ATOM     11  C   UNL     1       3.230   6.993  18.207  0.00  0.00    +0.000 A 
ATOM     12  C   UNL     1       4.124   5.985  17.887  0.00  0.00    +0.000 A 
ATOM     13  C   UNL     1       2.933   8.254  17.454  0.00  0.00    +0.000 C 
ATOM     14  C   UNL     1       1.948   8.983  18.343  0.00  0.00    +0.000 C 
ATOM     15  C   UNL     1       1.499  10.230  18.142  0.00  0.00    +0.000 C 
ATOM     16  C   UNL     1       1.630   8.089  19.505  0.00  0.00    +0.000 C 
ATOM     17  O   UNL     1       0.836   8.272  20.409  0.00  0.00    +0.000 OA
BRANCH   7  19
ATOM     18  C   UNL     1       5.745   4.139  17.082  0.00  0.00    +0.000 C 
ATOM     19  O   UNL     1       5.153   3.940  18.361  0.00  0.00    +0.000 OA
ENDBRANCH   7  19
ENDBRANCH   1  15
BRANCH   4  20
ATOM     20  N   UNL     1      -1.927  13.076  21.664  0.00  0.00    +0.000 N 
ATOM     21  C   UNL     1      -3.170  13.684  21.173  0.00  0.00    +0.000 C 
ATOM     22  C   UNL     1      -4.415  13.014  21.792  0.00  0.00    +0.000 C 
ATOM     23  N   UNL     1      -4.405  12.952  23.274  0.00  0.00    +0.000 NA
ATOM     24  C   UNL     1      -3.171  12.214  23.659  0.00  0.00    +0.000 C 
ATOM     25  C   UNL     1      -1.845  12.810  23.114  0.00  0.00    +0.000 C 
BRANCH  23  26
ATOM     26  C   UNL     1      -4.409  14.296  23.898  0.00  0.00    +0.000 C 
BRANCH  26  27
ATOM     27  C   UNL     1      -5.308  15.335  23.182  0.00  0.00    +0.000 C 
BRANCH  27  28
ATOM     28  N   UNL     1      -6.508  15.740  23.946  0.00  0.00    +0.000 NA
ATOM     29  C   UNL     1      -7.081  16.995  23.450  0.00  0.00    +0.000 C 
ATOM     30  C   UNL     1      -7.515  14.677  23.859  0.00  0.00    +0.000 C 
ENDBRANCH  27  28
ENDBRANCH  26  27
ENDBRANCH  23  26
ENDBRANCH   4  20
TORSDOF 6
ENDMDL
