MODEL 1
REMARK VINA RESULT:      -7.7      0.000      0.000
REMARK  Name = 
REMARK  7 active torsions:
REMARK  status: ('A' for Active; 'I' for Inactive)
REMARK    1  A    between atoms: C_1  and  C_2
REMARK    2  A    between atoms: C_3  and  C_4
REMARK    3  A    between atoms: C_12  and  C_13
REMARK    4  A    between atoms: C_16  and  C_17
REMARK    5  A    between atoms: C_19  and  C_20
REMARK    6  A    between atoms: C_21  and  C_22
REMARK    7  A    between atoms: C_24  and  N_25
REMARK                            x       y       z     vdW  Elec       q    Type
REMARK                         _______ _______ _______ _____ _____    ______ ____
ROOT
ATOM      1  C   UNL     1       1.933   8.612  18.091  0.00  0.00    +0.000 A 
ATOM      2  C   UNL     1       2.460   9.831  18.485  0.00  0.00    +0.000 A 
ATOM      3  C   UNL     1       1.409  10.773  18.485  0.00  0.00    +0.000 A 
ATOM      4  C   UNL     1       0.271  10.089  18.117  0.00  0.00    +0.000 A 
ATOM      5  O   UNL     1       0.589   8.791  17.849  0.00  0.00    +0.000 OA
ENDROOT
BRANCH   1  15
ATOM      6  C   UNL     1       4.055   4.877  17.576  0.00  0.00    +0.000 C 
ATOM      7  C   UNL     1       3.284   5.119  18.857  0.00  0.00    +0.000 C 
ATOM      8  C   UNL     1       3.282   4.213  19.861  0.00  0.00    +0.000 C 
ATOM      9  C   UNL     1       2.531   4.451  21.115  0.00  0.00    +0.000 C 
ATOM     10  O   UNL     1       2.493   3.628  22.023  0.00  0.00    +0.000 OA
ATOM     11  N   UNL     1       1.862   5.637  21.209  0.00  0.00    +0.000 N 
ATOM     12  C   UNL     1       1.742   6.615  20.258  0.00  0.00    +0.000 C 
ATOM     13  O   UNL     1       0.989   7.556  20.469  0.00  0.00    +0.000 OA
ATOM     14  C   UNL     1       2.538   6.393  18.993  0.00  0.00    +0.000 C 
ATOM     15  C   UNL     1       2.562   7.341  18.030  0.00  0.00    +0.000 C 
ATOM     16  H   UNL     1       1.321   5.777  22.051  0.00  0.00    +0.000 HD
BRANCH   8  17
ATOM     17  C   UNL     1       4.042   2.900  19.782  0.00  0.00    +0.000 C 
ATOM     18  N   UNL     1       4.673   1.811  19.717  0.00  0.00    +0.000 NA
ENDBRANCH   8  17
ENDBRANCH   1  15
BRANCH   4  19
ATOM     19  C   UNL     1      -1.129  10.489  17.999  0.00  0.00    +0.000 A 
ATOM     20  C   UNL     1      -1.825  10.106  16.837  0.00  0.00    +0.000 A 
ATOM     21  C   UNL     1      -3.133  10.547  16.553  0.00  0.00    +0.000 A 
ATOM     22  C   UNL     1      -3.760  10.141  15.246  0.00  0.00    +0.000 C 
ATOM     23  C   UNL     1      -3.796  11.376  17.474  0.00  0.00    +0.000 A 
ATOM     24  C   UNL     1      -5.174  11.931  17.237  0.00  0.00    +0.000 C 
ATOM     25  C   UNL     1      -3.137  11.730  18.662  0.00  0.00    +0.000 A 
ATOM     26  C   UNL     1      -1.824  11.293  18.910  0.00  0.00    +0.000 A 
BRANCH  26  27
ATOM     27  N   UNL     1      -1.193  11.788  20.119  0.00  0.00    +0.000 N 
ATOM     28  O   UNL     1      -0.861  12.982  20.148  0.00  0.00    +0.000 OA
ATOM     29  O   UNL     1      -1.122  10.997  21.072  0.00  0.00    +0.000 OA
ENDBRANCH  26  27
ENDBRANCH   4  19
TORSDOF 4
ENDMDL
MODEL 2
REMARK VINA RESULT:      -7.6      2.573      8.371
REMARK  Name = 
REMARK  7 active torsions:
REMARK  status: ('A' for Active; 'I' for Inactive)
REMARK    1  A    between atoms: C_1  and  C_2
REMARK    2  A    between atoms: C_3  and  C_4
REMARK    3  A    between atoms: C_12  and  C_13
REMARK    4  A    between atoms: C_16  and  C_17
REMARK    5  A    between atoms: C_19  and  C_20
REMARK    6  A    between atoms: C_21  and  C_22
REMARK    7  A    between atoms: C_24  and  N_25
REMARK                            x       y       z     vdW  Elec       q    Type
REMARK                         _______ _______ _______ _____ _____    ______ ____
ROOT
ATOM      1  C   UNL     1       1.597   9.270  19.169  0.00  0.00    +0.000 A 
ATOM      2  C   UNL     1       2.203   9.658  17.985  0.00  0.00    +0.000 A 
ATOM      3  C   UNL     1       2.767   8.506  17.394  0.00  0.00    +0.000 A 
ATOM      4  C   UNL     1       2.462   7.451  18.225  0.00  0.00    +0.000 A 
ATOM      5  O   UNL     1       1.782   7.912  19.313  0.00  0.00    +0.000 OA
ENDROOT
BRANCH   1  15
ATOM      6  C   UNL     1      -0.456  11.634  22.155  0.00  0.00    +0.000 C 
ATOM      7  C   UNL     1      -1.101  11.432  20.799  0.00  0.00    +0.000 C 
ATOM      8  C   UNL     1      -2.282  12.012  20.487  0.00  0.00    +0.000 C 
ATOM      9  C   UNL     1      -2.910  11.818  19.160  0.00  0.00    +0.000 C 
ATOM     10  O   UNL     1      -3.994  12.311  18.870  0.00  0.00    +0.000 OA
ATOM     11  N   UNL     1      -2.226  11.044  18.269  0.00  0.00    +0.000 N 
ATOM     12  C   UNL     1      -1.055  10.363  18.468  0.00  0.00    +0.000 C 
ATOM     13  O   UNL     1      -0.654   9.606  17.594  0.00  0.00    +0.000 OA
ATOM     14  C   UNL     1      -0.391  10.590  19.807  0.00  0.00    +0.000 C 
ATOM     15  C   UNL     1       0.814  10.038  20.070  0.00  0.00    +0.000 C 
ATOM     16  H   UNL     1      -2.678  10.884  17.379  0.00  0.00    +0.000 HD
BRANCH   8  17
ATOM     17  C   UNL     1      -3.042  12.898  21.458  0.00  0.00    +0.000 C 
ATOM     18  N   UNL     1      -3.673  13.634  22.265  0.00  0.00    +0.000 NA
ENDBRANCH   8  17
ENDBRANCH   1  15
BRANCH   4  19
ATOM     19  C   UNL     1       2.706   6.014  18.129  0.00  0.00    +0.000 A 
ATOM     20  C   UNL     1       1.743   5.148  18.680  0.00  0.00    +0.000 A 
ATOM     21  C   UNL     1       1.933   3.753  18.765  0.00  0.00    +0.000 A 
ATOM     22  C   UNL     1       0.874   2.924  19.441  0.00  0.00    +0.000 C 
ATOM     23  C   UNL     1       3.113   3.186  18.253  0.00  0.00    +0.000 A 
ATOM     24  C   UNL     1       3.423   1.717  18.339  0.00  0.00    +0.000 C 
ATOM     25  C   UNL     1       4.064   4.029  17.656  0.00  0.00    +0.000 A 
ATOM     26  C   UNL     1       3.858   5.418  17.603  0.00  0.00    +0.000 A 
BRANCH  26  27
ATOM     27  N   UNL     1       4.938   6.215  17.053  0.00  0.00    +0.000 N 
ATOM     28  O   UNL     1       5.824   6.600  17.831  0.00  0.00    +0.000 OA
ATOM     29  O   UNL     1       4.946   6.368  15.822  0.00  0.00    +0.000 OA
ENDBRANCH  26  27
ENDBRANCH   4  19
TORSDOF 4
ENDMDL
MODEL 3
REMARK VINA RESULT:      -7.6      3.136      8.601
REMARK  Name = 
REMARK  7 active torsions:
REMARK  status: ('A' for Active; 'I' for Inactive)
REMARK    1  A    between atoms: C_1  and  C_2
REMARK    2  A    between atoms: C_3  and  C_4
REMARK    3  A    between atoms: C_12  and  C_13
REMARK    4  A    between atoms: C_16  and  C_17
REMARK    5  A    between atoms: C_19  and  C_20
REMARK    6  A    between atoms: C_21  and  C_22
REMARK    7  A    between atoms: C_24  and  N_25
REMARK                            x       y       z     vdW  Elec       q    Type
REMARK                         _______ _______ _______ _____ _____    ______ ____
ROOT
ATOM      1  C   UNL     1       1.743   6.526  20.506  0.00  0.00    +0.000 A 
ATOM      2  C   UNL     1       1.437   5.203  20.779  0.00  0.00    +0.000 A 
ATOM      3  C   UNL     1       2.262   4.395  19.966  0.00  0.00    +0.000 A 
ATOM      4  C   UNL     1       3.061   5.255  19.245  0.00  0.00    +0.000 A 
ATOM      5  O   UNL     1       2.731   6.542  19.546  0.00  0.00    +0.000 OA
ENDROOT
BRANCH   1  15
ATOM      6  C   UNL     1       0.329   9.931  22.771  0.00  0.00    +0.000 C 
ATOM      7  C   UNL     1       0.641  10.100  21.299  0.00  0.00    +0.000 C 
ATOM      8  C   UNL     1       0.530  11.301  20.688  0.00  0.00    +0.000 C 
ATOM      9  C   UNL     1       0.839  11.467  19.249  0.00  0.00    +0.000 C 
ATOM     10  O   UNL     1       0.715  12.541  18.672  0.00  0.00    +0.000 OA
ATOM     11  N   UNL     1       1.257  10.353  18.583  0.00  0.00    +0.000 N 
ATOM     12  C   UNL     1       1.367   9.075  19.062  0.00  0.00    +0.000 C 
ATOM     13  O   UNL     1       1.634   8.170  18.282  0.00  0.00    +0.000 OA
ATOM     14  C   UNL     1       1.091   8.909  20.539  0.00  0.00    +0.000 C 
ATOM     15  C   UNL     1       1.261   7.706  21.131  0.00  0.00    +0.000 C 
ATOM     16  H   UNL     1       1.430  10.464  17.593  0.00  0.00    +0.000 HD
BRANCH   8  17
ATOM     17  C   UNL     1       0.091  12.556  21.422  0.00  0.00    +0.000 C 
ATOM     18  N   UNL     1      -0.274  13.598  22.031  0.00  0.00    +0.000 NA
ENDBRANCH   8  17
ENDBRANCH   1  15
BRANCH   4  19
ATOM     19  C   UNL     1       4.149   5.031  18.296  0.00  0.00    +0.000 A 
ATOM     20  C   UNL     1       5.178   5.989  18.240  0.00  0.00    +0.000 A 
ATOM     21  C   UNL     1       6.205   5.950  17.275  0.00  0.00    +0.000 A 
ATOM     22  C   UNL     1       7.215   7.066  17.255  0.00  0.00    +0.000 C 
ATOM     23  C   UNL     1       6.235   4.897  16.344  0.00  0.00    +0.000 A 
ATOM     24  C   UNL     1       7.264   4.796  15.252  0.00  0.00    +0.000 C 
ATOM     25  C   UNL     1       5.244   3.905  16.414  0.00  0.00    +0.000 A 
ATOM     26  C   UNL     1       4.220   3.980  17.373  0.00  0.00    +0.000 A 
BRANCH  26  27
ATOM     27  N   UNL     1       3.190   2.962  17.306  0.00  0.00    +0.000 N 
ATOM     28  O   UNL     1       2.153   3.231  16.683  0.00  0.00    +0.000 OA
ATOM     29  O   UNL     1       3.468   1.856  17.796  0.00  0.00    +0.000 OA
ENDBRANCH  26  27
ENDBRANCH   4  19
TORSDOF 4
ENDMDL
MODEL 4
REMARK VINA RESULT:      -7.3      1.178      1.536
REMARK  Name = 
REMARK  7 active torsions:
REMARK  status: ('A' for Active; 'I' for Inactive)
REMARK    1  A    between atoms: C_1  and  C_2
REMARK    2  A    between atoms: C_3  and  C_4
REMARK    3  A    between atoms: C_12  and  C_13
REMARK    4  A    between atoms: C_16  and  C_17
REMARK    5  A    between atoms: C_19  and  C_20
REMARK    6  A    between atoms: C_21  and  C_22
REMARK    7  A    between atoms: C_24  and  N_25
REMARK                            x       y       z     vdW  Elec       q    Type
REMARK                         _______ _______ _______ _____ _____    ______ ____
ROOT
ATOM      1  C   UNL     1       2.017   8.286  17.975  0.00  0.00    +0.000 A 
ATOM      2  C   UNL     1       2.834   9.403  17.924  0.00  0.00    +0.000 A 
ATOM      3  C   UNL     1       2.053  10.523  18.284  0.00  0.00    +0.000 A 
ATOM      4  C   UNL     1       0.793  10.045  18.569  0.00  0.00    +0.000 A 
ATOM      5  O   UNL     1       0.758   8.700  18.355  0.00  0.00    +0.000 OA
ENDROOT
BRANCH   1  15
ATOM      6  C   UNL     1       3.179   4.221  17.056  0.00  0.00    +0.000 C 
ATOM      7  C   UNL     1       2.833   4.586  18.485  0.00  0.00    +0.000 C 
ATOM      8  C   UNL     1       2.922   3.682  19.486  0.00  0.00    +0.000 C 
ATOM      9  C   UNL     1       2.587   4.040  20.883  0.00  0.00    +0.000 C 
ATOM     10  O   UNL     1       2.634   3.225  21.798  0.00  0.00    +0.000 OA
ATOM     11  N   UNL     1       2.205   5.330  21.106  0.00  0.00    +0.000 N 
ATOM     12  C   UNL     1       2.026   6.328  20.186  0.00  0.00    +0.000 C 
ATOM     13  O   UNL     1       1.548   7.394  20.553  0.00  0.00    +0.000 OA
ATOM     14  C   UNL     1       2.405   5.978  18.766  0.00  0.00    +0.000 C 
ATOM     15  C   UNL     1       2.354   6.919  17.797  0.00  0.00    +0.000 C 
ATOM     16  H   UNL     1       1.941   5.559  22.055  0.00  0.00    +0.000 HD
BRANCH   8  17
ATOM     17  C   UNL     1       3.372   2.249  19.258  0.00  0.00    +0.000 C 
ATOM     18  N   UNL     1       3.744   1.059  19.068  0.00  0.00    +0.000 NA
ENDBRANCH   8  17
ENDBRANCH   1  15
BRANCH   4  19
ATOM     19  C   UNL     1      -0.423  10.693  19.055  0.00  0.00    +0.000 A 
ATOM     20  C   UNL     1      -1.537  10.724  18.196  0.00  0.00    +0.000 A 
ATOM     21  C   UNL     1      -2.716  11.434  18.502  0.00  0.00    +0.000 A 
ATOM     22  C   UNL     1      -3.821  11.466  17.481  0.00  0.00    +0.000 C 
ATOM     23  C   UNL     1      -2.810  12.117  19.727  0.00  0.00    +0.000 A 
ATOM     24  C   UNL     1      -4.008  12.937  20.121  0.00  0.00    +0.000 C 
ATOM     25  C   UNL     1      -1.727  12.058  20.619  0.00  0.00    +0.000 A 
ATOM     26  C   UNL     1      -0.556  11.359  20.280  0.00  0.00    +0.000 A 
BRANCH  26  27
ATOM     27  N   UNL     1       0.543  11.434  21.223  0.00  0.00    +0.000 N 
ATOM     28  O   UNL     1       1.246  12.456  21.210  0.00  0.00    +0.000 OA
ATOM     29  O   UNL     1       0.635  10.508  22.043  0.00  0.00    +0.000 OA
ENDBRANCH  26  27
ENDBRANCH   4  19
TORSDOF 4
ENDMDL
MODEL 5
REMARK VINA RESULT:      -7.2      1.964      2.885
REMARK  Name = 
REMARK  7 active torsions:
REMARK  status: ('A' for Active; 'I' for Inactive)
REMARK    1  A    between atoms: C_1  and  C_2
REMARK    2  A    between atoms: C_3  and  C_4
REMARK    3  A    between atoms: C_12  and  C_13
REMARK    4  A    between atoms: C_16  and  C_17
REMARK    5  A    between atoms: C_19  and  C_20
REMARK    6  A    between atoms: C_21  and  C_22
REMARK    7  A    between atoms: C_24  and  N_25
REMARK                            x       y       z     vdW  Elec       q    Type
REMARK                         _______ _______ _______ _____ _____    ______ ____
ROOT
ATOM      1  C   UNL     1       1.320  10.351  18.290  0.00  0.00    +0.000 A 
ATOM      2  C   UNL     1       1.802  11.592  18.674  0.00  0.00    +0.000 A 
ATOM      3  C   UNL     1       0.690  12.415  18.957  0.00  0.00    +0.000 A 
ATOM      4  C   UNL     1      -0.431  11.639  18.761  0.00  0.00    +0.000 A 
ATOM      5  O   UNL     1      -0.056  10.402  18.329  0.00  0.00    +0.000 OA
ENDROOT
BRANCH   1  15
ATOM      6  C   UNL     1       3.682   6.927  17.101  0.00  0.00    +0.000 C 
ATOM      7  C   UNL     1       2.964   6.903  18.434  0.00  0.00    +0.000 C 
ATOM      8  C   UNL     1       3.082   5.855  19.280  0.00  0.00    +0.000 C 
ATOM      9  C   UNL     1       2.383   5.833  20.585  0.00  0.00    +0.000 C 
ATOM     10  O   UNL     1       2.453   4.879  21.351  0.00  0.00    +0.000 OA
ATOM     11  N   UNL     1       1.634   6.931  20.894  0.00  0.00    +0.000 N 
ATOM     12  C   UNL     1       1.391   8.032  20.117  0.00  0.00    +0.000 C 
ATOM     13  O   UNL     1       0.583   8.865  20.506  0.00  0.00    +0.000 OA
ATOM     14  C   UNL     1       2.134   8.076  18.802  0.00  0.00    +0.000 C 
ATOM     15  C   UNL     1       2.037   9.161  18.001  0.00  0.00    +0.000 C 
ATOM     16  H   UNL     1       1.129   6.895  21.769  0.00  0.00    +0.000 HD
BRANCH   8  17
ATOM     17  C   UNL     1       3.932   4.637  18.963  0.00  0.00    +0.000 C 
ATOM     18  N   UNL     1       4.638   3.626  18.699  0.00  0.00    +0.000 NA
ENDBRANCH   8  17
ENDBRANCH   1  15
BRANCH   4  19
ATOM     19  C   UNL     1      -1.857  11.895  18.952  0.00  0.00    +0.000 A 
ATOM     20  C   UNL     1      -2.250  12.575  20.119  0.00  0.00    +0.000 A 
ATOM     21  C   UNL     1      -3.602  12.760  20.474  0.00  0.00    +0.000 A 
ATOM     22  C   UNL     1      -3.915  13.435  21.783  0.00  0.00    +0.000 C 
ATOM     23  C   UNL     1      -4.610  12.279  19.621  0.00  0.00    +0.000 A 
ATOM     24  C   UNL     1      -6.076  12.389  19.938  0.00  0.00    +0.000 C 
ATOM     25  C   UNL     1      -4.238  11.640  18.427  0.00  0.00    +0.000 A 
ATOM     26  C   UNL     1      -2.883  11.451  18.108  0.00  0.00    +0.000 A 
BRANCH  26  27
ATOM     27  N   UNL     1      -2.598  10.698  16.902  0.00  0.00    +0.000 N 
ATOM     28  O   UNL     1      -2.629   9.460  16.975  0.00  0.00    +0.000 OA
ATOM     29  O   UNL     1      -2.441  11.353  15.861  0.00  0.00    +0.000 OA
ENDBRANCH  26  27
ENDBRANCH   4  19
TORSDOF 4
ENDMDL
MODEL 6
REMARK VINA RESULT:      -7.2      1.039      1.218
REMARK  Name = 
REMARK  7 active torsions:
REMARK  status: ('A' for Active; 'I' for Inactive)
REMARK    1  A    between atoms: C_1  and  C_2
REMARK    2  A    between atoms: C_3  and  C_4
REMARK    3  A    between atoms: C_12  and  C_13
REMARK    4  A    between atoms: C_16  and  C_17
REMARK    5  A    between atoms: C_19  and  C_20
REMARK    6  A    between atoms: C_21  and  C_22
REMARK    7  A    between atoms: C_24  and  N_25
REMARK                            x       y       z     vdW  Elec       q    Type
REMARK                         _______ _______ _______ _____ _____    ______ ____
ROOT
ATOM      1  C   UNL     1       1.695   9.674  18.159  0.00  0.00    +0.000 A 
ATOM      2  C   UNL     1       2.219  10.937  18.384  0.00  0.00    +0.000 A 
ATOM      3  C   UNL     1       1.138  11.816  18.612  0.00  0.00    +0.000 A 
ATOM      4  C   UNL     1      -0.006  11.053  18.545  0.00  0.00    +0.000 A 
ATOM      5  O   UNL     1       0.323   9.766  18.242  0.00  0.00    +0.000 OA
ENDROOT
BRANCH   1  15
ATOM      6  C   UNL     1       3.953   6.086  17.298  0.00  0.00    +0.000 C 
ATOM      7  C   UNL     1       3.202   6.190  18.610  0.00  0.00    +0.000 C 
ATOM      8  C   UNL     1       3.258   5.206  19.535  0.00  0.00    +0.000 C 
ATOM      9  C   UNL     1       2.527   5.310  20.819  0.00  0.00    +0.000 C 
ATOM     10  O   UNL     1       2.542   4.415  21.656  0.00  0.00    +0.000 OA
ATOM     11  N   UNL     1       1.813   6.455  21.022  0.00  0.00    +0.000 N 
ATOM     12  C   UNL     1       1.632   7.501  20.158  0.00  0.00    +0.000 C 
ATOM     13  O   UNL     1       0.847   8.390  20.460  0.00  0.00    +0.000 OA
ATOM     14  C   UNL     1       2.409   7.416  18.864  0.00  0.00    +0.000 C 
ATOM     15  C   UNL     1       2.373   8.440  17.982  0.00  0.00    +0.000 C 
ATOM     16  H   UNL     1       1.286   6.503  21.883  0.00  0.00    +0.000 HD
BRANCH   8  17
ATOM     17  C   UNL     1       4.069   3.937  19.334  0.00  0.00    +0.000 C 
ATOM     18  N   UNL     1       4.742   2.884  19.168  0.00  0.00    +0.000 NA
ENDBRANCH   8  17
ENDBRANCH   1  15
BRANCH   4  19
ATOM     19  C   UNL     1      -1.418  11.367  18.756  0.00  0.00    +0.000 A 
ATOM     20  C   UNL     1      -2.311  11.114  17.699  0.00  0.00    +0.000 A 
ATOM     21  C   UNL     1      -3.667  11.498  17.737  0.00  0.00    +0.000 A 
ATOM     22  C   UNL     1      -4.520  11.248  16.522  0.00  0.00    +0.000 C 
ATOM     23  C   UNL     1      -4.170  12.133  18.886  0.00  0.00    +0.000 A 
ATOM     24  C   UNL     1      -5.588  12.619  19.002  0.00  0.00    +0.000 C 
ATOM     25  C   UNL     1      -3.305  12.352  19.971  0.00  0.00    +0.000 A 
ATOM     26  C   UNL     1      -1.953  11.976  19.897  0.00  0.00    +0.000 A 
BRANCH  26  27
ATOM     27  N   UNL     1      -1.118  12.329  21.029  0.00  0.00    +0.000 N 
ATOM     28  O   UNL     1      -0.777  13.515  21.147  0.00  0.00    +0.000 OA
ATOM     29  O   UNL     1      -0.889  11.429  21.853  0.00  0.00    +0.000 OA
ENDBRANCH  26  27
ENDBRANCH   4  19
TORSDOF 4
ENDMDL
MODEL 7
REMARK VINA RESULT:      -7.2      2.809      3.893
REMARK  Name = 
REMARK  7 active torsions:
REMARK  status: ('A' for Active; 'I' for Inactive)
REMARK    1  A    between atoms: C_1  and  C_2
REMARK    2  A    between atoms: C_3  and  C_4
REMARK    3  A    between atoms: C_12  and  C_13
REMARK    4  A    between atoms: C_16  and  C_17
REMARK    5  A    between atoms: C_19  and  C_20
REMARK    6  A    between atoms: C_21  and  C_22
REMARK    7  A    between atoms: C_24  and  N_25
REMARK                            x       y       z     vdW  Elec       q    Type
REMARK                         _______ _______ _______ _____ _____    ______ ____
ROOT
ATOM      1  C   UNL     1       1.807   8.865  17.960  0.00  0.00    +0.000 A 
ATOM      2  C   UNL     1       0.535   8.863  17.410  0.00  0.00    +0.000 A 
ATOM      3  C   UNL     1      -0.263   9.746  18.170  0.00  0.00    +0.000 A 
ATOM      4  C   UNL     1       0.558  10.276  19.141  0.00  0.00    +0.000 A 
ATOM      5  O   UNL     1       1.800   9.724  19.037  0.00  0.00    +0.000 OA
ENDROOT
BRANCH   1  15
ATOM      6  C   UNL     1       5.461   7.232  16.317  0.00  0.00    +0.000 C 
ATOM      7  C   UNL     1       4.835   6.572  17.528  0.00  0.00    +0.000 C 
ATOM      8  C   UNL     1       5.416   5.512  18.133  0.00  0.00    +0.000 C 
ATOM      9  C   UNL     1       4.806   4.870  19.320  0.00  0.00    +0.000 C 
ATOM     10  O   UNL     1       5.303   3.890  19.863  0.00  0.00    +0.000 OA
ATOM     11  N   UNL     1       3.642   5.415  19.777  0.00  0.00    +0.000 N 
ATOM     12  C   UNL     1       2.925   6.448  19.236  0.00  0.00    +0.000 C 
ATOM     13  O   UNL     1       1.828   6.718  19.707  0.00  0.00    +0.000 OA
ATOM     14  C   UNL     1       3.564   7.132  18.050  0.00  0.00    +0.000 C 
ATOM     15  C   UNL     1       2.984   8.221  17.498  0.00  0.00    +0.000 C 
ATOM     16  H   UNL     1       3.211   4.949  20.563  0.00  0.00    +0.000 HD
BRANCH   8  17
ATOM     17  C   UNL     1       6.725   4.910  17.652  0.00  0.00    +0.000 C 
ATOM     18  N   UNL     1       7.812   4.411  17.253  0.00  0.00    +0.000 NA
ENDBRANCH   8  17
ENDBRANCH   1  15
BRANCH   4  19
ATOM     19  C   UNL     1       0.341  11.283  20.177  0.00  0.00    +0.000 A 
ATOM     20  C   UNL     1      -0.491  10.941  21.259  0.00  0.00    +0.000 A 
ATOM     21  C   UNL     1      -0.879  11.870  22.246  0.00  0.00    +0.000 A 
ATOM     22  C   UNL     1      -1.834  11.422  23.320  0.00  0.00    +0.000 C 
ATOM     23  C   UNL     1      -0.396  13.188  22.178  0.00  0.00    +0.000 A 
ATOM     24  C   UNL     1      -0.790  14.259  23.158  0.00  0.00    +0.000 C 
ATOM     25  C   UNL     1       0.474  13.537  21.132  0.00  0.00    +0.000 A 
ATOM     26  C   UNL     1       0.828  12.595  20.151  0.00  0.00    +0.000 A 
BRANCH  26  27
ATOM     27  N   UNL     1       1.655  13.073  19.060  0.00  0.00    +0.000 N 
ATOM     28  O   UNL     1       1.084  13.464  18.032  0.00  0.00    +0.000 OA
ATOM     29  O   UNL     1       2.875  13.148  19.278  0.00  0.00    +0.000 OA
ENDBRANCH  26  27
ENDBRANCH   4  19
TORSDOF 4
ENDMDL
MODEL 8
REMARK VINA RESULT:      -7.2      2.781      4.026
REMARK  Name = 
REMARK  7 active torsions:
REMARK  status: ('A' for Active; 'I' for Inactive)
REMARK    1  A    between atoms: C_1  and  C_2
REMARK    2  A    between atoms: C_3  and  C_4
REMARK    3  A    between atoms: C_12  and  C_13
REMARK    4  A    between atoms: C_16  and  C_17
REMARK    5  A    between atoms: C_19  and  C_20
REMARK    6  A    between atoms: C_21  and  C_22
REMARK    7  A    between atoms: C_24  and  N_25
REMARK                            x       y       z     vdW  Elec       q    Type
REMARK                         _______ _______ _______ _____ _____    ______ ____
ROOT
ATOM      1  C   UNL     1       1.943   8.989  17.788  0.00  0.00    +0.000 A 
ATOM      2  C   UNL     1       0.572   8.810  17.691  0.00  0.00    +0.000 A 
ATOM      3  C   UNL     1      -0.050   9.900  18.338  0.00  0.00    +0.000 A 
ATOM      4  C   UNL     1       0.963  10.720  18.784  0.00  0.00    +0.000 A 
ATOM      5  O   UNL     1       2.168  10.159  18.481  0.00  0.00    +0.000 OA
ENDROOT
BRANCH   1  15
ATOM      6  C   UNL     1       5.167   6.944  15.754  0.00  0.00    +0.000 C 
ATOM      7  C   UNL     1       4.759   6.487  17.139  0.00  0.00    +0.000 C 
ATOM      8  C   UNL     1       5.409   5.484  17.771  0.00  0.00    +0.000 C 
ATOM      9  C   UNL     1       5.012   5.039  19.126  0.00  0.00    +0.000 C 
ATOM     10  O   UNL     1       5.569   4.112  19.702  0.00  0.00    +0.000 OA
ATOM     11  N   UNL     1       3.973   5.706  19.706  0.00  0.00    +0.000 N 
ATOM     12  C   UNL     1       3.201   6.700  19.166  0.00  0.00    +0.000 C 
ATOM     13  O   UNL     1       2.222   7.093  19.786  0.00  0.00    +0.000 OA
ATOM     14  C   UNL     1       3.628   7.183  17.799  0.00  0.00    +0.000 C 
ATOM     15  C   UNL     1       2.991   8.223  17.216  0.00  0.00    +0.000 C 
ATOM     16  H   UNL     1       3.682   5.374  20.616  0.00  0.00    +0.000 HD
BRANCH   8  17
ATOM     17  C   UNL     1       6.583   4.748  17.149  0.00  0.00    +0.000 C 
ATOM     18  N   UNL     1       7.558   4.138  16.633  0.00  0.00    +0.000 NA
ENDBRANCH   8  17
ENDBRANCH   1  15
BRANCH   4  19
ATOM     19  C   UNL     1       0.961  12.016  19.458  0.00  0.00    +0.000 A 
ATOM     20  C   UNL     1       1.453  13.125  18.746  0.00  0.00    +0.000 A 
ATOM     21  C   UNL     1       1.624  14.394  19.337  0.00  0.00    +0.000 A 
ATOM     22  C   UNL     1       2.230  15.496  18.508  0.00  0.00    +0.000 C 
ATOM     23  C   UNL     1       1.262  14.583  20.681  0.00  0.00    +0.000 A 
ATOM     24  C   UNL     1       1.450  15.886  21.408  0.00  0.00    +0.000 C 
ATOM     25  C   UNL     1       0.724  13.499  21.395  0.00  0.00    +0.000 A 
ATOM     26  C   UNL     1       0.584  12.240  20.788  0.00  0.00    +0.000 A 
BRANCH  26  27
ATOM     27  N   UNL     1       0.108  11.161  21.632  0.00  0.00    +0.000 N 
ATOM     28  O   UNL     1       0.956  10.433  22.169  0.00  0.00    +0.000 OA
ATOM     29  O   UNL     1      -1.115  11.109  21.831  0.00  0.00    +0.000 OA
ENDBRANCH  26  27
ENDBRANCH   4  19
TORSDOF 4
ENDMDL
MODEL 9
REMARK VINA RESULT:      -7.1      2.651      3.708
REMARK  Name = 
REMARK  7 active torsions:
REMARK  status: ('A' for Active; 'I' for Inactive)
REMARK    1  A    between atoms: C_1  and  C_2
REMARK    2  A    between atoms: C_3  and  C_4
REMARK    3  A    between atoms: C_12  and  C_13
REMARK    4  A    between atoms: C_16  and  C_17
REMARK    5  A    between atoms: C_19  and  C_20
REMARK    6  A    between atoms: C_21  and  C_22
REMARK    7  A    between atoms: C_24  and  N_25
REMARK                            x       y       z     vdW  Elec       q    Type
REMARK                         _______ _______ _______ _____ _____    ______ ____
ROOT
ATOM      1  C   UNL     1       1.823   8.709  18.035  0.00  0.00    +0.000 A 
ATOM      2  C   UNL     1       0.682   8.760  17.250  0.00  0.00    +0.000 A 
ATOM      3  C   UNL     1      -0.285   9.516  17.948  0.00  0.00    +0.000 A 
ATOM      4  C   UNL     1       0.309   9.922  19.122  0.00  0.00    +0.000 A 
ATOM      5  O   UNL     1       1.571   9.412  19.193  0.00  0.00    +0.000 OA
ENDROOT
BRANCH   1  15
ATOM      6  C   UNL     1       5.803   7.390  16.967  0.00  0.00    +0.000 C 
ATOM      7  C   UNL     1       4.949   6.516  17.864  0.00  0.00    +0.000 C 
ATOM      8  C   UNL     1       5.421   5.356  18.374  0.00  0.00    +0.000 C 
ATOM      9  C   UNL     1       4.588   4.504  19.253  0.00  0.00    +0.000 C 
ATOM     10  O   UNL     1       4.988   3.435  19.700  0.00  0.00    +0.000 OA
ATOM     11  N   UNL     1       3.334   4.962  19.535  0.00  0.00    +0.000 N 
ATOM     12  C   UNL     1       2.718   6.085  19.052  0.00  0.00    +0.000 C 
ATOM     13  O   UNL     1       1.535   6.269  19.310  0.00  0.00    +0.000 OA
ATOM     14  C   UNL     1       3.577   6.976  18.186  0.00  0.00    +0.000 C 
ATOM     15  C   UNL     1       3.095   8.155  17.734  0.00  0.00    +0.000 C 
ATOM     16  H   UNL     1       2.757   4.358  20.105  0.00  0.00    +0.000 HD
BRANCH   8  17
ATOM     17  C   UNL     1       6.824   4.846  18.091  0.00  0.00    +0.000 C 
ATOM     18  N   UNL     1       7.988   4.423  17.856  0.00  0.00    +0.000 NA
ENDBRANCH   8  17
ENDBRANCH   1  15
BRANCH   4  19
ATOM     19  C   UNL     1      -0.148  10.773  20.219  0.00  0.00    +0.000 A 
ATOM     20  C   UNL     1      -0.475  12.108  19.920  0.00  0.00    +0.000 A 
ATOM     21  C   UNL     1      -0.797  13.055  20.914  0.00  0.00    +0.000 A 
ATOM     22  C   UNL     1      -1.058  14.477  20.494  0.00  0.00    +0.000 C 
ATOM     23  C   UNL     1      -0.830  12.655  22.261  0.00  0.00    +0.000 A 
ATOM     24  C   UNL     1      -1.119  13.603  23.392  0.00  0.00    +0.000 C 
ATOM     25  C   UNL     1      -0.553  11.314  22.575  0.00  0.00    +0.000 A 
ATOM     26  C   UNL     1      -0.215  10.397  21.566  0.00  0.00    +0.000 A 
BRANCH  26  27
ATOM     27  N   UNL     1       0.147   9.060  21.998  0.00  0.00    +0.000 N 
ATOM     28  O   UNL     1       1.270   8.900  22.498  0.00  0.00    +0.000 OA
ATOM     29  O   UNL     1      -0.738   8.194  21.922  0.00  0.00    +0.000 OA
ENDBRANCH  26  27
ENDBRANCH   4  19
TORSDOF 4
ENDMDL
