MODEL 1
REMARK VINA RESULT:      -6.9      0.000      0.000
REMARK  Name = 
REMARK  12 active torsions:
REMARK  status: ('A' for Active; 'I' for Inactive)
REMARK    1  A    between atoms: C_1  and  C_2
REMARK    2  A    between atoms: C_2  and  C_3
REMARK    3  A    between atoms: C_3  and  C_4
REMARK    4  A    between atoms: C_4  and  C_5
REMARK    5  A    between atoms: C_5  and  C_6
REMARK    6  A    between atoms: C_6  and  C_7
REMARK    7  A    between atoms: C_7  and  C_8
REMARK    8  A    between atoms: C_8  and  C_9
REMARK    9  A    between atoms: C_9  and  C_10
REMARK   10  A    between atoms: C_9  and  N_13
REMARK   11  A    between atoms: C_10  and  C_11
REMARK   12  A    between atoms: C_11  and  O_12
REMARK                            x       y       z     vdW  Elec       q    Type
REMARK                         _______ _______ _______ _____ _____    ______ ____
ROOT
ATOM      1  C   UNL     1       6.282   4.661  17.255  0.00  0.00    +0.000 C 
ENDROOT
BRANCH   1   2
ATOM      2  N   UNL     1       4.934   4.720  17.837  0.00  0.00    +0.000 N 
ATOM      3  C   UNL     1       3.895   5.527  17.445  0.00  0.00    +0.000 A 
ATOM      4  N   UNL     1       2.812   5.333  18.165  0.00  0.00    +0.000 NA
ATOM      5  C   UNL     1       3.145   4.345  19.051  0.00  0.00    +0.000 A 
ATOM      6  C   UNL     1       2.478   3.686  20.074  0.00  0.00    +0.000 A 
ATOM      7 CL   UNL     1       0.871   4.109  20.407  0.00  0.00    +0.000 Cl
ATOM      8  N   UNL     1       3.063   2.733  20.818  0.00  0.00    +0.000 NA
ATOM      9  C   UNL     1       4.337   2.438  20.515  0.00  0.00    +0.000 A 
ATOM     10  F   UNL     1       4.923   1.498  21.272  0.00  0.00    +0.000 F 
ATOM     11  N   UNL     1       5.109   2.987  19.550  0.00  0.00    +0.000 NA
ATOM     12  C   UNL     1       4.458   3.935  18.859  0.00  0.00    +0.000 A 
ENDBRANCH   1   2
BRANCH   1  13
ATOM     13  C   UNL     1       6.271   4.119  15.801  0.00  0.00    +0.000 C 
BRANCH  13  14
ATOM     14  C   UNL     1       6.656   5.148  14.743  0.00  0.00    +0.000 C 
BRANCH  14  15
ATOM     15  C   UNL     1       7.255   4.479  13.504  0.00  0.00    +0.000 C 
BRANCH  15  16
ATOM     16  C   UNL     1       6.146   4.166  12.504  0.00  0.00    +0.000 C 
BRANCH  16  17
ATOM     17  C   UNL     1       6.412   2.871  11.743  0.00  0.00    +0.000 C 
BRANCH  17  18
ATOM     18  C   UNL     1       5.099   2.270  11.241  0.00  0.00    +0.000 C 
BRANCH  18  20
ATOM     19  C   UNL     1       3.348   3.609  10.035  0.00  0.00    +0.000 C 
ATOM     20  C   UNL     1       3.949   3.261  11.386  0.00  0.00    +0.000 C 
ENDBRANCH  18  20
ENDBRANCH  17  18
ENDBRANCH  16  17
ENDBRANCH  15  16
ENDBRANCH  14  15
ENDBRANCH  13  14
ENDBRANCH   1  13
BRANCH   1  21
ATOM     21  C   UNL     1       7.053   5.995  17.400  0.00  0.00    +0.000 C 
BRANCH  21  22
ATOM     22  C   UNL     1       7.707   6.207  18.759  0.00  0.00    +0.000 C 
BRANCH  22  23
ATOM     23  O   UNL     1       8.107   4.950  19.291  0.00  0.00    +0.000 OA
ATOM     24  H   UNL     1       7.301   4.460  19.534  0.00  0.00    +0.000 HD
ENDBRANCH  22  23
ENDBRANCH  21  22
ENDBRANCH   1  21
TORSDOF 11
ENDMDL
MODEL 2
REMARK VINA RESULT:      -6.8      1.247      1.374
REMARK  Name = 
REMARK  12 active torsions:
REMARK  status: ('A' for Active; 'I' for Inactive)
REMARK    1  A    between atoms: C_1  and  C_2
REMARK    2  A    between atoms: C_2  and  C_3
REMARK    3  A    between atoms: C_3  and  C_4
REMARK    4  A    between atoms: C_4  and  C_5
REMARK    5  A    between atoms: C_5  and  C_6
REMARK    6  A    between atoms: C_6  and  C_7
REMARK    7  A    between atoms: C_7  and  C_8
REMARK    8  A    between atoms: C_8  and  C_9
REMARK    9  A    between atoms: C_9  and  C_10
REMARK   10  A    between atoms: C_9  and  N_13
REMARK   11  A    between atoms: C_10  and  C_11
REMARK   12  A    between atoms: C_11  and  O_12
REMARK                            x       y       z     vdW  Elec       q    Type
REMARK                         _______ _______ _______ _____ _____    ______ ____
ROOT
ATOM      1  C   UNL     1       6.606   5.620  17.872  0.00  0.00    +0.000 C 
ENDROOT
BRANCH   1   2
ATOM      2  N   UNL     1       5.201   5.486  18.282  0.00  0.00    +0.000 N 
ATOM      3  C   UNL     1       4.174   6.360  18.024  0.00  0.00    +0.000 A 
ATOM      4  N   UNL     1       3.029   5.946  18.521  0.00  0.00    +0.000 NA
ATOM      5  C   UNL     1       3.310   4.743  19.111  0.00  0.00    +0.000 A 
ATOM      6  C   UNL     1       2.567   3.801  19.808  0.00  0.00    +0.000 A 
ATOM      7 CL   UNL     1       0.914   4.086  20.057  0.00  0.00    +0.000 Cl
ATOM      8  N   UNL     1       3.111   2.677  20.303  0.00  0.00    +0.000 NA
ATOM      9  C   UNL     1       4.423   2.502  20.079  0.00  0.00    +0.000 A 
ATOM     10  F   UNL     1       4.967   1.387  20.590  0.00  0.00    +0.000 F 
ATOM     11  N   UNL     1       5.269   3.323  19.417  0.00  0.00    +0.000 NA
ATOM     12  C   UNL     1       4.654   4.426  18.964  0.00  0.00    +0.000 A 
ENDBRANCH   1   2
BRANCH   1  13
ATOM     13  C   UNL     1       7.016   4.555  16.820  0.00  0.00    +0.000 C 
BRANCH  13  14
ATOM     14  C   UNL     1       7.086   5.080  15.390  0.00  0.00    +0.000 C 
BRANCH  14  15
ATOM     15  C   UNL     1       5.689   5.279  14.798  0.00  0.00    +0.000 C 
BRANCH  15  16
ATOM     16  C   UNL     1       5.256   4.013  14.065  0.00  0.00    +0.000 C 
BRANCH  16  17
ATOM     17  C   UNL     1       6.303   3.549  13.058  0.00  0.00    +0.000 C 
BRANCH  17  18
ATOM     18  C   UNL     1       5.626   2.962  11.820  0.00  0.00    +0.000 C 
BRANCH  18  20
ATOM     19  C   UNL     1       3.378   2.879  10.698  0.00  0.00    +0.000 C 
ATOM     20  C   UNL     1       4.369   3.747  11.456  0.00  0.00    +0.000 C 
ENDBRANCH  18  20
ENDBRANCH  17  18
ENDBRANCH  16  17
ENDBRANCH  15  16
ENDBRANCH  14  15
ENDBRANCH  13  14
ENDBRANCH   1  13
BRANCH   1  21
ATOM     21  C   UNL     1       6.968   7.063  17.449  0.00  0.00    +0.000 C 
BRANCH  21  22
ATOM     22  C   UNL     1       8.141   7.672  18.204  0.00  0.00    +0.000 C 
BRANCH  22  23
ATOM     23  O   UNL     1       8.207   9.066  17.930  0.00  0.00    +0.000 OA
ATOM     24  H   UNL     1       7.506   9.275  17.287  0.00  0.00    +0.000 HD
ENDBRANCH  22  23
ENDBRANCH  21  22
ENDBRANCH   1  21
TORSDOF 11
ENDMDL
MODEL 3
REMARK VINA RESULT:      -6.8      1.367      1.475
REMARK  Name = 
REMARK  12 active torsions:
REMARK  status: ('A' for Active; 'I' for Inactive)
REMARK    1  A    between atoms: C_1  and  C_2
REMARK    2  A    between atoms: C_2  and  C_3
REMARK    3  A    between atoms: C_3  and  C_4
REMARK    4  A    between atoms: C_4  and  C_5
REMARK    5  A    between atoms: C_5  and  C_6
REMARK    6  A    between atoms: C_6  and  C_7
REMARK    7  A    between atoms: C_7  and  C_8
REMARK    8  A    between atoms: C_8  and  C_9
REMARK    9  A    between atoms: C_9  and  C_10
REMARK   10  A    between atoms: C_9  and  N_13
REMARK   11  A    between atoms: C_10  and  C_11
REMARK   12  A    between atoms: C_11  and  O_12
REMARK                            x       y       z     vdW  Elec       q    Type
REMARK                         _______ _______ _______ _____ _____    ______ ____
ROOT
ATOM      1  C   UNL     1       6.076   5.446  17.385  0.00  0.00    +0.000 C 
ENDROOT
BRANCH   1   2
ATOM      2  N   UNL     1       4.816   5.296  18.125  0.00  0.00    +0.000 N 
ATOM      3  C   UNL     1       4.052   6.296  18.675  0.00  0.00    +0.000 A 
ATOM      4  N   UNL     1       2.973   5.832  19.266  0.00  0.00    +0.000 NA
ATOM      5  C   UNL     1       3.019   4.477  19.080  0.00  0.00    +0.000 A 
ATOM      6  C   UNL     1       2.207   3.414  19.449  0.00  0.00    +0.000 A 
ATOM      7 CL   UNL     1       0.800   3.731  20.341  0.00  0.00    +0.000 Cl
ATOM      8  N   UNL     1       2.500   2.141  19.136  0.00  0.00    +0.000 NA
ATOM      9  C   UNL     1       3.626   1.946  18.431  0.00  0.00    +0.000 A 
ATOM     10  F   UNL     1       3.925   0.672  18.135  0.00  0.00    +0.000 F 
ATOM     11  N   UNL     1       4.507   2.876  17.998  0.00  0.00    +0.000 NA
ATOM     12  C   UNL     1       4.150   4.118  18.360  0.00  0.00    +0.000 A 
ENDBRANCH   1   2
BRANCH   1  13
ATOM     13  C   UNL     1       5.893   6.245  16.067  0.00  0.00    +0.000 C 
BRANCH  13  14
ATOM     14  C   UNL     1       5.116   5.502  14.985  0.00  0.00    +0.000 C 
BRANCH  14  15
ATOM     15  C   UNL     1       5.703   4.112  14.728  0.00  0.00    +0.000 C 
BRANCH  15  16
ATOM     16  C   UNL     1       6.563   4.143  13.469  0.00  0.00    +0.000 C 
BRANCH  16  17
ATOM     17  C   UNL     1       5.975   3.284  12.354  0.00  0.00    +0.000 C 
BRANCH  17  18
ATOM     18  C   UNL     1       4.855   4.037  11.637  0.00  0.00    +0.000 C 
BRANCH  18  20
ATOM     19  C   UNL     1       3.067   3.733   9.897  0.00  0.00    +0.000 C 
ATOM     20  C   UNL     1       3.851   3.070  11.017  0.00  0.00    +0.000 C 
ENDBRANCH  18  20
ENDBRANCH  17  18
ENDBRANCH  16  17
ENDBRANCH  15  16
ENDBRANCH  14  15
ENDBRANCH  13  14
ENDBRANCH   1  13
BRANCH   1  21
ATOM     21  C   UNL     1       7.226   5.988  18.268  0.00  0.00    +0.000 C 
BRANCH  21  22
ATOM     22  C   UNL     1       7.775   4.990  19.279  0.00  0.00    +0.000 C 
BRANCH  22  23
ATOM     23  O   UNL     1       8.095   5.670  20.487  0.00  0.00    +0.000 OA
ATOM     24  H   UNL     1       8.831   5.192  20.909  0.00  0.00    +0.000 HD
ENDBRANCH  22  23
ENDBRANCH  21  22
ENDBRANCH   1  21
TORSDOF 11
ENDMDL
MODEL 4
REMARK VINA RESULT:      -6.7      3.977      6.788
REMARK  Name = 
REMARK  12 active torsions:
REMARK  status: ('A' for Active; 'I' for Inactive)
REMARK    1  A    between atoms: C_1  and  C_2
REMARK    2  A    between atoms: C_2  and  C_3
REMARK    3  A    between atoms: C_3  and  C_4
REMARK    4  A    between atoms: C_4  and  C_5
REMARK    5  A    between atoms: C_5  and  C_6
REMARK    6  A    between atoms: C_6  and  C_7
REMARK    7  A    between atoms: C_7  and  C_8
REMARK    8  A    between atoms: C_8  and  C_9
REMARK    9  A    between atoms: C_9  and  C_10
REMARK   10  A    between atoms: C_9  and  N_13
REMARK   11  A    between atoms: C_10  and  C_11
REMARK   12  A    between atoms: C_11  and  O_12
REMARK                            x       y       z     vdW  Elec       q    Type
REMARK                         _______ _______ _______ _____ _____    ______ ____
ROOT
ATOM      1  C   UNL     1       6.891   5.762  17.092  0.00  0.00    +0.000 C 
ENDROOT
BRANCH   1   2
ATOM      2  N   UNL     1       6.477   4.853  16.015  0.00  0.00    +0.000 N 
ATOM      3  C   UNL     1       5.566   3.829  16.098  0.00  0.00    +0.000 A 
ATOM      4  N   UNL     1       5.409   3.206  14.950  0.00  0.00    +0.000 NA
ATOM      5  C   UNL     1       6.233   3.859  14.074  0.00  0.00    +0.000 A 
ATOM      6  C   UNL     1       6.542   3.710  12.730  0.00  0.00    +0.000 A 
ATOM      7 CL   UNL     1       5.795   2.466  11.853  0.00  0.00    +0.000 Cl
ATOM      8  N   UNL     1       7.420   4.507  12.100  0.00  0.00    +0.000 NA
ATOM      9  C   UNL     1       7.984   5.475  12.841  0.00  0.00    +0.000 A 
ATOM     10  F   UNL     1       8.874   6.258  12.213  0.00  0.00    +0.000 F 
ATOM     11  N   UNL     1       7.779   5.744  14.150  0.00  0.00    +0.000 NA
ATOM     12  C   UNL     1       6.899   4.899  14.708  0.00  0.00    +0.000 A 
ENDBRANCH   1   2
BRANCH   1  13
ATOM     13  C   UNL     1       5.868   6.906  17.323  0.00  0.00    +0.000 C 
BRANCH  13  14
ATOM     14  C   UNL     1       4.410   6.483  17.180  0.00  0.00    +0.000 C 
BRANCH  14  15
ATOM     15  C   UNL     1       3.819   6.048  18.523  0.00  0.00    +0.000 C 
BRANCH  15  16
ATOM     16  C   UNL     1       2.362   5.637  18.334  0.00  0.00    +0.000 C 
BRANCH  16  17
ATOM     17  C   UNL     1       2.236   4.245  17.723  0.00  0.00    +0.000 C 
BRANCH  17  18
ATOM     18  C   UNL     1       1.323   3.369  18.580  0.00  0.00    +0.000 C 
BRANCH  18  20
ATOM     19  C   UNL     1       1.337   3.022  21.069  0.00  0.00    +0.000 C 
ATOM     20  C   UNL     1       1.069   4.006  19.942  0.00  0.00    +0.000 C 
ENDBRANCH  18  20
ENDBRANCH  17  18
ENDBRANCH  16  17
ENDBRANCH  15  16
ENDBRANCH  14  15
ENDBRANCH  13  14
ENDBRANCH   1  13
BRANCH   1  21
ATOM     21  C   UNL     1       7.268   5.014  18.393  0.00  0.00    +0.000 C 
BRANCH  21  22
ATOM     22  C   UNL     1       8.167   5.797  19.340  0.00  0.00    +0.000 C 
BRANCH  22  23
ATOM     23  O   UNL     1       8.059   5.255  20.650  0.00  0.00    +0.000 OA
ATOM     24  H   UNL     1       8.961   5.125  20.993  0.00  0.00    +0.000 HD
ENDBRANCH  22  23
ENDBRANCH  21  22
ENDBRANCH   1  21
TORSDOF 11
ENDMDL
MODEL 5
REMARK VINA RESULT:      -6.7      3.067      6.148
REMARK  Name = 
REMARK  12 active torsions:
REMARK  status: ('A' for Active; 'I' for Inactive)
REMARK    1  A    between atoms: C_1  and  C_2
REMARK    2  A    between atoms: C_2  and  C_3
REMARK    3  A    between atoms: C_3  and  C_4
REMARK    4  A    between atoms: C_4  and  C_5
REMARK    5  A    between atoms: C_5  and  C_6
REMARK    6  A    between atoms: C_6  and  C_7
REMARK    7  A    between atoms: C_7  and  C_8
REMARK    8  A    between atoms: C_8  and  C_9
REMARK    9  A    between atoms: C_9  and  C_10
REMARK   10  A    between atoms: C_9  and  N_13
REMARK   11  A    between atoms: C_10  and  C_11
REMARK   12  A    between atoms: C_11  and  O_12
REMARK                            x       y       z     vdW  Elec       q    Type
REMARK                         _______ _______ _______ _____ _____    ______ ____
ROOT
ATOM      1  C   UNL     1       5.598   5.534  16.933  0.00  0.00    +0.000 C 
ENDROOT
BRANCH   1   2
ATOM      2  N   UNL     1       4.551   4.686  17.518  0.00  0.00    +0.000 N 
ATOM      3  C   UNL     1       4.335   3.350  17.280  0.00  0.00    +0.000 A 
ATOM      4  N   UNL     1       3.320   2.878  17.969  0.00  0.00    +0.000 NA
ATOM      5  C   UNL     1       2.863   3.938  18.705  0.00  0.00    +0.000 A 
ATOM      6  C   UNL     1       1.834   4.122  19.617  0.00  0.00    +0.000 A 
ATOM      7 CL   UNL     1       0.833   2.806  19.996  0.00  0.00    +0.000 Cl
ATOM      8  N   UNL     1       1.592   5.306  20.201  0.00  0.00    +0.000 NA
ATOM      9  C   UNL     1       2.412   6.315  19.865  0.00  0.00    +0.000 A 
ATOM     10  F   UNL     1       2.157   7.501  20.437  0.00  0.00    +0.000 F 
ATOM     11  N   UNL     1       3.453   6.286  19.002  0.00  0.00    +0.000 NA
ATOM     12  C   UNL     1       3.622   5.074  18.453  0.00  0.00    +0.000 A 
ENDBRANCH   1   2
BRANCH   1  13
ATOM     13  C   UNL     1       6.975   5.327  17.619  0.00  0.00    +0.000 C 
BRANCH  13  14
ATOM     14  C   UNL     1       7.535   6.574  18.295  0.00  0.00    +0.000 C 
BRANCH  14  15
ATOM     15  C   UNL     1       7.947   7.630  17.266  0.00  0.00    +0.000 C 
BRANCH  15  16
ATOM     16  C   UNL     1       7.664   9.024  17.820  0.00  0.00    +0.000 C 
BRANCH  16  17
ATOM     17  C   UNL     1       8.783   9.514  18.733  0.00  0.00    +0.000 C 
BRANCH  17  18
ATOM     18  C   UNL     1       9.486  10.720  18.110  0.00  0.00    +0.000 C 
BRANCH  18  20
ATOM     19  C   UNL     1       9.720  11.178  20.570  0.00  0.00    +0.000 C 
ATOM     20  C   UNL     1      10.185  11.559  19.175  0.00  0.00    +0.000 C 
ENDBRANCH  18  20
ENDBRANCH  17  18
ENDBRANCH  16  17
ENDBRANCH  15  16
ENDBRANCH  14  15
ENDBRANCH  13  14
ENDBRANCH   1  13
BRANCH   1  21
ATOM     21  C   UNL     1       5.664   5.422  15.392  0.00  0.00    +0.000 C 
BRANCH  21  22
ATOM     22  C   UNL     1       6.877   4.670  14.860  0.00  0.00    +0.000 C 
BRANCH  22  23
ATOM     23  O   UNL     1       7.725   5.574  14.162  0.00  0.00    +0.000 OA
ATOM     24  H   UNL     1       8.498   5.072  13.847  0.00  0.00    +0.000 HD
ENDBRANCH  22  23
ENDBRANCH  21  22
ENDBRANCH   1  21
TORSDOF 11
ENDMDL
MODEL 6
REMARK VINA RESULT:      -6.7      2.888      5.848
REMARK  Name = 
REMARK  12 active torsions:
REMARK  status: ('A' for Active; 'I' for Inactive)
REMARK    1  A    between atoms: C_1  and  C_2
REMARK    2  A    between atoms: C_2  and  C_3
REMARK    3  A    between atoms: C_3  and  C_4
REMARK    4  A    between atoms: C_4  and  C_5
REMARK    5  A    between atoms: C_5  and  C_6
REMARK    6  A    between atoms: C_6  and  C_7
REMARK    7  A    between atoms: C_7  and  C_8
REMARK    8  A    between atoms: C_8  and  C_9
REMARK    9  A    between atoms: C_9  and  C_10
REMARK   10  A    between atoms: C_9  and  N_13
REMARK   11  A    between atoms: C_10  and  C_11
REMARK   12  A    between atoms: C_11  and  O_12
REMARK                            x       y       z     vdW  Elec       q    Type
REMARK                         _______ _______ _______ _____ _____    ______ ____
ROOT
ATOM      1  C   UNL     1       5.879   5.496  16.451  0.00  0.00    +0.000 C 
ENDROOT
BRANCH   1   2
ATOM      2  N   UNL     1       4.753   5.646  17.383  0.00  0.00    +0.000 N 
ATOM      3  C   UNL     1       3.948   6.747  17.542  0.00  0.00    +0.000 A 
ATOM      4  N   UNL     1       3.020   6.560  18.455  0.00  0.00    +0.000 NA
ATOM      5  C   UNL     1       3.209   5.279  18.898  0.00  0.00    +0.000 A 
ATOM      6  C   UNL     1       2.589   4.472  19.841  0.00  0.00    +0.000 A 
ATOM      7 CL   UNL     1       1.281   5.098  20.719  0.00  0.00    +0.000 Cl
ATOM      8  N   UNL     1       2.994   3.217  20.093  0.00  0.00    +0.000 NA
ATOM      9  C   UNL     1       4.035   2.771  19.371  0.00  0.00    +0.000 A 
ATOM     10  F   UNL     1       4.449   1.523  19.638  0.00  0.00    +0.000 F 
ATOM     11  N   UNL     1       4.732   3.435  18.421  0.00  0.00    +0.000 NA
ATOM     12  C   UNL     1       4.274   4.682  18.236  0.00  0.00    +0.000 A 
ENDBRANCH   1   2
BRANCH   1  13
ATOM     13  C   UNL     1       7.180   5.046  17.167  0.00  0.00    +0.000 C 
BRANCH  13  14
ATOM     14  C   UNL     1       7.709   6.042  18.193  0.00  0.00    +0.000 C 
BRANCH  14  15
ATOM     15  C   UNL     1       7.665   7.475  17.657  0.00  0.00    +0.000 C 
BRANCH  15  16
ATOM     16  C   UNL     1       8.478   8.390  18.568  0.00  0.00    +0.000 C 
BRANCH  16  17
ATOM     17  C   UNL     1       8.467   9.836  18.084  0.00  0.00    +0.000 C 
BRANCH  17  18
ATOM     18  C   UNL     1       9.556  10.642  18.790  0.00  0.00    +0.000 C 
BRANCH  18  20
ATOM     19  C   UNL     1      11.530  11.956  17.958  0.00  0.00    +0.000 C 
ATOM     20  C   UNL     1      10.017  11.815  17.932  0.00  0.00    +0.000 C 
ENDBRANCH  18  20
ENDBRANCH  17  18
ENDBRANCH  16  17
ENDBRANCH  15  16
ENDBRANCH  14  15
ENDBRANCH  13  14
ENDBRANCH   1  13
BRANCH   1  21
ATOM     21  C   UNL     1       5.526   4.620  15.226  0.00  0.00    +0.000 C 
BRANCH  21  22
ATOM     22  C   UNL     1       6.697   4.321  14.299  0.00  0.00    +0.000 C 
BRANCH  22  23
ATOM     23  O   UNL     1       6.314   3.322  13.362  0.00  0.00    +0.000 OA
ATOM     24  H   UNL     1       5.546   2.849  13.730  0.00  0.00    +0.000 HD
ENDBRANCH  22  23
ENDBRANCH  21  22
ENDBRANCH   1  21
TORSDOF 11
ENDMDL
MODEL 7
REMARK VINA RESULT:      -6.7      2.051      2.792
REMARK  Name = 
REMARK  12 active torsions:
REMARK  status: ('A' for Active; 'I' for Inactive)
REMARK    1  A    between atoms: C_1  and  C_2
REMARK    2  A    between atoms: C_2  and  C_3
REMARK    3  A    between atoms: C_3  and  C_4
REMARK    4  A    between atoms: C_4  and  C_5
REMARK    5  A    between atoms: C_5  and  C_6
REMARK    6  A    between atoms: C_6  and  C_7
REMARK    7  A    between atoms: C_7  and  C_8
REMARK    8  A    between atoms: C_8  and  C_9
REMARK    9  A    between atoms: C_9  and  C_10
REMARK   10  A    between atoms: C_9  and  N_13
REMARK   11  A    between atoms: C_10  and  C_11
REMARK   12  A    between atoms: C_11  and  O_12
REMARK                            x       y       z     vdW  Elec       q    Type
REMARK                         _______ _______ _______ _____ _____    ______ ____
ROOT
ATOM      1  C   UNL     1       6.177   4.193  16.981  0.00  0.00    +0.000 C 
ENDROOT
BRANCH   1   2
ATOM      2  N   UNL     1       5.085   4.185  17.964  0.00  0.00    +0.000 N 
ATOM      3  C   UNL     1       4.798   3.202  18.878  0.00  0.00    +0.000 A 
ATOM      4  N   UNL     1       3.757   3.502  19.625  0.00  0.00    +0.000 NA
ATOM      5  C   UNL     1       3.358   4.740  19.199  0.00  0.00    +0.000 A 
ATOM      6  C   UNL     1       2.339   5.612  19.555  0.00  0.00    +0.000 A 
ATOM      7 CL   UNL     1       1.269   5.158  20.789  0.00  0.00    +0.000 Cl
ATOM      8  N   UNL     1       2.161   6.797  18.949  0.00  0.00    +0.000 NA
ATOM      9  C   UNL     1       3.035   7.106  17.977  0.00  0.00    +0.000 A 
ATOM     10  F   UNL     1       2.843   8.283  17.362  0.00  0.00    +0.000 F 
ATOM     11  N   UNL     1       4.073   6.366  17.528  0.00  0.00    +0.000 NA
ATOM     12  C   UNL     1       4.177   5.195  18.174  0.00  0.00    +0.000 A 
ENDBRANCH   1   2
BRANCH   1  13
ATOM     13  C   UNL     1       5.693   4.615  15.568  0.00  0.00    +0.000 C 
BRANCH  13  14
ATOM     14  C   UNL     1       6.578   4.121  14.428  0.00  0.00    +0.000 C 
BRANCH  14  15
ATOM     15  C   UNL     1       5.859   4.218  13.080  0.00  0.00    +0.000 C 
BRANCH  15  16
ATOM     16  C   UNL     1       6.341   3.101  12.160  0.00  0.00    +0.000 C 
BRANCH  16  17
ATOM     17  C   UNL     1       5.188   2.445  11.406  0.00  0.00    +0.000 C 
BRANCH  17  18
ATOM     18  C   UNL     1       3.963   3.358  11.408  0.00  0.00    +0.000 C 
BRANCH  18  20
ATOM     19  C   UNL     1       2.829   4.399   9.422  0.00  0.00    +0.000 C 
ATOM     20  C   UNL     1       3.090   3.110  10.182  0.00  0.00    +0.000 C 
ENDBRANCH  18  20
ENDBRANCH  17  18
ENDBRANCH  16  17
ENDBRANCH  15  16
ENDBRANCH  14  15
ENDBRANCH  13  14
ENDBRANCH   1  13
BRANCH   1  21
ATOM     21  C   UNL     1       7.409   4.993  17.465  0.00  0.00    +0.000 C 
BRANCH  21  22
ATOM     22  C   UNL     1       7.362   6.483  17.155  0.00  0.00    +0.000 C 
BRANCH  22  23
ATOM     23  O   UNL     1       7.932   7.209  18.238  0.00  0.00    +0.000 OA
ATOM     24  H   UNL     1       7.219   7.724  18.656  0.00  0.00    +0.000 HD
ENDBRANCH  22  23
ENDBRANCH  21  22
ENDBRANCH   1  21
TORSDOF 11
ENDMDL
MODEL 8
REMARK VINA RESULT:      -6.6      1.363      1.745
REMARK  Name = 
REMARK  12 active torsions:
REMARK  status: ('A' for Active; 'I' for Inactive)
REMARK    1  A    between atoms: C_1  and  C_2
REMARK    2  A    between atoms: C_2  and  C_3
REMARK    3  A    between atoms: C_3  and  C_4
REMARK    4  A    between atoms: C_4  and  C_5
REMARK    5  A    between atoms: C_5  and  C_6
REMARK    6  A    between atoms: C_6  and  C_7
REMARK    7  A    between atoms: C_7  and  C_8
REMARK    8  A    between atoms: C_8  and  C_9
REMARK    9  A    between atoms: C_9  and  C_10
REMARK   10  A    between atoms: C_9  and  N_13
REMARK   11  A    between atoms: C_10  and  C_11
REMARK   12  A    between atoms: C_11  and  O_12
REMARK                            x       y       z     vdW  Elec       q    Type
REMARK                         _______ _______ _______ _____ _____    ______ ____
ROOT
ATOM      1  C   UNL     1       6.141   5.461  17.574  0.00  0.00    +0.000 C 
ENDROOT
BRANCH   1   2
ATOM      2  N   UNL     1       4.761   5.223  18.016  0.00  0.00    +0.000 N 
ATOM      3  C   UNL     1       3.637   5.917  17.640  0.00  0.00    +0.000 A 
ATOM      4  N   UNL     1       2.547   5.449  18.209  0.00  0.00    +0.000 NA
ATOM      5  C   UNL     1       2.968   4.392  18.971  0.00  0.00    +0.000 A 
ATOM      6  C   UNL     1       2.340   3.485  19.812  0.00  0.00    +0.000 A 
ATOM      7 CL   UNL     1       0.663   3.603  20.036  0.00  0.00    +0.000 Cl
ATOM      8  N   UNL     1       3.013   2.524  20.466  0.00  0.00    +0.000 NA
ATOM      9  C   UNL     1       4.338   2.477  20.256  0.00  0.00    +0.000 A 
ATOM     10  F   UNL     1       5.009   1.527  20.924  0.00  0.00    +0.000 F 
ATOM     11  N   UNL     1       5.083   3.283  19.466  0.00  0.00    +0.000 NA
ATOM     12  C   UNL     1       4.342   4.221  18.858  0.00  0.00    +0.000 A 
ENDBRANCH   1   2
BRANCH   1  13
ATOM     13  C   UNL     1       6.565   4.507  16.426  0.00  0.00    +0.000 C 
BRANCH  13  14
ATOM     14  C   UNL     1       5.461   4.210  15.416  0.00  0.00    +0.000 C 
BRANCH  14  15
ATOM     15  C   UNL     1       6.036   3.907  14.031  0.00  0.00    +0.000 C 
BRANCH  15  16
ATOM     16  C   UNL     1       4.899   3.759  13.024  0.00  0.00    +0.000 C 
BRANCH  16  17
ATOM     17  C   UNL     1       5.359   3.081  11.738  0.00  0.00    +0.000 C 
BRANCH  17  18
ATOM     18  C   UNL     1       6.868   2.842  11.773  0.00  0.00    +0.000 C 
BRANCH  18  20
ATOM     19  C   UNL     1       6.161   0.521  11.119  0.00  0.00    +0.000 C 
ATOM     20  C   UNL     1       7.244   1.580  11.003  0.00  0.00    +0.000 C 
ENDBRANCH  18  20
ENDBRANCH  17  18
ENDBRANCH  16  17
ENDBRANCH  15  16
ENDBRANCH  14  15
ENDBRANCH  13  14
ENDBRANCH   1  13
BRANCH   1  21
ATOM     21  C   UNL     1       6.418   6.951  17.258  0.00  0.00    +0.000 C 
BRANCH  21  22
ATOM     22  C   UNL     1       7.797   7.444  17.675  0.00  0.00    +0.000 C 
BRANCH  22  23
ATOM     23  O   UNL     1       7.886   8.845  17.449  0.00  0.00    +0.000 OA
ATOM     24  H   UNL     1       8.076   9.271  18.303  0.00  0.00    +0.000 HD
ENDBRANCH  22  23
ENDBRANCH  21  22
ENDBRANCH   1  21
TORSDOF 11
ENDMDL
MODEL 9
REMARK VINA RESULT:      -6.6      2.023      2.662
REMARK  Name = 
REMARK  12 active torsions:
REMARK  status: ('A' for Active; 'I' for Inactive)
REMARK    1  A    between atoms: C_1  and  C_2
REMARK    2  A    between atoms: C_2  and  C_3
REMARK    3  A    between atoms: C_3  and  C_4
REMARK    4  A    between atoms: C_4  and  C_5
REMARK    5  A    between atoms: C_5  and  C_6
REMARK    6  A    between atoms: C_6  and  C_7
REMARK    7  A    between atoms: C_7  and  C_8
REMARK    8  A    between atoms: C_8  and  C_9
REMARK    9  A    between atoms: C_9  and  C_10
REMARK   10  A    between atoms: C_9  and  N_13
REMARK   11  A    between atoms: C_10  and  C_11
REMARK   12  A    between atoms: C_11  and  O_12
REMARK                            x       y       z     vdW  Elec       q    Type
REMARK                         _______ _______ _______ _____ _____    ______ ____
ROOT
ATOM      1  C   UNL     1       5.932   4.783  16.737  0.00  0.00    +0.000 C 
ENDROOT
BRANCH   1   2
ATOM      2  N   UNL     1       4.777   4.320  17.517  0.00  0.00    +0.000 N 
ATOM      3  C   UNL     1       4.441   3.022  17.812  0.00  0.00    +0.000 A 
ATOM      4  N   UNL     1       3.349   2.941  18.540  0.00  0.00    +0.000 NA
ATOM      5  C   UNL     1       2.964   4.238  18.750  0.00  0.00    +0.000 A 
ATOM      6  C   UNL     1       1.912   4.846  19.419  0.00  0.00    +0.000 A 
ATOM      7 CL   UNL     1       0.767   3.871  20.201  0.00  0.00    +0.000 Cl
ATOM      8  N   UNL     1       1.760   6.180  19.461  0.00  0.00    +0.000 NA
ATOM      9  C   UNL     1       2.693   6.906  18.824  0.00  0.00    +0.000 A 
ATOM     10  F   UNL     1       2.529   8.237  18.852  0.00  0.00    +0.000 F 
ATOM     11  N   UNL     1       3.769   6.457  18.139  0.00  0.00    +0.000 NA
ATOM     12  C   UNL     1       3.844   5.118  18.135  0.00  0.00    +0.000 A 
ENDBRANCH   1   2
BRANCH   1  13
ATOM     13  C   UNL     1       5.525   5.298  15.330  0.00  0.00    +0.000 C 
BRANCH  13  14
ATOM     14  C   UNL     1       6.132   4.512  14.173  0.00  0.00    +0.000 C 
BRANCH  14  15
ATOM     15  C   UNL     1       5.050   3.972  13.235  0.00  0.00    +0.000 C 
BRANCH  15  16
ATOM     16  C   UNL     1       5.694   3.124  12.143  0.00  0.00    +0.000 C 
BRANCH  16  17
ATOM     17  C   UNL     1       4.697   2.741  11.054  0.00  0.00    +0.000 C 
BRANCH  17  18
ATOM     18  C   UNL     1       3.696   3.873  10.828  0.00  0.00    +0.000 C 
BRANCH  18  20
ATOM     19  C   UNL     1       2.111   4.937   9.193  0.00  0.00    +0.000 C 
ATOM     20  C   UNL     1       3.059   3.776   9.445  0.00  0.00    +0.000 C 
ENDBRANCH  18  20
ENDBRANCH  17  18
ENDBRANCH  16  17
ENDBRANCH  15  16
ENDBRANCH  14  15
ENDBRANCH  13  14
ENDBRANCH   1  13
BRANCH   1  21
ATOM     21  C   UNL     1       6.816   5.785  17.517  0.00  0.00    +0.000 C 
BRANCH  21  22
ATOM     22  C   UNL     1       7.792   5.145  18.495  0.00  0.00    +0.000 C 
BRANCH  22  23
ATOM     23  O   UNL     1       8.407   4.020  17.880  0.00  0.00    +0.000 OA
ATOM     24  H   UNL     1       7.996   3.899  17.005  0.00  0.00    +0.000 HD
ENDBRANCH  22  23
ENDBRANCH  21  22
ENDBRANCH   1  21
TORSDOF 11
ENDMDL
