MODEL 1
REMARK VINA RESULT:      -5.6      0.000      0.000
REMARK  Name = 
REMARK  4 active torsions:
REMARK  status: ('A' for Active; 'I' for Inactive)
REMARK    1  A    between atoms: C_1  and  C_2
REMARK    2  A    between atoms: C_5  and  C_6
REMARK    3  A    between atoms: C_7  and  C_8
REMARK    4  A    between atoms: C_14  and  C_16
REMARK                            x       y       z     vdW  Elec       q    Type
REMARK                         _______ _______ _______ _____ _____    ______ ____
ROOT
ATOM      1  C   UNL     1      -4.292  15.810  23.627  0.00  0.00    +0.000 C 
ATOM      2  C   UNL     1      -3.704  15.951  25.053  0.00  0.00    +0.000 C 
ATOM      3  O   UNL     1      -3.658  17.329  25.469  0.00  0.00    +0.000 OA
ATOM      4  C   UNL     1      -4.970  17.908  25.478  0.00  0.00    +0.000 C 
ATOM      5  C   UNL     1      -5.646  17.799  24.104  0.00  0.00    +0.000 C 
ATOM      6  N   UNL     1      -5.681  16.398  23.639  0.00  0.00    +0.000 N 
ATOM      7  C   UNL     1      -6.927  15.957  23.180  0.00  0.00    +0.000 C 
ATOM      8  O   UNL     1      -7.876  16.737  23.041  0.00  0.00    +0.000 OA
ENDROOT
BRANCH   7   9
ATOM      9  C   UNL     1      -7.225  14.549  22.840  0.00  0.00    +0.000 A 
ATOM     10  C   UNL     1      -7.674  13.639  23.806  0.00  0.00    +0.000 A 
ATOM     11  C   UNL     1      -7.803  12.284  23.487  0.00  0.00    +0.000 A 
ATOM     12  C   UNL     1      -7.589  11.894  22.181  0.00  0.00    +0.000 A 
ATOM     13  C   UNL     1      -7.294  12.803  21.187  0.00  0.00    +0.000 A 
ATOM     14  C   UNL     1      -7.098  14.142  21.494  0.00  0.00    +0.000 A 
ATOM     15  C   UNL     1      -7.183  12.103  19.888  0.00  0.00    +0.000 C 
ATOM     16  C   UNL     1      -7.620  10.697  20.313  0.00  0.00    +0.000 C 
ATOM     17  O   UNL     1      -7.635  10.596  21.754  0.00  0.00    +0.000 OA
ENDBRANCH   7   9
BRANCH   1  24
ATOM     18  C   UNL     1      -3.170  15.304  20.631  0.00  0.00    +0.000 C 
ATOM     19  C   UNL     1      -3.568  14.282  21.632  0.00  0.00    +0.000 A 
ATOM     20  N   UNL     1      -3.459  12.986  21.318  0.00  0.00    +0.000 NA
ATOM     21  N   UNL     1      -3.862  12.349  22.417  0.00  0.00    +0.000 N 
ATOM     22  C   UNL     1      -4.104  13.181  23.479  0.00  0.00    +0.000 A 
ATOM     23  C   UNL     1      -4.341  12.604  24.828  0.00  0.00    +0.000 C 
ATOM     24  C   UNL     1      -4.060  14.478  22.965  0.00  0.00    +0.000 A 
ATOM     25  H   UNL     1      -3.918  11.334  22.389  0.00  0.00    +0.000 HD
ENDBRANCH   1  24
TORSDOF 2
ENDMDL
MODEL 2
REMARK VINA RESULT:      -5.5      4.912      7.329
REMARK  Name = 
REMARK  4 active torsions:
REMARK  status: ('A' for Active; 'I' for Inactive)
REMARK    1  A    between atoms: C_1  and  C_2
REMARK    2  A    between atoms: C_5  and  C_6
REMARK    3  A    between atoms: C_7  and  C_8
REMARK    4  A    between atoms: C_14  and  C_16
REMARK                            x       y       z     vdW  Elec       q    Type
REMARK                         _______ _______ _______ _____ _____    ______ ____
ROOT
ATOM      1  C   UNL     1       0.929  11.121  19.997  0.00  0.00    +0.000 C 
ATOM      2  C   UNL     1       0.760   9.919  19.035  0.00  0.00    +0.000 C 
ATOM      3  O   UNL     1       1.492   8.768  19.497  0.00  0.00    +0.000 OA
ATOM      4  C   UNL     1       1.039   8.357  20.794  0.00  0.00    +0.000 C 
ATOM      5  C   UNL     1       1.150   9.494  21.819  0.00  0.00    +0.000 C 
ATOM      6  N   UNL     1       0.431  10.698  21.356  0.00  0.00    +0.000 N 
ATOM      7  C   UNL     1      -0.430  11.272  22.297  0.00  0.00    +0.000 C 
ATOM      8  O   UNL     1      -0.462  10.877  23.468  0.00  0.00    +0.000 OA
ENDROOT
BRANCH   7   9
ATOM      9  C   UNL     1      -1.373  12.368  21.986  0.00  0.00    +0.000 A 
ATOM     10  C   UNL     1      -1.076  13.702  22.293  0.00  0.00    +0.000 A 
ATOM     11  C   UNL     1      -2.047  14.694  22.123  0.00  0.00    +0.000 A 
ATOM     12  C   UNL     1      -3.249  14.343  21.546  0.00  0.00    +0.000 A 
ATOM     13  C   UNL     1      -3.499  13.063  21.099  0.00  0.00    +0.000 A 
ATOM     14  C   UNL     1      -2.575  12.051  21.316  0.00  0.00    +0.000 A 
ATOM     15  C   UNL     1      -4.838  13.004  20.472  0.00  0.00    +0.000 C 
ATOM     16  C   UNL     1      -5.206  14.492  20.510  0.00  0.00    +0.000 C 
ATOM     17  O   UNL     1      -4.294  15.208  21.372  0.00  0.00    +0.000 OA
ENDBRANCH   7   9
BRANCH   1  24
ATOM     18  C   UNL     1       2.536  13.922  20.252  0.00  0.00    +0.000 C 
ATOM     19  C   UNL     1       1.238  13.682  19.572  0.00  0.00    +0.000 A 
ATOM     20  N   UNL     1       0.621  14.705  18.967  0.00  0.00    +0.000 NA
ATOM     21  N   UNL     1      -0.477  14.161  18.445  0.00  0.00    +0.000 N 
ATOM     22  C   UNL     1      -0.533  12.798  18.576  0.00  0.00    +0.000 A 
ATOM     23  C   UNL     1      -1.580  12.030  17.852  0.00  0.00    +0.000 C 
ATOM     24  C   UNL     1       0.510  12.454  19.439  0.00  0.00    +0.000 A 
ATOM     25  H   UNL     1      -1.140  14.775  17.978  0.00  0.00    +0.000 HD
ENDBRANCH   1  24
TORSDOF 2
ENDMDL
MODEL 3
REMARK VINA RESULT:      -5.5      4.934      7.605
REMARK  Name = 
REMARK  4 active torsions:
REMARK  status: ('A' for Active; 'I' for Inactive)
REMARK    1  A    between atoms: C_1  and  C_2
REMARK    2  A    between atoms: C_5  and  C_6
REMARK    3  A    between atoms: C_7  and  C_8
REMARK    4  A    between atoms: C_14  and  C_16
REMARK                            x       y       z     vdW  Elec       q    Type
REMARK                         _______ _______ _______ _____ _____    ______ ____
ROOT
ATOM      1  C   UNL     1       0.920  11.106  20.006  0.00  0.00    +0.000 C 
ATOM      2  C   UNL     1       0.750   9.898  19.051  0.00  0.00    +0.000 C 
ATOM      3  O   UNL     1       1.477   8.748  19.524  0.00  0.00    +0.000 OA
ATOM      4  C   UNL     1       1.019   8.347  20.822  0.00  0.00    +0.000 C 
ATOM      5  C   UNL     1       1.131   9.491  21.839  0.00  0.00    +0.000 C 
ATOM      6  N   UNL     1       0.417  10.695  21.367  0.00  0.00    +0.000 N 
ATOM      7  C   UNL     1      -0.445  11.277  22.301  0.00  0.00    +0.000 C 
ATOM      8  O   UNL     1      -0.481  10.891  23.474  0.00  0.00    +0.000 OA
ENDROOT
BRANCH   7   9
ATOM      9  C   UNL     1      -1.383  12.374  21.979  0.00  0.00    +0.000 A 
ATOM     10  C   UNL     1      -2.643  12.124  21.420  0.00  0.00    +0.000 A 
ATOM     11  C   UNL     1      -3.444  13.186  20.989  0.00  0.00    +0.000 A 
ATOM     12  C   UNL     1      -3.013  14.473  21.234  0.00  0.00    +0.000 A 
ATOM     13  C   UNL     1      -1.846  14.734  21.920  0.00  0.00    +0.000 A 
ATOM     14  C   UNL     1      -1.006  13.697  22.298  0.00  0.00    +0.000 A 
ATOM     15  C   UNL     1      -1.679  16.196  22.084  0.00  0.00    +0.000 C 
ATOM     16  C   UNL     1      -3.021  16.674  21.516  0.00  0.00    +0.000 C 
ATOM     17  O   UNL     1      -3.679  15.593  20.820  0.00  0.00    +0.000 OA
ENDBRANCH   7   9
BRANCH   1  24
ATOM     18  C   UNL     1       2.558  13.894  20.206  0.00  0.00    +0.000 C 
ATOM     19  C   UNL     1       1.248  13.659  19.546  0.00  0.00    +0.000 A 
ATOM     20  N   UNL     1       0.634  14.681  18.937  0.00  0.00    +0.000 NA
ATOM     21  N   UNL     1      -0.476  14.142  18.436  0.00  0.00    +0.000 N 
ATOM     22  C   UNL     1      -0.544  12.781  18.584  0.00  0.00    +0.000 A 
ATOM     23  C   UNL     1      -1.608  12.015  17.883  0.00  0.00    +0.000 C 
ATOM     24  C   UNL     1       0.506  12.437  19.437  0.00  0.00    +0.000 A 
ATOM     25  H   UNL     1      -1.139  14.756  17.970  0.00  0.00    +0.000 HD
ENDBRANCH   1  24
TORSDOF 2
ENDMDL
MODEL 4
REMARK VINA RESULT:      -5.4     12.763     15.636
REMARK  Name = 
REMARK  4 active torsions:
REMARK  status: ('A' for Active; 'I' for Inactive)
REMARK    1  A    between atoms: C_1  and  C_2
REMARK    2  A    between atoms: C_5  and  C_6
REMARK    3  A    between atoms: C_7  and  C_8
REMARK    4  A    between atoms: C_14  and  C_16
REMARK                            x       y       z     vdW  Elec       q    Type
REMARK                         _______ _______ _______ _____ _____    ______ ____
ROOT
ATOM      1  C   UNL     1      10.298  12.928  19.973  0.00  0.00    +0.000 C 
ATOM      2  C   UNL     1      11.822  12.956  19.694  0.00  0.00    +0.000 C 
ATOM      3  O   UNL     1      12.267  11.731  19.082  0.00  0.00    +0.000 OA
ATOM      4  C   UNL     1      11.598  11.507  17.833  0.00  0.00    +0.000 C 
ATOM      5  C   UNL     1      10.073  11.482  18.004  0.00  0.00    +0.000 C 
ATOM      6  N   UNL     1       9.592  12.717  18.657  0.00  0.00    +0.000 N 
ATOM      7  C   UNL     1       8.513  13.341  18.022  0.00  0.00    +0.000 C 
ATOM      8  O   UNL     1       7.926  12.807  17.075  0.00  0.00    +0.000 OA
ENDROOT
BRANCH   7   9
ATOM      9  C   UNL     1       7.995  14.672  18.403  0.00  0.00    +0.000 A 
ATOM     10  C   UNL     1       8.599  15.853  17.951  0.00  0.00    +0.000 A 
ATOM     11  C   UNL     1       8.179  17.091  18.448  0.00  0.00    +0.000 A 
ATOM     12  C   UNL     1       7.093  17.123  19.296  0.00  0.00    +0.000 A 
ATOM     13  C   UNL     1       6.393  15.982  19.630  0.00  0.00    +0.000 A 
ATOM     14  C   UNL     1       6.832  14.738  19.200  0.00  0.00    +0.000 A 
ATOM     15  C   UNL     1       5.247  16.335  20.498  0.00  0.00    +0.000 C 
ATOM     16  C   UNL     1       5.348  17.864  20.450  0.00  0.00    +0.000 C 
ATOM     17  O   UNL     1       6.617  18.261  19.887  0.00  0.00    +0.000 OA
ENDBRANCH   7   9
BRANCH   1  24
ATOM     18  C   UNL     1       8.173  12.531  22.384  0.00  0.00    +0.000 C 
ATOM     19  C   UNL     1       8.851  13.787  21.973  0.00  0.00    +0.000 A 
ATOM     20  N   UNL     1       8.600  14.914  22.651  0.00  0.00    +0.000 NA
ATOM     21  N   UNL     1       9.368  15.827  22.060  0.00  0.00    +0.000 N 
ATOM     22  C   UNL     1      10.207  15.310  21.108  0.00  0.00    +0.000 A 
ATOM     23  C   UNL     1      11.275  16.164  20.524  0.00  0.00    +0.000 C 
ATOM     24  C   UNL     1       9.798  13.989  20.917  0.00  0.00    +0.000 A 
ATOM     25  H   UNL     1       9.299  16.791  22.379  0.00  0.00    +0.000 HD
ENDBRANCH   1  24
TORSDOF 2
ENDMDL
MODEL 5
REMARK VINA RESULT:      -5.2      3.645      6.762
REMARK  Name = 
REMARK  4 active torsions:
REMARK  status: ('A' for Active; 'I' for Inactive)
REMARK    1  A    between atoms: C_1  and  C_2
REMARK    2  A    between atoms: C_5  and  C_6
REMARK    3  A    between atoms: C_7  and  C_8
REMARK    4  A    between atoms: C_14  and  C_16
REMARK                            x       y       z     vdW  Elec       q    Type
REMARK                         _______ _______ _______ _____ _____    ______ ____
ROOT
ATOM      1  C   UNL     1      -1.096  12.403  19.854  0.00  0.00    +0.000 C 
ATOM      2  C   UNL     1      -1.834  11.526  18.812  0.00  0.00    +0.000 C 
ATOM      3  O   UNL     1      -0.981  10.482  18.305  0.00  0.00    +0.000 OA
ATOM      4  C   UNL     1      -0.533   9.623  19.362  0.00  0.00    +0.000 C 
ATOM      5  C   UNL     1       0.198  10.409  20.459  0.00  0.00    +0.000 C 
ATOM      6  N   UNL     1      -0.645  11.506  20.978  0.00  0.00    +0.000 N 
ATOM      7  C   UNL     1      -0.732  11.576  22.373  0.00  0.00    +0.000 C 
ATOM      8  O   UNL     1      -0.033  10.862  23.099  0.00  0.00    +0.000 OA
ENDROOT
BRANCH   7   9
ATOM      9  C   UNL     1      -1.657  12.477  23.092  0.00  0.00    +0.000 A 
ATOM     10  C   UNL     1      -2.957  12.079  23.433  0.00  0.00    +0.000 A 
ATOM     11  C   UNL     1      -3.854  13.002  23.977  0.00  0.00    +0.000 A 
ATOM     12  C   UNL     1      -3.395  14.268  24.272  0.00  0.00    +0.000 A 
ATOM     13  C   UNL     1      -2.077  14.629  24.083  0.00  0.00    +0.000 A 
ATOM     14  C   UNL     1      -1.187  13.749  23.484  0.00  0.00    +0.000 A 
ATOM     15  C   UNL     1      -1.869  16.019  24.546  0.00  0.00    +0.000 C 
ATOM     16  C   UNL     1      -3.246  16.297  25.160  0.00  0.00    +0.000 C 
ATOM     17  O   UNL     1      -4.184  15.273  24.760  0.00  0.00    +0.000 OA
ENDBRANCH   7   9
BRANCH   1  24
ATOM     18  C   UNL     1       0.294  15.329  19.889  0.00  0.00    +0.000 C 
ATOM     19  C   UNL     1      -1.122  14.996  20.192  0.00  0.00    +0.000 A 
ATOM     20  N   UNL     1      -1.969  15.982  20.511  0.00  0.00    +0.000 NA
ATOM     21  N   UNL     1      -3.134  15.365  20.693  0.00  0.00    +0.000 N 
ATOM     22  C   UNL     1      -3.108  14.031  20.377  0.00  0.00    +0.000 A 
ATOM     23  C   UNL     1      -4.379  13.263  20.314  0.00  0.00    +0.000 C 
ATOM     24  C   UNL     1      -1.763  13.714  20.177  0.00  0.00    +0.000 A 
ATOM     25  H   UNL     1      -3.928  15.920  21.003  0.00  0.00    +0.000 HD
ENDBRANCH   1  24
TORSDOF 2
ENDMDL
MODEL 6
REMARK VINA RESULT:      -5.1      3.212      4.889
REMARK  Name = 
REMARK  4 active torsions:
REMARK  status: ('A' for Active; 'I' for Inactive)
REMARK    1  A    between atoms: C_1  and  C_2
REMARK    2  A    between atoms: C_5  and  C_6
REMARK    3  A    between atoms: C_7  and  C_8
REMARK    4  A    between atoms: C_14  and  C_16
REMARK                            x       y       z     vdW  Elec       q    Type
REMARK                         _______ _______ _______ _____ _____    ______ ____
ROOT
ATOM      1  C   UNL     1      -4.136  15.596  22.800  0.00  0.00    +0.000 C 
ATOM      2  C   UNL     1      -4.558  16.039  24.224  0.00  0.00    +0.000 C 
ATOM      3  O   UNL     1      -5.976  16.279  24.300  0.00  0.00    +0.000 OA
ATOM      4  C   UNL     1      -6.717  15.096  23.973  0.00  0.00    +0.000 C 
ATOM      5  C   UNL     1      -6.351  14.567  22.580  0.00  0.00    +0.000 C 
ATOM      6  N   UNL     1      -4.896  14.338  22.463  0.00  0.00    +0.000 N 
ATOM      7  C   UNL     1      -4.532  13.093  21.941  0.00  0.00    +0.000 C 
ATOM      8  O   UNL     1      -5.374  12.316  21.478  0.00  0.00    +0.000 OA
ENDROOT
BRANCH   7   9
ATOM      9  C   UNL     1      -3.140  12.593  21.906  0.00  0.00    +0.000 A 
ATOM     10  C   UNL     1      -2.547  11.994  23.025  0.00  0.00    +0.000 A 
ATOM     11  C   UNL     1      -1.187  11.669  23.008  0.00  0.00    +0.000 A 
ATOM     12  C   UNL     1      -0.484  11.847  21.835  0.00  0.00    +0.000 A 
ATOM     13  C   UNL     1      -1.092  12.293  20.680  0.00  0.00    +0.000 A 
ATOM     14  C   UNL     1      -2.424  12.682  20.693  0.00  0.00    +0.000 A 
ATOM     15  C   UNL     1      -0.107  12.323  19.576  0.00  0.00    +0.000 C 
ATOM     16  C   UNL     1       1.089  11.671  20.280  0.00  0.00    +0.000 C 
ATOM     17  O   UNL     1       0.857  11.614  21.704  0.00  0.00    +0.000 OA
ENDBRANCH   7   9
BRANCH   1  24
ATOM     18  C   UNL     1      -2.722  16.780  20.138  0.00  0.00    +0.000 C 
ATOM     19  C   UNL     1      -2.058  16.188  21.327  0.00  0.00    +0.000 A 
ATOM     20  N   UNL     1      -0.722  16.121  21.361  0.00  0.00    +0.000 NA
ATOM     21  N   UNL     1      -0.453  15.576  22.546  0.00  0.00    +0.000 N 
ATOM     22  C   UNL     1      -1.558  15.405  23.338  0.00  0.00    +0.000 A 
ATOM     23  C   UNL     1      -1.390  15.019  24.764  0.00  0.00    +0.000 C 
ATOM     24  C   UNL     1      -2.658  15.664  22.519  0.00  0.00    +0.000 A 
ATOM     25  H   UNL     1       0.518  15.373  22.770  0.00  0.00    +0.000 HD
ENDBRANCH   1  24
TORSDOF 2
ENDMDL
MODEL 7
REMARK VINA RESULT:      -5.1      2.435      6.033
REMARK  Name = 
REMARK  4 active torsions:
REMARK  status: ('A' for Active; 'I' for Inactive)
REMARK    1  A    between atoms: C_1  and  C_2
REMARK    2  A    between atoms: C_5  and  C_6
REMARK    3  A    between atoms: C_7  and  C_8
REMARK    4  A    between atoms: C_14  and  C_16
REMARK                            x       y       z     vdW  Elec       q    Type
REMARK                         _______ _______ _______ _____ _____    ______ ____
ROOT
ATOM      1  C   UNL     1      -6.144  13.060  21.062  0.00  0.00    +0.000 C 
ATOM      2  C   UNL     1      -7.074  11.892  21.475  0.00  0.00    +0.000 C 
ATOM      3  O   UNL     1      -7.676  11.267  20.326  0.00  0.00    +0.000 OA
ATOM      4  C   UNL     1      -6.676  10.739  19.444  0.00  0.00    +0.000 C 
ATOM      5  C   UNL     1      -5.690  11.824  18.993  0.00  0.00    +0.000 C 
ATOM      6  N   UNL     1      -5.077  12.502  20.153  0.00  0.00    +0.000 N 
ATOM      7  C   UNL     1      -3.684  12.616  20.105  0.00  0.00    +0.000 C 
ATOM      8  O   UNL     1      -3.046  12.303  19.095  0.00  0.00    +0.000 OA
ENDROOT
BRANCH   7   9
ATOM      9  C   UNL     1      -2.861  13.096  21.236  0.00  0.00    +0.000 A 
ATOM     10  C   UNL     1      -2.435  12.232  22.254  0.00  0.00    +0.000 A 
ATOM     11  C   UNL     1      -1.787  12.743  23.383  0.00  0.00    +0.000 A 
ATOM     12  C   UNL     1      -1.482  14.087  23.412  0.00  0.00    +0.000 A 
ATOM     13  C   UNL     1      -1.760  14.922  22.350  0.00  0.00    +0.000 A 
ATOM     14  C   UNL     1      -2.460  14.449  21.249  0.00  0.00    +0.000 A 
ATOM     15  C   UNL     1      -1.264  16.285  22.644  0.00  0.00    +0.000 C 
ATOM     16  C   UNL     1      -0.534  16.016  23.964  0.00  0.00    +0.000 C 
ATOM     17  O   UNL     1      -0.897  14.715  24.477  0.00  0.00    +0.000 OA
ENDBRANCH   7   9
BRANCH   1  24
ATOM     18  C   UNL     1      -6.092  16.296  20.953  0.00  0.00    +0.000 C 
ATOM     19  C   UNL     1      -5.730  15.424  22.099  0.00  0.00    +0.000 A 
ATOM     20  N   UNL     1      -5.342  15.988  23.249  0.00  0.00    +0.000 NA
ATOM     21  N   UNL     1      -5.121  14.955  24.060  0.00  0.00    +0.000 N 
ATOM     22  C   UNL     1      -5.476  13.746  23.523  0.00  0.00    +0.000 A 
ATOM     23  C   UNL     1      -5.500  12.534  24.384  0.00  0.00    +0.000 C 
ATOM     24  C   UNL     1      -5.750  13.993  22.176  0.00  0.00    +0.000 A 
ATOM     25  H   UNL     1      -4.756  15.146  24.990  0.00  0.00    +0.000 HD
ENDBRANCH   1  24
TORSDOF 2
ENDMDL
MODEL 8
REMARK VINA RESULT:      -5.1     12.073     14.664
REMARK  Name = 
REMARK  4 active torsions:
REMARK  status: ('A' for Active; 'I' for Inactive)
REMARK    1  A    between atoms: C_1  and  C_2
REMARK    2  A    between atoms: C_5  and  C_6
REMARK    3  A    between atoms: C_7  and  C_8
REMARK    4  A    between atoms: C_14  and  C_16
REMARK                            x       y       z     vdW  Elec       q    Type
REMARK                         _______ _______ _______ _____ _____    ______ ____
ROOT
ATOM      1  C   UNL     1       6.470  15.046  21.504  0.00  0.00    +0.000 C 
ATOM      2  C   UNL     1       5.848  13.915  22.362  0.00  0.00    +0.000 C 
ATOM      3  O   UNL     1       4.418  14.057  22.462  0.00  0.00    +0.000 OA
ATOM      4  C   UNL     1       3.804  14.013  21.167  0.00  0.00    +0.000 C 
ATOM      5  C   UNL     1       4.373  15.090  20.234  0.00  0.00    +0.000 C 
ATOM      6  N   UNL     1       5.843  14.986  20.134  0.00  0.00    +0.000 N 
ATOM      7  C   UNL     1       6.351  15.000  18.831  0.00  0.00    +0.000 C 
ATOM      8  O   UNL     1       5.625  15.234  17.859  0.00  0.00    +0.000 OA
ENDROOT
BRANCH   7   9
ATOM      9  C   UNL     1       7.766  14.729  18.500  0.00  0.00    +0.000 A 
ATOM     10  C   UNL     1       8.682  15.767  18.280  0.00  0.00    +0.000 A 
ATOM     11  C   UNL     1       9.972  15.481  17.823  0.00  0.00    +0.000 A 
ATOM     12  C   UNL     1      10.347  14.159  17.706  0.00  0.00    +0.000 A 
ATOM     13  C   UNL     1       9.507  13.126  18.064  0.00  0.00    +0.000 A 
ATOM     14  C   UNL     1       8.202  13.387  18.458  0.00  0.00    +0.000 A 
ATOM     15  C   UNL     1      10.203  11.832  17.890  0.00  0.00    +0.000 C 
ATOM     16  C   UNL     1      11.605  12.339  17.533  0.00  0.00    +0.000 C 
ATOM     17  O   UNL     1      11.560  13.750  17.224  0.00  0.00    +0.000 OA
ENDBRANCH   7   9
BRANCH   1  24
ATOM     18  C   UNL     1       8.123  17.820  21.754  0.00  0.00    +0.000 C 
ATOM     19  C   UNL     1       8.670  16.440  21.730  0.00  0.00    +0.000 A 
ATOM     20  N   UNL     1       9.993  16.263  21.831  0.00  0.00    +0.000 NA
ATOM     21  N   UNL     1      10.148  14.940  21.804  0.00  0.00    +0.000 N 
ATOM     22  C   UNL     1       8.966  14.246  21.820  0.00  0.00    +0.000 A 
ATOM     23  C   UNL     1       8.979  12.773  22.018  0.00  0.00    +0.000 C 
ATOM     24  C   UNL     1       7.963  15.197  21.627  0.00  0.00    +0.000 A 
ATOM     25  H   UNL     1      11.094  14.568  21.811  0.00  0.00    +0.000 HD
ENDBRANCH   1  24
TORSDOF 2
ENDMDL
MODEL 9
REMARK VINA RESULT:      -5.0      4.240      6.645
REMARK  Name = 
REMARK  4 active torsions:
REMARK  status: ('A' for Active; 'I' for Inactive)
REMARK    1  A    between atoms: C_1  and  C_2
REMARK    2  A    between atoms: C_5  and  C_6
REMARK    3  A    between atoms: C_7  and  C_8
REMARK    4  A    between atoms: C_14  and  C_16
REMARK                            x       y       z     vdW  Elec       q    Type
REMARK                         _______ _______ _______ _____ _____    ______ ____
ROOT
ATOM      1  C   UNL     1      -3.721  13.245  21.255  0.00  0.00    +0.000 C 
ATOM      2  C   UNL     1      -4.422  12.532  22.438  0.00  0.00    +0.000 C 
ATOM      3  O   UNL     1      -5.855  12.581  22.306  0.00  0.00    +0.000 OA
ATOM      4  C   UNL     1      -6.282  11.941  21.095  0.00  0.00    +0.000 C 
ATOM      5  C   UNL     1      -5.622  12.569  19.861  0.00  0.00    +0.000 C 
ATOM      6  N   UNL     1      -4.150  12.559  19.982  0.00  0.00    +0.000 N 
ATOM      7  C   UNL     1      -3.467  12.066  18.865  0.00  0.00    +0.000 C 
ATOM      8  O   UNL     1      -4.057  11.805  17.812  0.00  0.00    +0.000 OA
ENDROOT
BRANCH   7   9
ATOM      9  C   UNL     1      -2.012  11.804  18.844  0.00  0.00    +0.000 A 
ATOM     10  C   UNL     1      -1.487  10.544  19.162  0.00  0.00    +0.000 A 
ATOM     11  C   UNL     1      -0.105  10.368  19.279  0.00  0.00    +0.000 A 
ATOM     12  C   UNL     1       0.720  11.427  18.963  0.00  0.00    +0.000 A 
ATOM     13  C   UNL     1       0.223  12.628  18.502  0.00  0.00    +0.000 A 
ATOM     14  C   UNL     1      -1.147  12.844  18.441  0.00  0.00    +0.000 A 
ATOM     15  C   UNL     1       1.341  13.544  18.188  0.00  0.00    +0.000 C 
ATOM     16  C   UNL     1       2.523  12.592  18.403  0.00  0.00    +0.000 C 
ATOM     17  O   UNL     1       2.082  11.397  19.084  0.00  0.00    +0.000 OA
ENDBRANCH   7   9
BRANCH   1  24
ATOM     18  C   UNL     1      -2.238  16.058  20.639  0.00  0.00    +0.000 C 
ATOM     19  C   UNL     1      -1.631  14.816  21.180  0.00  0.00    +0.000 A 
ATOM     20  N   UNL     1      -0.326  14.804  21.476  0.00  0.00    +0.000 NA
ATOM     21  N   UNL     1      -0.111  13.579  21.953  0.00  0.00    +0.000 N 
ATOM     22  C   UNL     1      -1.253  12.836  22.099  0.00  0.00    +0.000 A 
ATOM     23  C   UNL     1      -1.201  11.539  22.825  0.00  0.00    +0.000 C 
ATOM     24  C   UNL     1      -2.264  13.562  21.467  0.00  0.00    +0.000 A 
ATOM     25  H   UNL     1       0.842  13.320  22.194  0.00  0.00    +0.000 HD
ENDBRANCH   1  24
TORSDOF 2
ENDMDL
