MODEL 1
REMARK VINA RESULT:      -6.4      0.000      0.000
REMARK  Name = 
REMARK  20 active torsions:
REMARK  status: ('A' for Active; 'I' for Inactive)
REMARK    1  A    between atoms: C_1  and  C_2
REMARK    2  A    between atoms: C_2  and  C_3
REMARK    3  A    between atoms: C_3  and  C_4
REMARK    4  A    between atoms: C_4  and  C_5
REMARK    5  A    between atoms: C_5  and  C_6
REMARK    6  A    between atoms: C_6  and  C_7
REMARK    7  A    between atoms: C_7  and  C_8
REMARK    8  A    between atoms: C_8  and  O_10
REMARK    9  A    between atoms: O_10  and  C_11
REMARK   10  A    between atoms: C_11  and  C_12
REMARK   11  A    between atoms: C_12  and  C_13
REMARK   12  A    between atoms: C_12  and  O_14
REMARK   13  A    between atoms: O_14  and  C_15
REMARK   14  A    between atoms: C_15  and  C_17
REMARK   15  A    between atoms: C_17  and  C_18
REMARK   16  A    between atoms: C_18  and  C_19
REMARK   17  A    between atoms: C_19  and  C_20
REMARK   18  A    between atoms: C_20  and  C_21
REMARK   19  A    between atoms: C_21  and  C_22
REMARK   20  A    between atoms: C_22  and  C_23
REMARK                            x       y       z     vdW  Elec       q    Type
REMARK                         _______ _______ _______ _____ _____    ______ ____
ROOT
ATOM      1  C   UNL     1       7.019   5.948  16.875  0.00  0.00    +0.000 C 
ATOM      2  C   UNL     1       7.293   7.402  17.255  0.00  0.00    +0.000 C 
ENDROOT
BRANCH   1   3
ATOM      3  C   UNL     1       7.554   5.010  17.964  0.00  0.00    +0.000 C 
BRANCH   3   4
ATOM      4  O   UNL     1       6.557   4.038  18.345  0.00  0.00    +0.000 OA
BRANCH   4   5
ATOM      5  C   UNL     1       5.381   4.573  18.774  0.00  0.00    +0.000 C 
ATOM      6  O   UNL     1       5.280   5.352  19.723  0.00  0.00    +0.000 OA
BRANCH   5   7
ATOM      7  C   UNL     1       4.214   4.063  17.956  0.00  0.00    +0.000 C 
BRANCH   7   8
ATOM      8  C   UNL     1       3.238   5.199  17.638  0.00  0.00    +0.000 C 
BRANCH   8   9
ATOM      9  C   UNL     1       1.836   4.970  18.209  0.00  0.00    +0.000 C 
BRANCH   9  10
ATOM     10  C   UNL     1       1.469   3.481  18.168  0.00  0.00    +0.000 C 
BRANCH  10  11
ATOM     11  C   UNL     1       0.887   3.004  19.498  0.00  0.00    +0.000 C 
BRANCH  11  13
ATOM     12  C   UNL     1       2.084   3.552  21.645  0.00  0.00    +0.000 C 
ATOM     13  C   UNL     1       1.986   2.583  20.476  0.00  0.00    +0.000 C 
ENDBRANCH  11  13
ENDBRANCH  10  11
ENDBRANCH   9  10
ENDBRANCH   8   9
ENDBRANCH   7   8
ENDBRANCH   5   7
ENDBRANCH   4   5
ENDBRANCH   3   4
ENDBRANCH   1   3
BRANCH   1  14
ATOM     14  O   UNL     1       7.667   5.646  15.617  0.00  0.00    +0.000 OA
BRANCH  14  15
ATOM     15  C   UNL     1       6.876   5.007  14.702  0.00  0.00    +0.000 C 
ATOM     16  O   UNL     1       5.711   4.689  14.883  0.00  0.00    +0.000 OA
BRANCH  15  17
ATOM     17  C   UNL     1       7.608   4.761  13.401  0.00  0.00    +0.000 C 
BRANCH  17  18
ATOM     18  C   UNL     1       6.632   4.396  12.278  0.00  0.00    +0.000 C 
BRANCH  18  19
ATOM     19  C   UNL     1       6.734   2.930  11.855  0.00  0.00    +0.000 C 
BRANCH  19  20
ATOM     20  C   UNL     1       5.342   2.303  11.727  0.00  0.00    +0.000 C 
BRANCH  20  21
ATOM     21  C   UNL     1       4.263   3.369  11.542  0.00  0.00    +0.000 C 
BRANCH  21  22
ATOM     22  C   UNL     1       3.393   3.080  10.320  0.00  0.00    +0.000 C 
ATOM     23  C   UNL     1       2.864   4.368   9.707  0.00  0.00    +0.000 C 
ENDBRANCH  21  22
ENDBRANCH  20  21
ENDBRANCH  19  20
ENDBRANCH  18  19
ENDBRANCH  17  18
ENDBRANCH  15  17
ENDBRANCH  14  15
ENDBRANCH   1  14
TORSDOF 17
ENDMDL
MODEL 2
REMARK VINA RESULT:      -6.0      2.213      4.563
REMARK  Name = 
REMARK  20 active torsions:
REMARK  status: ('A' for Active; 'I' for Inactive)
REMARK    1  A    between atoms: C_1  and  C_2
REMARK    2  A    between atoms: C_2  and  C_3
REMARK    3  A    between atoms: C_3  and  C_4
REMARK    4  A    between atoms: C_4  and  C_5
REMARK    5  A    between atoms: C_5  and  C_6
REMARK    6  A    between atoms: C_6  and  C_7
REMARK    7  A    between atoms: C_7  and  C_8
REMARK    8  A    between atoms: C_8  and  O_10
REMARK    9  A    between atoms: O_10  and  C_11
REMARK   10  A    between atoms: C_11  and  C_12
REMARK   11  A    between atoms: C_12  and  C_13
REMARK   12  A    between atoms: C_12  and  O_14
REMARK   13  A    between atoms: O_14  and  C_15
REMARK   14  A    between atoms: C_15  and  C_17
REMARK   15  A    between atoms: C_17  and  C_18
REMARK   16  A    between atoms: C_18  and  C_19
REMARK   17  A    between atoms: C_19  and  C_20
REMARK   18  A    between atoms: C_20  and  C_21
REMARK   19  A    between atoms: C_21  and  C_22
REMARK   20  A    between atoms: C_22  and  C_23
REMARK                            x       y       z     vdW  Elec       q    Type
REMARK                         _______ _______ _______ _____ _____    ______ ____
ROOT
ATOM      1  C   UNL     1       4.675   3.742  19.031  0.00  0.00    +0.000 C 
ATOM      2  C   UNL     1       4.711   2.604  20.050  0.00  0.00    +0.000 C 
ENDROOT
BRANCH   1   3
ATOM      3  C   UNL     1       3.752   3.372  17.863  0.00  0.00    +0.000 C 
BRANCH   3   4
ATOM      4  O   UNL     1       2.590   2.654  18.329  0.00  0.00    +0.000 OA
BRANCH   4   5
ATOM      5  C   UNL     1       1.442   3.386  18.346  0.00  0.00    +0.000 C 
ATOM      6  O   UNL     1       0.968   3.954  17.362  0.00  0.00    +0.000 OA
BRANCH   5   7
ATOM      7  C   UNL     1       0.844   3.436  19.736  0.00  0.00    +0.000 C 
BRANCH   7   8
ATOM      8  C   UNL     1       1.608   4.425  20.620  0.00  0.00    +0.000 C 
BRANCH   8   9
ATOM      9  C   UNL     1       1.294   5.890  20.303  0.00  0.00    +0.000 C 
BRANCH   9  10
ATOM     10  C   UNL     1       2.548   6.619  19.805  0.00  0.00    +0.000 C 
BRANCH  10  11
ATOM     11  C   UNL     1       2.556   6.756  18.282  0.00  0.00    +0.000 C 
BRANCH  11  13
ATOM     12  C   UNL     1       1.567   9.061  18.063  0.00  0.00    +0.000 C 
ATOM     13  C   UNL     1       2.803   8.201  17.847  0.00  0.00    +0.000 C 
ENDBRANCH  11  13
ENDBRANCH  10  11
ENDBRANCH   9  10
ENDBRANCH   8   9
ENDBRANCH   7   8
ENDBRANCH   5   7
ENDBRANCH   4   5
ENDBRANCH   3   4
ENDBRANCH   1   3
BRANCH   1  14
ATOM     14  O   UNL     1       6.010   3.988  18.531  0.00  0.00    +0.000 OA
BRANCH  14  15
ATOM     15  C   UNL     1       6.600   5.127  19.006  0.00  0.00    +0.000 C 
ATOM     16  O   UNL     1       7.219   5.211  20.055  0.00  0.00    +0.000 OA
BRANCH  15  17
ATOM     17  C   UNL     1       6.426   6.289  18.053  0.00  0.00    +0.000 C 
BRANCH  17  18
ATOM     18  C   UNL     1       6.516   5.829  16.596  0.00  0.00    +0.000 C 
BRANCH  18  19
ATOM     19  C   UNL     1       5.234   6.097  15.806  0.00  0.00    +0.000 C 
BRANCH  19  20
ATOM     20  C   UNL     1       5.145   5.179  14.583  0.00  0.00    +0.000 C 
BRANCH  20  21
ATOM     21  C   UNL     1       6.297   4.175  14.554  0.00  0.00    +0.000 C 
BRANCH  21  22
ATOM     22  C   UNL     1       6.733   3.862  13.123  0.00  0.00    +0.000 C 
ATOM     23  C   UNL     1       5.582   3.287  12.313  0.00  0.00    +0.000 C 
ENDBRANCH  21  22
ENDBRANCH  20  21
ENDBRANCH  19  20
ENDBRANCH  18  19
ENDBRANCH  17  18
ENDBRANCH  15  17
ENDBRANCH  14  15
ENDBRANCH   1  14
TORSDOF 17
ENDMDL
MODEL 3
REMARK VINA RESULT:      -5.9      2.603      6.146
REMARK  Name = 
REMARK  20 active torsions:
REMARK  status: ('A' for Active; 'I' for Inactive)
REMARK    1  A    between atoms: C_1  and  C_2
REMARK    2  A    between atoms: C_2  and  C_3
REMARK    3  A    between atoms: C_3  and  C_4
REMARK    4  A    between atoms: C_4  and  C_5
REMARK    5  A    between atoms: C_5  and  C_6
REMARK    6  A    between atoms: C_6  and  C_7
REMARK    7  A    between atoms: C_7  and  C_8
REMARK    8  A    between atoms: C_8  and  O_10
REMARK    9  A    between atoms: O_10  and  C_11
REMARK   10  A    between atoms: C_11  and  C_12
REMARK   11  A    between atoms: C_12  and  C_13
REMARK   12  A    between atoms: C_12  and  O_14
REMARK   13  A    between atoms: O_14  and  C_15
REMARK   14  A    between atoms: C_15  and  C_17
REMARK   15  A    between atoms: C_17  and  C_18
REMARK   16  A    between atoms: C_18  and  C_19
REMARK   17  A    between atoms: C_19  and  C_20
REMARK   18  A    between atoms: C_20  and  C_21
REMARK   19  A    between atoms: C_21  and  C_22
REMARK   20  A    between atoms: C_22  and  C_23
REMARK                            x       y       z     vdW  Elec       q    Type
REMARK                         _______ _______ _______ _____ _____    ______ ____
ROOT
ATOM      1  C   UNL     1       5.662   5.413  16.160  0.00  0.00    +0.000 C 
ATOM      2  C   UNL     1       5.493   4.651  14.847  0.00  0.00    +0.000 C 
ENDROOT
BRANCH   1   3
ATOM      3  C   UNL     1       4.819   6.695  16.136  0.00  0.00    +0.000 C 
BRANCH   3   4
ATOM      4  O   UNL     1       4.564   7.172  17.475  0.00  0.00    +0.000 OA
BRANCH   4   5
ATOM      5  C   UNL     1       3.258   7.123  17.853  0.00  0.00    +0.000 C 
ATOM      6  O   UNL     1       2.438   8.014  17.629  0.00  0.00    +0.000 OA
BRANCH   5   7
ATOM      7  C   UNL     1       2.952   5.848  18.609  0.00  0.00    +0.000 C 
BRANCH   7   8
ATOM      8  C   UNL     1       1.960   4.979  17.830  0.00  0.00    +0.000 C 
BRANCH   8   9
ATOM      9  C   UNL     1       2.504   3.586  17.500  0.00  0.00    +0.000 C 
BRANCH   9  10
ATOM     10  C   UNL     1       2.470   2.683  18.739  0.00  0.00    +0.000 C 
BRANCH  10  11
ATOM     11  C   UNL     1       1.122   2.755  19.456  0.00  0.00    +0.000 C 
BRANCH  11  13
ATOM     12  C   UNL     1       2.171   3.699  21.540  0.00  0.00    +0.000 C 
ATOM     13  C   UNL     1       1.279   2.607  20.970  0.00  0.00    +0.000 C 
ENDBRANCH  11  13
ENDBRANCH  10  11
ENDBRANCH   9  10
ENDBRANCH   8   9
ENDBRANCH   7   8
ENDBRANCH   5   7
ENDBRANCH   4   5
ENDBRANCH   3   4
ENDBRANCH   1   3
BRANCH   1  14
ATOM     14  O   UNL     1       7.055   5.756  16.346  0.00  0.00    +0.000 OA
BRANCH  14  15
ATOM     15  C   UNL     1       7.633   5.223  17.466  0.00  0.00    +0.000 C 
ATOM     16  O   UNL     1       8.245   4.167  17.504  0.00  0.00    +0.000 OA
BRANCH  15  17
ATOM     17  C   UNL     1       7.453   6.119  18.672  0.00  0.00    +0.000 C 
BRANCH  17  18
ATOM     18  C   UNL     1       8.360   7.349  18.587  0.00  0.00    +0.000 C 
BRANCH  18  19
ATOM     19  C   UNL     1       7.752   8.480  17.756  0.00  0.00    +0.000 C 
BRANCH  19  20
ATOM     20  C   UNL     1       8.611   9.745  17.847  0.00  0.00    +0.000 C 
BRANCH  20  21
ATOM     21  C   UNL     1       9.173   9.938  19.255  0.00  0.00    +0.000 C 
BRANCH  21  22
ATOM     22  C   UNL     1       9.831  11.308  19.414  0.00  0.00    +0.000 C 
ATOM     23  C   UNL     1      10.576  11.708  18.151  0.00  0.00    +0.000 C 
ENDBRANCH  21  22
ENDBRANCH  20  21
ENDBRANCH  19  20
ENDBRANCH  18  19
ENDBRANCH  17  18
ENDBRANCH  15  17
ENDBRANCH  14  15
ENDBRANCH   1  14
TORSDOF 17
ENDMDL
MODEL 4
REMARK VINA RESULT:      -5.9      2.920      8.148
REMARK  Name = 
REMARK  20 active torsions:
REMARK  status: ('A' for Active; 'I' for Inactive)
REMARK    1  A    between atoms: C_1  and  C_2
REMARK    2  A    between atoms: C_2  and  C_3
REMARK    3  A    between atoms: C_3  and  C_4
REMARK    4  A    between atoms: C_4  and  C_5
REMARK    5  A    between atoms: C_5  and  C_6
REMARK    6  A    between atoms: C_6  and  C_7
REMARK    7  A    between atoms: C_7  and  C_8
REMARK    8  A    between atoms: C_8  and  O_10
REMARK    9  A    between atoms: O_10  and  C_11
REMARK   10  A    between atoms: C_11  and  C_12
REMARK   11  A    between atoms: C_12  and  C_13
REMARK   12  A    between atoms: C_12  and  O_14
REMARK   13  A    between atoms: O_14  and  C_15
REMARK   14  A    between atoms: C_15  and  C_17
REMARK   15  A    between atoms: C_17  and  C_18
REMARK   16  A    between atoms: C_18  and  C_19
REMARK   17  A    between atoms: C_19  and  C_20
REMARK   18  A    between atoms: C_20  and  C_21
REMARK   19  A    between atoms: C_21  and  C_22
REMARK   20  A    between atoms: C_22  and  C_23
REMARK                            x       y       z     vdW  Elec       q    Type
REMARK                         _______ _______ _______ _____ _____    ______ ____
ROOT
ATOM      1  C   UNL     1       3.134   2.878  18.969  0.00  0.00    +0.000 C 
ATOM      2  C   UNL     1       3.179   2.039  17.693  0.00  0.00    +0.000 C 
ENDROOT
BRANCH   1   3
ATOM      3  C   UNL     1       4.556   3.119  19.490  0.00  0.00    +0.000 C 
BRANCH   3   4
ATOM      4  O   UNL     1       4.841   4.532  19.580  0.00  0.00    +0.000 OA
BRANCH   4   5
ATOM      5  C   UNL     1       5.723   4.991  18.650  0.00  0.00    +0.000 C 
ATOM      6  O   UNL     1       6.894   4.621  18.564  0.00  0.00    +0.000 OA
BRANCH   5   7
ATOM      7  C   UNL     1       5.086   6.036  17.759  0.00  0.00    +0.000 C 
BRANCH   7   8
ATOM      8  C   UNL     1       5.533   5.854  16.306  0.00  0.00    +0.000 C 
BRANCH   8   9
ATOM      9  C   UNL     1       4.999   4.570  15.664  0.00  0.00    +0.000 C 
BRANCH   9  10
ATOM     10  C   UNL     1       6.151   3.719  15.114  0.00  0.00    +0.000 C 
BRANCH  10  11
ATOM     11  C   UNL     1       6.434   4.031  13.645  0.00  0.00    +0.000 C 
BRANCH  11  13
ATOM     12  C   UNL     1       5.656   2.587  11.735  0.00  0.00    +0.000 C 
ATOM     13  C   UNL     1       5.255   3.649  12.748  0.00  0.00    +0.000 C 
ENDBRANCH  11  13
ENDBRANCH  10  11
ENDBRANCH   9  10
ENDBRANCH   8   9
ENDBRANCH   7   8
ENDBRANCH   5   7
ENDBRANCH   4   5
ENDBRANCH   3   4
ENDBRANCH   1   3
BRANCH   1  14
ATOM     14  O   UNL     1       2.362   2.184  19.977  0.00  0.00    +0.000 OA
BRANCH  14  15
ATOM     15  C   UNL     1       1.804   2.992  20.930  0.00  0.00    +0.000 C 
ATOM     16  O   UNL     1       1.885   2.814  22.136  0.00  0.00    +0.000 OA
BRANCH  15  17
ATOM     17  C   UNL     1       1.087   4.174  20.315  0.00  0.00    +0.000 C 
BRANCH  17  18
ATOM     18  C   UNL     1       1.665   5.497  20.823  0.00  0.00    +0.000 C 
BRANCH  18  19
ATOM     19  C   UNL     1       1.904   6.512  19.703  0.00  0.00    +0.000 C 
BRANCH  19  20
ATOM     20  C   UNL     1       1.856   7.943  20.246  0.00  0.00    +0.000 C 
BRANCH  20  21
ATOM     21  C   UNL     1       0.978   8.038  21.493  0.00  0.00    +0.000 C 
BRANCH  21  22
ATOM     22  C   UNL     1       0.071   9.268  21.450  0.00  0.00    +0.000 C 
ATOM     23  C   UNL     1      -0.430   9.628  22.840  0.00  0.00    +0.000 C 
ENDBRANCH  21  22
ENDBRANCH  20  21
ENDBRANCH  19  20
ENDBRANCH  18  19
ENDBRANCH  17  18
ENDBRANCH  15  17
ENDBRANCH  14  15
ENDBRANCH   1  14
TORSDOF 17
ENDMDL
MODEL 5
REMARK VINA RESULT:      -5.8      1.424      2.081
REMARK  Name = 
REMARK  20 active torsions:
REMARK  status: ('A' for Active; 'I' for Inactive)
REMARK    1  A    between atoms: C_1  and  C_2
REMARK    2  A    between atoms: C_2  and  C_3
REMARK    3  A    between atoms: C_3  and  C_4
REMARK    4  A    between atoms: C_4  and  C_5
REMARK    5  A    between atoms: C_5  and  C_6
REMARK    6  A    between atoms: C_6  and  C_7
REMARK    7  A    between atoms: C_7  and  C_8
REMARK    8  A    between atoms: C_8  and  O_10
REMARK    9  A    between atoms: O_10  and  C_11
REMARK   10  A    between atoms: C_11  and  C_12
REMARK   11  A    between atoms: C_12  and  C_13
REMARK   12  A    between atoms: C_12  and  O_14
REMARK   13  A    between atoms: O_14  and  C_15
REMARK   14  A    between atoms: C_15  and  C_17
REMARK   15  A    between atoms: C_17  and  C_18
REMARK   16  A    between atoms: C_18  and  C_19
REMARK   17  A    between atoms: C_19  and  C_20
REMARK   18  A    between atoms: C_20  and  C_21
REMARK   19  A    between atoms: C_21  and  C_22
REMARK   20  A    between atoms: C_22  and  C_23
REMARK                            x       y       z     vdW  Elec       q    Type
REMARK                         _______ _______ _______ _____ _____    ______ ____
ROOT
ATOM      1  C   UNL     1       6.842   5.773  18.168  0.00  0.00    +0.000 C 
ATOM      2  C   UNL     1       7.876   5.910  19.285  0.00  0.00    +0.000 C 
ENDROOT
BRANCH   1   3
ATOM      3  C   UNL     1       6.266   4.351  18.157  0.00  0.00    +0.000 C 
BRANCH   3   4
ATOM      4  O   UNL     1       5.073   4.269  18.966  0.00  0.00    +0.000 OA
BRANCH   4   5
ATOM      5  C   UNL     1       4.598   3.006  19.144  0.00  0.00    +0.000 C 
ATOM      6  O   UNL     1       4.880   2.288  20.105  0.00  0.00    +0.000 OA
BRANCH   5   7
ATOM      7  C   UNL     1       3.704   2.588  17.996  0.00  0.00    +0.000 C 
BRANCH   7   8
ATOM      8  C   UNL     1       3.141   3.815  17.274  0.00  0.00    +0.000 C 
BRANCH   8   9
ATOM      9  C   UNL     1       1.978   4.476  18.019  0.00  0.00    +0.000 C 
BRANCH   9  10
ATOM     10  C   UNL     1       0.837   3.476  18.242  0.00  0.00    +0.000 C 
BRANCH  10  11
ATOM     11  C   UNL     1       0.862   2.895  19.656  0.00  0.00    +0.000 C 
BRANCH  11  13
ATOM     12  C   UNL     1       2.072   3.353  21.816  0.00  0.00    +0.000 C 
ATOM     13  C   UNL     1       1.237   3.953  20.695  0.00  0.00    +0.000 C 
ENDBRANCH  11  13
ENDBRANCH  10  11
ENDBRANCH   9  10
ENDBRANCH   8   9
ENDBRANCH   7   8
ENDBRANCH   5   7
ENDBRANCH   4   5
ENDBRANCH   3   4
ENDBRANCH   1   3
BRANCH   1  14
ATOM     14  O   UNL     1       7.465   6.051  16.893  0.00  0.00    +0.000 OA
BRANCH  14  15
ATOM     15  C   UNL     1       6.675   5.811  15.803  0.00  0.00    +0.000 C 
ATOM     16  O   UNL     1       5.662   6.433  15.519  0.00  0.00    +0.000 OA
BRANCH  15  17
ATOM     17  C   UNL     1       7.220   4.687  14.949  0.00  0.00    +0.000 C 
BRANCH  17  18
ATOM     18  C   UNL     1       6.088   3.871  14.320  0.00  0.00    +0.000 C 
BRANCH  18  19
ATOM     19  C   UNL     1       6.262   3.675  12.813  0.00  0.00    +0.000 C 
BRANCH  19  20
ATOM     20  C   UNL     1       4.949   3.218  12.169  0.00  0.00    +0.000 C 
BRANCH  20  21
ATOM     21  C   UNL     1       5.201   2.246  11.017  0.00  0.00    +0.000 C 
BRANCH  21  22
ATOM     22  C   UNL     1       6.453   1.403  11.257  0.00  0.00    +0.000 C 
ATOM     23  C   UNL     1       6.116  -0.079  11.297  0.00  0.00    +0.000 C 
ENDBRANCH  21  22
ENDBRANCH  20  21
ENDBRANCH  19  20
ENDBRANCH  18  19
ENDBRANCH  17  18
ENDBRANCH  15  17
ENDBRANCH  14  15
ENDBRANCH   1  14
TORSDOF 17
ENDMDL
MODEL 6
REMARK VINA RESULT:      -5.7      1.360      7.400
REMARK  Name = 
REMARK  20 active torsions:
REMARK  status: ('A' for Active; 'I' for Inactive)
REMARK    1  A    between atoms: C_1  and  C_2
REMARK    2  A    between atoms: C_2  and  C_3
REMARK    3  A    between atoms: C_3  and  C_4
REMARK    4  A    between atoms: C_4  and  C_5
REMARK    5  A    between atoms: C_5  and  C_6
REMARK    6  A    between atoms: C_6  and  C_7
REMARK    7  A    between atoms: C_7  and  C_8
REMARK    8  A    between atoms: C_8  and  O_10
REMARK    9  A    between atoms: O_10  and  C_11
REMARK   10  A    between atoms: C_11  and  C_12
REMARK   11  A    between atoms: C_12  and  C_13
REMARK   12  A    between atoms: C_12  and  O_14
REMARK   13  A    between atoms: O_14  and  C_15
REMARK   14  A    between atoms: C_15  and  C_17
REMARK   15  A    between atoms: C_17  and  C_18
REMARK   16  A    between atoms: C_18  and  C_19
REMARK   17  A    between atoms: C_19  and  C_20
REMARK   18  A    between atoms: C_20  and  C_21
REMARK   19  A    between atoms: C_21  and  C_22
REMARK   20  A    between atoms: C_22  and  C_23
REMARK                            x       y       z     vdW  Elec       q    Type
REMARK                         _______ _______ _______ _____ _____    ______ ____
ROOT
ATOM      1  C   UNL     1       5.328   6.093  16.700  0.00  0.00    +0.000 C 
ATOM      2  C   UNL     1       4.842   7.082  15.641  0.00  0.00    +0.000 C 
ENDROOT
BRANCH   1   3
ATOM      3  C   UNL     1       6.825   5.814  16.511  0.00  0.00    +0.000 C 
BRANCH   3   4
ATOM      4  O   UNL     1       7.033   4.581  15.789  0.00  0.00    +0.000 OA
BRANCH   4   5
ATOM      5  C   UNL     1       7.167   4.731  14.442  0.00  0.00    +0.000 C 
ATOM      6  O   UNL     1       7.985   5.479  13.906  0.00  0.00    +0.000 OA
BRANCH   5   7
ATOM      7  C   UNL     1       6.161   3.885  13.693  0.00  0.00    +0.000 C 
BRANCH   7   8
ATOM      8  C   UNL     1       6.611   3.660  12.247  0.00  0.00    +0.000 C 
BRANCH   8   9
ATOM      9  C   UNL     1       5.479   3.821  11.228  0.00  0.00    +0.000 C 
BRANCH   9  10
ATOM     10  C   UNL     1       4.177   3.211  11.762  0.00  0.00    +0.000 C 
BRANCH  10  11
ATOM     11  C   UNL     1       3.135   3.042  10.655  0.00  0.00    +0.000 C 
BRANCH  11  13
ATOM     12  C   UNL     1       2.294   4.920   9.205  0.00  0.00    +0.000 C 
ATOM     13  C   UNL     1       3.434   3.945   9.457  0.00  0.00    +0.000 C 
ENDBRANCH  11  13
ENDBRANCH  10  11
ENDBRANCH   9  10
ENDBRANCH   8   9
ENDBRANCH   7   8
ENDBRANCH   5   7
ENDBRANCH   4   5
ENDBRANCH   3   4
ENDBRANCH   1   3
BRANCH   1  14
ATOM     14  O   UNL     1       4.588   4.856  16.584  0.00  0.00    +0.000 OA
BRANCH  14  15
ATOM     15  C   UNL     1       4.158   4.330  17.772  0.00  0.00    +0.000 C 
ATOM     16  O   UNL     1       4.711   4.488  18.850  0.00  0.00    +0.000 OA
BRANCH  15  17
ATOM     17  C   UNL     1       2.879   3.540  17.606  0.00  0.00    +0.000 C 
BRANCH  17  18
ATOM     18  C   UNL     1       3.075   2.078  18.016  0.00  0.00    +0.000 C 
BRANCH  18  19
ATOM     19  C   UNL     1       1.965   1.563  18.935  0.00  0.00    +0.000 C 
BRANCH  19  20
ATOM     20  C   UNL     1       0.896   2.639  19.152  0.00  0.00    +0.000 C 
BRANCH  20  21
ATOM     21  C   UNL     1       0.774   3.014  20.629  0.00  0.00    +0.000 C 
BRANCH  21  22
ATOM     22  C   UNL     1       2.105   3.505  21.196  0.00  0.00    +0.000 C 
ATOM     23  C   UNL     1       2.229   5.015  21.074  0.00  0.00    +0.000 C 
ENDBRANCH  21  22
ENDBRANCH  20  21
ENDBRANCH  19  20
ENDBRANCH  18  19
ENDBRANCH  17  18
ENDBRANCH  15  17
ENDBRANCH  14  15
ENDBRANCH   1  14
TORSDOF 17
ENDMDL
MODEL 7
REMARK VINA RESULT:      -5.6      1.481      7.474
REMARK  Name = 
REMARK  20 active torsions:
REMARK  status: ('A' for Active; 'I' for Inactive)
REMARK    1  A    between atoms: C_1  and  C_2
REMARK    2  A    between atoms: C_2  and  C_3
REMARK    3  A    between atoms: C_3  and  C_4
REMARK    4  A    between atoms: C_4  and  C_5
REMARK    5  A    between atoms: C_5  and  C_6
REMARK    6  A    between atoms: C_6  and  C_7
REMARK    7  A    between atoms: C_7  and  C_8
REMARK    8  A    between atoms: C_8  and  O_10
REMARK    9  A    between atoms: O_10  and  C_11
REMARK   10  A    between atoms: C_11  and  C_12
REMARK   11  A    between atoms: C_12  and  C_13
REMARK   12  A    between atoms: C_12  and  O_14
REMARK   13  A    between atoms: O_14  and  C_15
REMARK   14  A    between atoms: C_15  and  C_17
REMARK   15  A    between atoms: C_17  and  C_18
REMARK   16  A    between atoms: C_18  and  C_19
REMARK   17  A    between atoms: C_19  and  C_20
REMARK   18  A    between atoms: C_20  and  C_21
REMARK   19  A    between atoms: C_21  and  C_22
REMARK   20  A    between atoms: C_22  and  C_23
REMARK                            x       y       z     vdW  Elec       q    Type
REMARK                         _______ _______ _______ _____ _____    ______ ____
ROOT
ATOM      1  C   UNL     1       6.215   4.470  16.356  0.00  0.00    +0.000 C 
ATOM      2  C   UNL     1       6.829   4.627  17.746  0.00  0.00    +0.000 C 
ENDROOT
BRANCH   1   3
ATOM      3  C   UNL     1       7.280   4.717  15.280  0.00  0.00    +0.000 C 
BRANCH   3   4
ATOM      4  O   UNL     1       6.685   5.242  14.074  0.00  0.00    +0.000 OA
BRANCH   4   5
ATOM      5  C   UNL     1       7.442   5.079  12.954  0.00  0.00    +0.000 C 
ATOM      6  O   UNL     1       8.321   5.861  12.591  0.00  0.00    +0.000 OA
BRANCH   5   7
ATOM      7  C   UNL     1       7.042   3.830  12.197  0.00  0.00    +0.000 C 
BRANCH   7   8
ATOM      8  C   UNL     1       5.554   3.527  12.399  0.00  0.00    +0.000 C 
BRANCH   8   9
ATOM      9  C   UNL     1       5.024   2.442  11.457  0.00  0.00    +0.000 C 
BRANCH   9  10
ATOM     10  C   UNL     1       3.604   2.780  10.986  0.00  0.00    +0.000 C 
BRANCH  10  11
ATOM     11  C   UNL     1       3.512   4.206  10.444  0.00  0.00    +0.000 C 
BRANCH  11  13
ATOM     12  C   UNL     1       1.867   5.276   8.866  0.00  0.00    +0.000 C 
ATOM     13  C   UNL     1       2.965   4.233   9.015  0.00  0.00    +0.000 C 
ENDBRANCH  11  13
ENDBRANCH  10  11
ENDBRANCH   9  10
ENDBRANCH   8   9
ENDBRANCH   7   8
ENDBRANCH   5   7
ENDBRANCH   4   5
ENDBRANCH   3   4
ENDBRANCH   1   3
BRANCH   1  14
ATOM     14  O   UNL     1       5.136   5.420  16.193  0.00  0.00    +0.000 OA
BRANCH  14  15
ATOM     15  C   UNL     1       5.264   6.566  16.929  0.00  0.00    +0.000 C 
ATOM     16  O   UNL     1       6.274   7.251  16.991  0.00  0.00    +0.000 OA
BRANCH  15  17
ATOM     17  C   UNL     1       3.980   6.919  17.648  0.00  0.00    +0.000 C 
BRANCH  17  18
ATOM     18  C   UNL     1       3.493   5.754  18.513  0.00  0.00    +0.000 C 
BRANCH  18  19
ATOM     19  C   UNL     1       2.588   4.785  17.751  0.00  0.00    +0.000 C 
BRANCH  19  20
ATOM     20  C   UNL     1       2.311   3.529  18.584  0.00  0.00    +0.000 C 
BRANCH  20  21
ATOM     21  C   UNL     1       1.005   3.655  19.367  0.00  0.00    +0.000 C 
BRANCH  21  22
ATOM     22  C   UNL     1       1.261   3.885  20.856  0.00  0.00    +0.000 C 
ATOM     23  C   UNL     1       1.688   2.597  21.543  0.00  0.00    +0.000 C 
ENDBRANCH  21  22
ENDBRANCH  20  21
ENDBRANCH  19  20
ENDBRANCH  18  19
ENDBRANCH  17  18
ENDBRANCH  15  17
ENDBRANCH  14  15
ENDBRANCH   1  14
TORSDOF 17
ENDMDL
MODEL 8
REMARK VINA RESULT:      -5.5      1.882      7.061
REMARK  Name = 
REMARK  20 active torsions:
REMARK  status: ('A' for Active; 'I' for Inactive)
REMARK    1  A    between atoms: C_1  and  C_2
REMARK    2  A    between atoms: C_2  and  C_3
REMARK    3  A    between atoms: C_3  and  C_4
REMARK    4  A    between atoms: C_4  and  C_5
REMARK    5  A    between atoms: C_5  and  C_6
REMARK    6  A    between atoms: C_6  and  C_7
REMARK    7  A    between atoms: C_7  and  C_8
REMARK    8  A    between atoms: C_8  and  O_10
REMARK    9  A    between atoms: O_10  and  C_11
REMARK   10  A    between atoms: C_11  and  C_12
REMARK   11  A    between atoms: C_12  and  C_13
REMARK   12  A    between atoms: C_12  and  O_14
REMARK   13  A    between atoms: O_14  and  C_15
REMARK   14  A    between atoms: C_15  and  C_17
REMARK   15  A    between atoms: C_17  and  C_18
REMARK   16  A    between atoms: C_18  and  C_19
REMARK   17  A    between atoms: C_19  and  C_20
REMARK   18  A    between atoms: C_20  and  C_21
REMARK   19  A    between atoms: C_21  and  C_22
REMARK   20  A    between atoms: C_22  and  C_23
REMARK                            x       y       z     vdW  Elec       q    Type
REMARK                         _______ _______ _______ _____ _____    ______ ____
ROOT
ATOM      1  C   UNL     1       4.657   6.734  17.794  0.00  0.00    +0.000 C 
ATOM      2  C   UNL     1       4.601   7.218  16.346  0.00  0.00    +0.000 C 
ENDROOT
BRANCH   1   3
ATOM      3  C   UNL     1       5.891   5.849  18.005  0.00  0.00    +0.000 C 
BRANCH   3   4
ATOM      4  O   UNL     1       5.990   4.844  16.972  0.00  0.00    +0.000 OA
BRANCH   4   5
ATOM      5  C   UNL     1       7.257   4.611  16.530  0.00  0.00    +0.000 C 
ATOM      6  O   UNL     1       8.175   4.205  17.243  0.00  0.00    +0.000 OA
BRANCH   5   7
ATOM      7  C   UNL     1       7.395   4.943  15.060  0.00  0.00    +0.000 C 
BRANCH   7   8
ATOM      8  C   UNL     1       6.058   4.768  14.336  0.00  0.00    +0.000 C 
BRANCH   8   9
ATOM      9  C   UNL     1       5.919   3.412  13.639  0.00  0.00    +0.000 C 
BRANCH   9  10
ATOM     10  C   UNL     1       5.979   3.576  12.115  0.00  0.00    +0.000 C 
BRANCH  10  11
ATOM     11  C   UNL     1       5.115   2.538  11.399  0.00  0.00    +0.000 C 
BRANCH  11  13
ATOM     12  C   UNL     1       3.494   3.869  10.007  0.00  0.00    +0.000 C 
ATOM     13  C   UNL     1       3.668   3.013  11.252  0.00  0.00    +0.000 C 
ENDBRANCH  11  13
ENDBRANCH  10  11
ENDBRANCH   9  10
ENDBRANCH   8   9
ENDBRANCH   7   8
ENDBRANCH   5   7
ENDBRANCH   4   5
ENDBRANCH   3   4
ENDBRANCH   1   3
BRANCH   1  14
ATOM     14  O   UNL     1       3.463   5.977  18.098  0.00  0.00    +0.000 OA
BRANCH  14  15
ATOM     15  C   UNL     1       2.438   6.710  18.631  0.00  0.00    +0.000 C 
ATOM     16  O   UNL     1       1.656   7.393  17.988  0.00  0.00    +0.000 OA
BRANCH  15  17
ATOM     17  C   UNL     1       2.357   6.553  20.134  0.00  0.00    +0.000 C 
BRANCH  17  18
ATOM     18  C   UNL     1       2.298   5.077  20.534  0.00  0.00    +0.000 C 
BRANCH  18  19
ATOM     19  C   UNL     1       0.904   4.469  20.361  0.00  0.00    +0.000 C 
BRANCH  19  20
ATOM     20  C   UNL     1       0.994   2.958  20.130  0.00  0.00    +0.000 C 
BRANCH  20  21
ATOM     21  C   UNL     1       1.366   2.635  18.683  0.00  0.00    +0.000 C 
BRANCH  21  22
ATOM     22  C   UNL     1       2.695   1.886  18.598  0.00  0.00    +0.000 C 
ATOM     23  C   UNL     1       3.699   2.646  17.746  0.00  0.00    +0.000 C 
ENDBRANCH  21  22
ENDBRANCH  20  21
ENDBRANCH  19  20
ENDBRANCH  18  19
ENDBRANCH  17  18
ENDBRANCH  15  17
ENDBRANCH  14  15
ENDBRANCH   1  14
TORSDOF 17
ENDMDL
MODEL 9
REMARK VINA RESULT:      -5.5      1.499      2.213
REMARK  Name = 
REMARK  20 active torsions:
REMARK  status: ('A' for Active; 'I' for Inactive)
REMARK    1  A    between atoms: C_1  and  C_2
REMARK    2  A    between atoms: C_2  and  C_3
REMARK    3  A    between atoms: C_3  and  C_4
REMARK    4  A    between atoms: C_4  and  C_5
REMARK    5  A    between atoms: C_5  and  C_6
REMARK    6  A    between atoms: C_6  and  C_7
REMARK    7  A    between atoms: C_7  and  C_8
REMARK    8  A    between atoms: C_8  and  O_10
REMARK    9  A    between atoms: O_10  and  C_11
REMARK   10  A    between atoms: C_11  and  C_12
REMARK   11  A    between atoms: C_12  and  C_13
REMARK   12  A    between atoms: C_12  and  O_14
REMARK   13  A    between atoms: O_14  and  C_15
REMARK   14  A    between atoms: C_15  and  C_17
REMARK   15  A    between atoms: C_17  and  C_18
REMARK   16  A    between atoms: C_18  and  C_19
REMARK   17  A    between atoms: C_19  and  C_20
REMARK   18  A    between atoms: C_20  and  C_21
REMARK   19  A    between atoms: C_21  and  C_22
REMARK   20  A    between atoms: C_22  and  C_23
REMARK                            x       y       z     vdW  Elec       q    Type
REMARK                         _______ _______ _______ _____ _____    ______ ____
ROOT
ATOM      1  C   UNL     1       6.636   5.813  18.683  0.00  0.00    +0.000 C 
ATOM      2  C   UNL     1       7.952   5.684  19.449  0.00  0.00    +0.000 C 
ENDROOT
BRANCH   1   3
ATOM      3  C   UNL     1       5.935   4.450  18.609  0.00  0.00    +0.000 C 
BRANCH   3   4
ATOM      4  O   UNL     1       4.691   4.467  19.342  0.00  0.00    +0.000 OA
BRANCH   4   5
ATOM      5  C   UNL     1       3.766   5.344  18.863  0.00  0.00    +0.000 C 
ATOM      6  O   UNL     1       3.363   6.331  19.480  0.00  0.00    +0.000 OA
BRANCH   5   7
ATOM      7  C   UNL     1       3.276   4.932  17.492  0.00  0.00    +0.000 C 
BRANCH   7   8
ATOM      8  C   UNL     1       2.616   3.552  17.544  0.00  0.00    +0.000 C 
BRANCH   8   9
ATOM      9  C   UNL     1       1.168   3.590  18.038  0.00  0.00    +0.000 C 
BRANCH   9  10
ATOM     10  C   UNL     1       1.042   2.908  19.406  0.00  0.00    +0.000 C 
BRANCH  10  11
ATOM     11  C   UNL     1       0.949   3.927  20.541  0.00  0.00    +0.000 C 
BRANCH  11  13
ATOM     12  C   UNL     1       2.798   2.406  21.319  0.00  0.00    +0.000 C 
ATOM     13  C   UNL     1       1.982   3.651  21.634  0.00  0.00    +0.000 C 
ENDBRANCH  11  13
ENDBRANCH  10  11
ENDBRANCH   9  10
ENDBRANCH   8   9
ENDBRANCH   7   8
ENDBRANCH   5   7
ENDBRANCH   4   5
ENDBRANCH   3   4
ENDBRANCH   1   3
BRANCH   1  14
ATOM     14  O   UNL     1       6.899   6.294  17.345  0.00  0.00    +0.000 OA
BRANCH  14  15
ATOM     15  C   UNL     1       7.110   5.314  16.414  0.00  0.00    +0.000 C 
ATOM     16  O   UNL     1       7.933   4.417  16.514  0.00  0.00    +0.000 OA
BRANCH  15  17
ATOM     17  C   UNL     1       6.172   5.447  15.234  0.00  0.00    +0.000 C 
BRANCH  17  18
ATOM     18  C   UNL     1       6.697   4.676  14.020  0.00  0.00    +0.000 C 
BRANCH  18  19
ATOM     19  C   UNL     1       5.840   3.457  13.674  0.00  0.00    +0.000 C 
BRANCH  19  20
ATOM     20  C   UNL     1       4.846   3.791  12.557  0.00  0.00    +0.000 C 
BRANCH  20  21
ATOM     21  C   UNL     1       4.986   2.829  11.378  0.00  0.00    +0.000 C 
BRANCH  21  22
ATOM     22  C   UNL     1       5.980   1.708  11.682  0.00  0.00    +0.000 C 
ATOM     23  C   UNL     1       7.236   1.845  10.837  0.00  0.00    +0.000 C 
ENDBRANCH  21  22
ENDBRANCH  20  21
ENDBRANCH  19  20
ENDBRANCH  18  19
ENDBRANCH  17  18
ENDBRANCH  15  17
ENDBRANCH  14  15
ENDBRANCH   1  14
TORSDOF 17
ENDMDL
