MODEL 1
REMARK VINA RESULT:      -7.8      0.000      0.000
REMARK  Name = 
REMARK  7 active torsions:
REMARK  status: ('A' for Active; 'I' for Inactive)
REMARK    1  A    between atoms: C_1  and  O_2
REMARK    2  A    between atoms: O_2  and  C_3
REMARK    3  A    between atoms: C_3  and  C_4
REMARK    4  A    between atoms: C_4  and  N_5
REMARK    5  A    between atoms: N_5  and  C_6
REMARK    6  A    between atoms: C_8  and  C_9
REMARK    7  A    between atoms: N_25  and  C_26
REMARK                            x       y       z     vdW  Elec       q    Type
REMARK                         _______ _______ _______ _____ _____    ______ ____
ROOT
ATOM      1  C   UNL     1       2.937   5.707  19.527  0.00  0.00    +0.000 A 
ATOM      2  N   UNL     1       2.185   6.762  19.949  0.00  0.00    +0.000 NA
ATOM      3  C   UNL     1       2.161   7.908  19.222  0.00  0.00    +0.000 A 
ATOM      4  C   UNL     1       2.901   8.037  18.058  0.00  0.00    +0.000 A 
ATOM      5  C   UNL     1       3.677   6.968  17.614  0.00  0.00    +0.000 A 
ATOM      6  N   UNL     1       4.403   7.133  16.427  0.00  0.00    +0.000 NA
ATOM      7  C   UNL     1       5.112   6.137  16.015  0.00  0.00    +0.000 A 
ATOM      8  N   UNL     1       5.200   4.928  16.650  0.00  0.00    +0.000 N 
ATOM      9  C   UNL     1       5.990   3.850  16.084  0.00  0.00    +0.000 C 
ATOM     10  C   UNL     1       4.508   4.674  17.829  0.00  0.00    +0.000 A 
ATOM     11  O   UNL     1       4.532   3.585  18.390  0.00  0.00    +0.000 OA
ATOM     12  C   UNL     1       3.701   5.794  18.360  0.00  0.00    +0.000 A 
ENDROOT
BRANCH   3  13
ATOM     13  C   UNL     1       1.313   8.986  19.742  0.00  0.00    +0.000 A 
ATOM     14  C   UNL     1       1.067   9.183  21.084  0.00  0.00    +0.000 A 
ATOM     15  N   UNL     1       0.297  10.170  21.594  0.00  0.00    +0.000 NA
ATOM     16  C   UNL     1      -0.295  11.013  20.738  0.00  0.00    +0.000 A 
ATOM     17  N   UNL     1      -1.102  11.997  21.231  0.00  0.00    +0.000 N 
ATOM     18  C   UNL     1      -1.300  12.187  22.665  0.00  0.00    +0.000 C 
ATOM     19  C   UNL     1      -2.801  12.155  22.994  0.00  0.00    +0.000 C 
ATOM     20  O   UNL     1      -3.547  13.074  22.174  0.00  0.00    +0.000 OA
ATOM     21  C   UNL     1      -3.378  12.749  20.781  0.00  0.00    +0.000 C 
ATOM     22  C   UNL     1      -1.904  12.839  20.355  0.00  0.00    +0.000 C 
ATOM     23  N   UNL     1      -0.123  10.909  19.411  0.00  0.00    +0.000 NA
ATOM     24  C   UNL     1       0.678   9.923  18.951  0.00  0.00    +0.000 A 
ENDBRANCH   3  13
BRANCH   1  25
ATOM     25  N   UNL     1       2.989   4.562  20.345  0.00  0.00    +0.000 N 
ATOM     26  H   UNL     1       3.448   3.797  19.831  0.00  0.00    +0.000 HD
BRANCH  25  27
ATOM     27  C   UNL     1       1.696   4.105  20.862  0.00  0.00    +0.000 C 
BRANCH  27  28
ATOM     28  C   UNL     1       1.645   2.575  20.971  0.00  0.00    +0.000 C 
BRANCH  28  30
ATOM     29  C   UNL     1       0.769   2.431  18.793  0.00  0.00    +0.000 C 
ATOM     30  O   UNL     1       1.787   1.975  19.678  0.00  0.00    +0.000 OA
ENDBRANCH  28  30
ENDBRANCH  27  28
ENDBRANCH  25  27
ENDBRANCH   1  25
TORSDOF 5
ENDMDL
MODEL 2
REMARK VINA RESULT:      -7.7      0.619      1.445
REMARK  Name = 
REMARK  7 active torsions:
REMARK  status: ('A' for Active; 'I' for Inactive)
REMARK    1  A    between atoms: C_1  and  O_2
REMARK    2  A    between atoms: O_2  and  C_3
REMARK    3  A    between atoms: C_3  and  C_4
REMARK    4  A    between atoms: C_4  and  N_5
REMARK    5  A    between atoms: N_5  and  C_6
REMARK    6  A    between atoms: C_8  and  C_9
REMARK    7  A    between atoms: N_25  and  C_26
REMARK                            x       y       z     vdW  Elec       q    Type
REMARK                         _______ _______ _______ _____ _____    ______ ____
ROOT
ATOM      1  C   UNL     1       3.081   5.596  19.411  0.00  0.00    +0.000 A 
ATOM      2  N   UNL     1       2.277   6.606  19.846  0.00  0.00    +0.000 NA
ATOM      3  C   UNL     1       2.201   7.762  19.140  0.00  0.00    +0.000 A 
ATOM      4  C   UNL     1       2.941   7.948  17.984  0.00  0.00    +0.000 A 
ATOM      5  C   UNL     1       3.770   6.926  17.526  0.00  0.00    +0.000 A 
ATOM      6  N   UNL     1       4.494   7.148  16.346  0.00  0.00    +0.000 NA
ATOM      7  C   UNL     1       5.252   6.194  15.922  0.00  0.00    +0.000 A 
ATOM      8  N   UNL     1       5.395   4.980  16.535  0.00  0.00    +0.000 N 
ATOM      9  C   UNL     1       6.239   3.952  15.955  0.00  0.00    +0.000 C 
ATOM     10  C   UNL     1       4.709   4.671  17.705  0.00  0.00    +0.000 A 
ATOM     11  O   UNL     1       4.782   3.574  18.246  0.00  0.00    +0.000 OA
ATOM     12  C   UNL     1       3.846   5.741  18.251  0.00  0.00    +0.000 A 
ENDROOT
BRANCH   3  13
ATOM     13  C   UNL     1       1.300   8.789  19.674  0.00  0.00    +0.000 A 
ATOM     14  C   UNL     1       0.764   9.804  18.912  0.00  0.00    +0.000 A 
ATOM     15  N   UNL     1      -0.074  10.761  19.373  0.00  0.00    +0.000 NA
ATOM     16  C   UNL     1      -0.395  10.743  20.673  0.00  0.00    +0.000 A 
ATOM     17  N   UNL     1      -1.214  11.718  21.164  0.00  0.00    +0.000 N 
ATOM     18  C   UNL     1      -1.788  12.750  20.306  0.00  0.00    +0.000 C 
ATOM     19  C   UNL     1      -1.438  14.141  20.857  0.00  0.00    +0.000 C 
ATOM     20  O   UNL     1      -1.795  14.271  22.246  0.00  0.00    +0.000 OA
ATOM     21  C   UNL     1      -1.105  13.282  23.033  0.00  0.00    +0.000 C 
ATOM     22  C   UNL     1      -1.468  11.855  22.592  0.00  0.00    +0.000 C 
ATOM     23  N   UNL     1       0.074   9.798  21.504  0.00  0.00    +0.000 NA
ATOM     24  C   UNL     1       0.886   8.849  20.991  0.00  0.00    +0.000 A 
ENDBRANCH   3  13
BRANCH   1  25
ATOM     25  N   UNL     1       3.183   4.440  20.208  0.00  0.00    +0.000 N 
ATOM     26  H   UNL     1       3.286   3.615  19.600  0.00  0.00    +0.000 HD
BRANCH  25  27
ATOM     27  C   UNL     1       2.077   4.229  21.146  0.00  0.00    +0.000 C 
BRANCH  27  28
ATOM     28  C   UNL     1       1.474   2.826  20.996  0.00  0.00    +0.000 C 
BRANCH  28  30
ATOM     29  C   UNL     1       0.820   2.373  18.783  0.00  0.00    +0.000 C 
ATOM     30  O   UNL     1       1.861   2.245  19.745  0.00  0.00    +0.000 OA
ENDBRANCH  28  30
ENDBRANCH  27  28
ENDBRANCH  25  27
ENDBRANCH   1  25
TORSDOF 5
ENDMDL
MODEL 3
REMARK VINA RESULT:      -7.5      2.568      9.211
REMARK  Name = 
REMARK  7 active torsions:
REMARK  status: ('A' for Active; 'I' for Inactive)
REMARK    1  A    between atoms: C_1  and  O_2
REMARK    2  A    between atoms: O_2  and  C_3
REMARK    3  A    between atoms: C_3  and  C_4
REMARK    4  A    between atoms: C_4  and  N_5
REMARK    5  A    between atoms: N_5  and  C_6
REMARK    6  A    between atoms: C_8  and  C_9
REMARK    7  A    between atoms: N_25  and  C_26
REMARK                            x       y       z     vdW  Elec       q    Type
REMARK                         _______ _______ _______ _____ _____    ______ ____
ROOT
ATOM      1  C   UNL     1      -1.402  11.386  19.118  0.00  0.00    +0.000 A 
ATOM      2  N   UNL     1      -0.466  10.478  18.723  0.00  0.00    +0.000 NA
ATOM      3  C   UNL     1       0.429   9.994  19.621  0.00  0.00    +0.000 A 
ATOM      4  C   UNL     1       0.423  10.418  20.940  0.00  0.00    +0.000 A 
ATOM      5  C   UNL     1      -0.526  11.348  21.360  0.00  0.00    +0.000 A 
ATOM      6  N   UNL     1      -0.506  11.744  22.705  0.00  0.00    +0.000 NA
ATOM      7  C   UNL     1      -1.393  12.597  23.090  0.00  0.00    +0.000 A 
ATOM      8  N   UNL     1      -2.356  13.139  22.283  0.00  0.00    +0.000 N 
ATOM      9  C   UNL     1      -3.341  14.060  22.820  0.00  0.00    +0.000 C 
ATOM     10  C   UNL     1      -2.455  12.798  20.939  0.00  0.00    +0.000 A 
ATOM     11  O   UNL     1      -3.337  13.231  20.208  0.00  0.00    +0.000 OA
ATOM     12  C   UNL     1      -1.442  11.842  20.438  0.00  0.00    +0.000 A 
ENDROOT
BRANCH   3  13
ATOM     13  C   UNL     1       1.390   9.010  19.113  0.00  0.00    +0.000 A 
ATOM     14  C   UNL     1       1.773   7.886  19.813  0.00  0.00    +0.000 A 
ATOM     15  N   UNL     1       2.651   6.958  19.369  0.00  0.00    +0.000 NA
ATOM     16  C   UNL     1       3.214   7.148  18.168  0.00  0.00    +0.000 A 
ATOM     17  N   UNL     1       4.126   6.239  17.716  0.00  0.00    +0.000 N 
ATOM     18  C   UNL     1       4.469   5.043  18.479  0.00  0.00    +0.000 C 
ATOM     19  C   UNL     1       5.989   4.983  18.700  0.00  0.00    +0.000 C 
ATOM     20  O   UNL     1       6.714   5.114  17.463  0.00  0.00    +0.000 OA
ATOM     21  C   UNL     1       6.395   6.367  16.829  0.00  0.00    +0.000 C 
ATOM     22  C   UNL     1       4.897   6.468  16.502  0.00  0.00    +0.000 C 
ATOM     23  N   UNL     1       2.911   8.210  17.406  0.00  0.00    +0.000 NA
ATOM     24  C   UNL     1       2.009   9.096  17.881  0.00  0.00    +0.000 A 
ENDBRANCH   3  13
BRANCH   1  25
ATOM     25  N   UNL     1      -2.267  11.913  18.140  0.00  0.00    +0.000 N 
ATOM     26  H   UNL     1      -2.820  12.678  18.552  0.00  0.00    +0.000 HD
BRANCH  25  27
ATOM     27  C   UNL     1      -3.162  10.939  17.508  0.00  0.00    +0.000 C 
BRANCH  27  28
ATOM     28  C   UNL     1      -3.326  11.222  16.008  0.00  0.00    +0.000 C 
BRANCH  28  30
ATOM     29  C   UNL     1      -3.420  10.009  13.996  0.00  0.00    +0.000 C 
ATOM     30  O   UNL     1      -2.733  10.175  15.232  0.00  0.00    +0.000 OA
ENDBRANCH  28  30
ENDBRANCH  27  28
ENDBRANCH  25  27
ENDBRANCH   1  25
TORSDOF 5
ENDMDL
MODEL 4
REMARK VINA RESULT:      -7.5      2.283      9.238
REMARK  Name = 
REMARK  7 active torsions:
REMARK  status: ('A' for Active; 'I' for Inactive)
REMARK    1  A    between atoms: C_1  and  O_2
REMARK    2  A    between atoms: O_2  and  C_3
REMARK    3  A    between atoms: C_3  and  C_4
REMARK    4  A    between atoms: C_4  and  N_5
REMARK    5  A    between atoms: N_5  and  C_6
REMARK    6  A    between atoms: C_8  and  C_9
REMARK    7  A    between atoms: N_25  and  C_26
REMARK                            x       y       z     vdW  Elec       q    Type
REMARK                         _______ _______ _______ _____ _____    ______ ____
ROOT
ATOM      1  C   UNL     1      -0.762  10.941  18.991  0.00  0.00    +0.000 A 
ATOM      2  N   UNL     1       0.174  10.016  18.635  0.00  0.00    +0.000 NA
ATOM      3  C   UNL     1       0.916   9.402  19.591  0.00  0.00    +0.000 A 
ATOM      4  C   UNL     1       0.755   9.707  20.932  0.00  0.00    +0.000 A 
ATOM      5  C   UNL     1      -0.196  10.653  21.314  0.00  0.00    +0.000 A 
ATOM      6  N   UNL     1      -0.336  10.927  22.681  0.00  0.00    +0.000 NA
ATOM      7  C   UNL     1      -1.224  11.796  23.029  0.00  0.00    +0.000 A 
ATOM      8  N   UNL     1      -2.044  12.463  22.160  0.00  0.00    +0.000 N 
ATOM      9  C   UNL     1      -3.045  13.392  22.652  0.00  0.00    +0.000 C 
ATOM     10  C   UNL     1      -1.978  12.248  20.788  0.00  0.00    +0.000 A 
ATOM     11  O   UNL     1      -2.733  12.797  19.995  0.00  0.00    +0.000 OA
ATOM     12  C   UNL     1      -0.956  11.281  20.333  0.00  0.00    +0.000 A 
ENDROOT
BRANCH   3  13
ATOM     13  C   UNL     1       1.887   8.410  19.118  0.00  0.00    +0.000 A 
ATOM     14  C   UNL     1       2.629   8.558  17.966  0.00  0.00    +0.000 A 
ATOM     15  N   UNL     1       3.536   7.665  17.508  0.00  0.00    +0.000 NA
ATOM     16  C   UNL     1       3.718   6.537  18.208  0.00  0.00    +0.000 A 
ATOM     17  N   UNL     1       4.606   5.610  17.746  0.00  0.00    +0.000 N 
ATOM     18  C   UNL     1       5.397   5.831  16.539  0.00  0.00    +0.000 C 
ATOM     19  C   UNL     1       5.182   4.671  15.553  0.00  0.00    +0.000 C 
ATOM     20  O   UNL     1       5.411   3.393  16.176  0.00  0.00    +0.000 OA
ATOM     21  C   UNL     1       4.518   3.215  17.292  0.00  0.00    +0.000 C 
ATOM     22  C   UNL     1       4.730   4.296  18.362  0.00  0.00    +0.000 C 
ATOM     23  N   UNL     1       3.045   6.294  19.344  0.00  0.00    +0.000 NA
ATOM     24  C   UNL     1       2.170   7.228  19.775  0.00  0.00    +0.000 A 
ENDBRANCH   3  13
BRANCH   1  25
ATOM     25  N   UNL     1      -1.462  11.603  17.966  0.00  0.00    +0.000 N 
ATOM     26  H   UNL     1      -2.132  12.265  18.383  0.00  0.00    +0.000 HD
BRANCH  25  27
ATOM     27  C   UNL     1      -2.157  10.727  17.017  0.00  0.00    +0.000 C 
BRANCH  27  28
ATOM     28  C   UNL     1      -3.664  11.015  16.990  0.00  0.00    +0.000 C 
BRANCH  28  30
ATOM     29  C   UNL     1      -3.194  10.294  14.801  0.00  0.00    +0.000 C 
ATOM     30  O   UNL     1      -4.187  10.831  15.670  0.00  0.00    +0.000 OA
ENDBRANCH  28  30
ENDBRANCH  27  28
ENDBRANCH  25  27
ENDBRANCH   1  25
TORSDOF 5
ENDMDL
MODEL 5
REMARK VINA RESULT:      -7.5      2.224      9.299
REMARK  Name = 
REMARK  7 active torsions:
REMARK  status: ('A' for Active; 'I' for Inactive)
REMARK    1  A    between atoms: C_1  and  O_2
REMARK    2  A    between atoms: O_2  and  C_3
REMARK    3  A    between atoms: C_3  and  C_4
REMARK    4  A    between atoms: C_4  and  N_5
REMARK    5  A    between atoms: N_5  and  C_6
REMARK    6  A    between atoms: C_8  and  C_9
REMARK    7  A    between atoms: N_25  and  C_26
REMARK                            x       y       z     vdW  Elec       q    Type
REMARK                         _______ _______ _______ _____ _____    ______ ____
ROOT
ATOM      1  C   UNL     1      -0.774  11.165  18.980  0.00  0.00    +0.000 A 
ATOM      2  N   UNL     1       0.134  10.230  18.581  0.00  0.00    +0.000 NA
ATOM      3  C   UNL     1       0.852   9.547  19.508  0.00  0.00    +0.000 A 
ATOM      4  C   UNL     1       0.695   9.790  20.862  0.00  0.00    +0.000 A 
ATOM      5  C   UNL     1      -0.229  10.745  21.287  0.00  0.00    +0.000 A 
ATOM      6  N   UNL     1      -0.367  10.955  22.666  0.00  0.00    +0.000 NA
ATOM      7  C   UNL     1      -1.229  11.833  23.053  0.00  0.00    +0.000 A 
ATOM      8  N   UNL     1      -2.024  12.567  22.216  0.00  0.00    +0.000 N 
ATOM      9  C   UNL     1      -2.998  13.501  22.750  0.00  0.00    +0.000 C 
ATOM     10  C   UNL     1      -1.958  12.419  20.835  0.00  0.00    +0.000 A 
ATOM     11  O   UNL     1      -2.692  13.029  20.067  0.00  0.00    +0.000 OA
ATOM     12  C   UNL     1      -0.964  11.444  20.336  0.00  0.00    +0.000 A 
ENDROOT
BRANCH   3  13
ATOM     13  C   UNL     1       1.795   8.550  18.990  0.00  0.00    +0.000 A 
ATOM     14  C   UNL     1       2.190   7.435  19.697  0.00  0.00    +0.000 A 
ATOM     15  N   UNL     1       3.052   6.495  19.245  0.00  0.00    +0.000 NA
ATOM     16  C   UNL     1       3.585   6.663  18.027  0.00  0.00    +0.000 A 
ATOM     17  N   UNL     1       4.480   5.743  17.566  0.00  0.00    +0.000 N 
ATOM     18  C   UNL     1       4.837   4.557  18.339  0.00  0.00    +0.000 C 
ATOM     19  C   UNL     1       6.362   4.492  18.522  0.00  0.00    +0.000 C 
ATOM     20  O   UNL     1       7.055   4.600  17.264  0.00  0.00    +0.000 OA
ATOM     21  C   UNL     1       6.725   5.845  16.619  0.00  0.00    +0.000 C 
ATOM     22  C   UNL     1       5.220   5.949  16.329  0.00  0.00    +0.000 C 
ATOM     23  N   UNL     1       3.268   7.715  17.257  0.00  0.00    +0.000 NA
ATOM     24  C   UNL     1       2.382   8.613  17.741  0.00  0.00    +0.000 A 
ENDBRANCH   3  13
BRANCH   1  25
ATOM     25  N   UNL     1      -1.449  11.899  17.986  0.00  0.00    +0.000 N 
ATOM     26  H   UNL     1      -2.054  12.601  18.433  0.00  0.00    +0.000 HD
BRANCH  25  27
ATOM     27  C   UNL     1      -2.234  11.097  17.043  0.00  0.00    +0.000 C 
BRANCH  27  28
ATOM     28  C   UNL     1      -3.696  10.976  17.493  0.00  0.00    +0.000 C 
BRANCH  28  30
ATOM     29  C   UNL     1      -5.674  12.232  17.288  0.00  0.00    +0.000 C 
ATOM     30  O   UNL     1      -4.559  11.683  16.594  0.00  0.00    +0.000 OA
ENDBRANCH  28  30
ENDBRANCH  27  28
ENDBRANCH  25  27
ENDBRANCH   1  25
TORSDOF 5
ENDMDL
MODEL 6
REMARK VINA RESULT:      -7.5      1.964      4.094
REMARK  Name = 
REMARK  7 active torsions:
REMARK  status: ('A' for Active; 'I' for Inactive)
REMARK    1  A    between atoms: C_1  and  O_2
REMARK    2  A    between atoms: O_2  and  C_3
REMARK    3  A    between atoms: C_3  and  C_4
REMARK    4  A    between atoms: C_4  and  N_5
REMARK    5  A    between atoms: N_5  and  C_6
REMARK    6  A    between atoms: C_8  and  C_9
REMARK    7  A    between atoms: N_25  and  C_26
REMARK                            x       y       z     vdW  Elec       q    Type
REMARK                         _______ _______ _______ _____ _____    ______ ____
ROOT
ATOM      1  C   UNL     1       3.602   6.241  18.231  0.00  0.00    +0.000 A 
ATOM      2  N   UNL     1       2.951   7.431  18.373  0.00  0.00    +0.000 NA
ATOM      3  C   UNL     1       2.084   7.608  19.401  0.00  0.00    +0.000 A 
ATOM      4  C   UNL     1       1.830   6.595  20.310  0.00  0.00    +0.000 A 
ATOM      5  C   UNL     1       2.485   5.371  20.178  0.00  0.00    +0.000 A 
ATOM      6  N   UNL     1       2.209   4.374  21.124  0.00  0.00    +0.000 NA
ATOM      7  C   UNL     1       2.826   3.248  21.002  0.00  0.00    +0.000 A 
ATOM      8  N   UNL     1       3.735   2.959  20.021  0.00  0.00    +0.000 N 
ATOM      9  C   UNL     1       4.411   1.675  19.994  0.00  0.00    +0.000 C 
ATOM     10  C   UNL     1       4.074   3.890  19.046  0.00  0.00    +0.000 A 
ATOM     11  O   UNL     1       4.919   3.672  18.187  0.00  0.00    +0.000 OA
ATOM     12  C   UNL     1       3.374   5.191  19.124  0.00  0.00    +0.000 A 
ENDROOT
BRANCH   3  13
ATOM     13  C   UNL     1       1.441   8.924  19.485  0.00  0.00    +0.000 A 
ATOM     14  C   UNL     1       1.404   9.823  18.442  0.00  0.00    +0.000 A 
ATOM     15  N   UNL     1       0.814  11.039  18.487  0.00  0.00    +0.000 NA
ATOM     16  C   UNL     1       0.239  11.418  19.635  0.00  0.00    +0.000 A 
ATOM     17  N   UNL     1      -0.334  12.654  19.711  0.00  0.00    +0.000 N 
ATOM     18  C   UNL     1      -0.381  13.555  18.563  0.00  0.00    +0.000 C 
ATOM     19  C   UNL     1       0.246  14.908  18.936  0.00  0.00    +0.000 C 
ATOM     20  O   UNL     1      -0.338  15.455  20.133  0.00  0.00    +0.000 OA
ATOM     21  C   UNL     1      -0.155  14.549  21.236  0.00  0.00    +0.000 C 
ATOM     22  C   UNL     1      -0.827  13.193  20.970  0.00  0.00    +0.000 C 
ATOM     23  N   UNL     1       0.220  10.618  20.714  0.00  0.00    +0.000 NA
ATOM     24  C   UNL     1       0.799   9.402  20.611  0.00  0.00    +0.000 A 
ENDBRANCH   3  13
BRANCH   1  25
ATOM     25  N   UNL     1       4.440   6.075  17.112  0.00  0.00    +0.000 N 
ATOM     26  H   UNL     1       4.731   5.089  17.048  0.00  0.00    +0.000 HD
BRANCH  25  27
ATOM     27  C   UNL     1       5.621   6.943  17.082  0.00  0.00    +0.000 C 
BRANCH  27  28
ATOM     28  C   UNL     1       6.918   6.123  17.073  0.00  0.00    +0.000 C 
BRANCH  28  30
ATOM     29  C   UNL     1       7.024   4.685  15.215  0.00  0.00    +0.000 C 
ATOM     30  O   UNL     1       7.398   5.957  15.733  0.00  0.00    +0.000 OA
ENDBRANCH  28  30
ENDBRANCH  27  28
ENDBRANCH  25  27
ENDBRANCH   1  25
TORSDOF 5
ENDMDL
MODEL 7
REMARK VINA RESULT:      -7.4      1.540      3.578
REMARK  Name = 
REMARK  7 active torsions:
REMARK  status: ('A' for Active; 'I' for Inactive)
REMARK    1  A    between atoms: C_1  and  O_2
REMARK    2  A    between atoms: O_2  and  C_3
REMARK    3  A    between atoms: C_3  and  C_4
REMARK    4  A    between atoms: C_4  and  N_5
REMARK    5  A    between atoms: N_5  and  C_6
REMARK    6  A    between atoms: C_8  and  C_9
REMARK    7  A    between atoms: N_25  and  C_26
REMARK                            x       y       z     vdW  Elec       q    Type
REMARK                         _______ _______ _______ _____ _____    ______ ____
ROOT
ATOM      1  C   UNL     1       3.458   6.022  18.379  0.00  0.00    +0.000 A 
ATOM      2  N   UNL     1       2.810   7.157  18.767  0.00  0.00    +0.000 NA
ATOM      3  C   UNL     1       2.028   7.143  19.875  0.00  0.00    +0.000 A 
ATOM      4  C   UNL     1       1.857   5.989  20.621  0.00  0.00    +0.000 A 
ATOM      5  C   UNL     1       2.511   4.818  20.237  0.00  0.00    +0.000 A 
ATOM      6  N   UNL     1       2.322   3.674  21.024  0.00  0.00    +0.000 NA
ATOM      7  C   UNL     1       2.937   2.597  20.669  0.00  0.00    +0.000 A 
ATOM      8  N   UNL     1       3.766   2.493  19.585  0.00  0.00    +0.000 N 
ATOM      9  C   UNL     1       4.449   1.247  19.292  0.00  0.00    +0.000 C 
ATOM     10  C   UNL     1       4.016   3.580  18.754  0.00  0.00    +0.000 A 
ATOM     11  O   UNL     1       4.791   3.525  17.808  0.00  0.00    +0.000 OA
ATOM     12  C   UNL     1       3.312   4.834  19.101  0.00  0.00    +0.000 A 
ENDROOT
BRANCH   3  13
ATOM     13  C   UNL     1       1.381   8.412  20.227  0.00  0.00    +0.000 A 
ATOM     14  C   UNL     1       1.020   8.753  21.512  0.00  0.00    +0.000 A 
ATOM     15  N   UNL     1       0.429   9.916  21.869  0.00  0.00    +0.000 NA
ATOM     16  C   UNL     1       0.148  10.802  20.903  0.00  0.00    +0.000 A 
ATOM     17  N   UNL     1      -0.476  11.968  21.238  0.00  0.00    +0.000 N 
ATOM     18  C   UNL     1      -0.804  12.300  22.621  0.00  0.00    +0.000 C 
ATOM     19  C   UNL     1      -2.304  12.611  22.743  0.00  0.00    +0.000 C 
ATOM     20  O   UNL     1      -2.721  13.606  21.789  0.00  0.00    +0.000 OA
ATOM     21  C   UNL     1      -2.456  13.153  20.448  0.00  0.00    +0.000 C 
ATOM     22  C   UNL     1      -0.958  12.896  20.224  0.00  0.00    +0.000 C 
ATOM     23  N   UNL     1       0.457  10.567  19.618  0.00  0.00    +0.000 NA
ATOM     24  C   UNL     1       1.071   9.403  19.316  0.00  0.00    +0.000 A 
ENDBRANCH   3  13
BRANCH   1  25
ATOM     25  N   UNL     1       4.204   6.060  17.186  0.00  0.00    +0.000 N 
ATOM     26  H   UNL     1       4.545   5.114  16.967  0.00  0.00    +0.000 HD
BRANCH  25  27
ATOM     27  C   UNL     1       5.326   7.004  17.182  0.00  0.00    +0.000 C 
BRANCH  27  28
ATOM     28  C   UNL     1       6.662   6.285  17.417  0.00  0.00    +0.000 C 
BRANCH  28  30
ATOM     29  C   UNL     1       7.078   4.956  15.522  0.00  0.00    +0.000 C 
ATOM     30  O   UNL     1       7.394   6.173  16.191  0.00  0.00    +0.000 OA
ENDBRANCH  28  30
ENDBRANCH  27  28
ENDBRANCH  25  27
ENDBRANCH   1  25
TORSDOF 5
ENDMDL
MODEL 8
REMARK VINA RESULT:      -7.4      1.962      4.158
REMARK  Name = 
REMARK  7 active torsions:
REMARK  status: ('A' for Active; 'I' for Inactive)
REMARK    1  A    between atoms: C_1  and  O_2
REMARK    2  A    between atoms: O_2  and  C_3
REMARK    3  A    between atoms: C_3  and  C_4
REMARK    4  A    between atoms: C_4  and  N_5
REMARK    5  A    between atoms: N_5  and  C_6
REMARK    6  A    between atoms: C_8  and  C_9
REMARK    7  A    between atoms: N_25  and  C_26
REMARK                            x       y       z     vdW  Elec       q    Type
REMARK                         _______ _______ _______ _____ _____    ______ ____
ROOT
ATOM      1  C   UNL     1       3.412   6.098  18.358  0.00  0.00    +0.000 A 
ATOM      2  N   UNL     1       2.789   7.275  18.646  0.00  0.00    +0.000 NA
ATOM      3  C   UNL     1       2.011   7.375  19.753  0.00  0.00    +0.000 A 
ATOM      4  C   UNL     1       1.820   6.293  20.598  0.00  0.00    +0.000 A 
ATOM      5  C   UNL     1       2.448   5.081  20.315  0.00  0.00    +0.000 A 
ATOM      6  N   UNL     1       2.239   4.013  21.199  0.00  0.00    +0.000 NA
ATOM      7  C   UNL     1       2.831   2.897  20.938  0.00  0.00    +0.000 A 
ATOM      8  N   UNL     1       3.653   2.682  19.866  0.00  0.00    +0.000 N 
ATOM      9  C   UNL     1       4.310   1.401  19.681  0.00  0.00    +0.000 C 
ATOM     10  C   UNL     1       3.922   3.687  18.943  0.00  0.00    +0.000 A 
ATOM     11  O   UNL     1       4.692   3.534  18.003  0.00  0.00    +0.000 OA
ATOM     12  C   UNL     1       3.246   4.981  19.180  0.00  0.00    +0.000 A 
ENDROOT
BRANCH   3  13
ATOM     13  C   UNL     1       1.392   8.683  19.995  0.00  0.00    +0.000 A 
ATOM     14  C   UNL     1       1.109   9.588  18.995  0.00  0.00    +0.000 A 
ATOM     15  N   UNL     1       0.534  10.797  19.184  0.00  0.00    +0.000 NA
ATOM     16  C   UNL     1       0.233  11.162  20.438  0.00  0.00    +0.000 A 
ATOM     17  N   UNL     1      -0.319  12.391  20.653  0.00  0.00    +0.000 N 
ATOM     18  C   UNL     1      -0.635  13.300  19.554  0.00  0.00    +0.000 C 
ATOM     19  C   UNL     1       0.048  14.657  19.786  0.00  0.00    +0.000 C 
ATOM     20  O   UNL     1      -0.251  15.190  21.090  0.00  0.00    +0.000 OA
ATOM     21  C   UNL     1       0.188  14.278  22.114  0.00  0.00    +0.000 C 
ATOM     22  C   UNL     1      -0.516  12.916  21.997  0.00  0.00    +0.000 C 
ATOM     23  N   UNL     1       0.469  10.355  21.484  0.00  0.00    +0.000 NA
ATOM     24  C   UNL     1       1.020   9.146  21.241  0.00  0.00    +0.000 A 
ENDBRANCH   3  13
BRANCH   1  25
ATOM     25  N   UNL     1       4.155   6.017  17.164  0.00  0.00    +0.000 N 
ATOM     26  H   UNL     1       4.486   5.051  17.034  0.00  0.00    +0.000 HD
BRANCH  25  27
ATOM     27  C   UNL     1       5.286   6.945  17.069  0.00  0.00    +0.000 C 
BRANCH  27  28
ATOM     28  C   UNL     1       6.627   6.200  17.119  0.00  0.00    +0.000 C 
BRANCH  28  30
ATOM     29  C   UNL     1       7.846   8.140  17.647  0.00  0.00    +0.000 C 
ATOM     30  O   UNL     1       7.697   7.066  16.725  0.00  0.00    +0.000 OA
ENDBRANCH  28  30
ENDBRANCH  27  28
ENDBRANCH  25  27
ENDBRANCH   1  25
TORSDOF 5
ENDMDL
MODEL 9
REMARK VINA RESULT:      -7.3      1.357      2.030
REMARK  Name = 
REMARK  7 active torsions:
REMARK  status: ('A' for Active; 'I' for Inactive)
REMARK    1  A    between atoms: C_1  and  O_2
REMARK    2  A    between atoms: O_2  and  C_3
REMARK    3  A    between atoms: C_3  and  C_4
REMARK    4  A    between atoms: C_4  and  N_5
REMARK    5  A    between atoms: N_5  and  C_6
REMARK    6  A    between atoms: C_8  and  C_9
REMARK    7  A    between atoms: N_25  and  C_26
REMARK                            x       y       z     vdW  Elec       q    Type
REMARK                         _______ _______ _______ _____ _____    ______ ____
ROOT
ATOM      1  C   UNL     1       2.968   5.203  18.212  0.00  0.00    +0.000 A 
ATOM      2  N   UNL     1       2.240   6.246  18.702  0.00  0.00    +0.000 NA
ATOM      3  C   UNL     1       2.527   7.513  18.312  0.00  0.00    +0.000 A 
ATOM      4  C   UNL     1       3.562   7.777  17.430  0.00  0.00    +0.000 A 
ATOM      5  C   UNL     1       4.319   6.722  16.921  0.00  0.00    +0.000 A 
ATOM      6  N   UNL     1       5.351   7.028  16.023  0.00  0.00    +0.000 NA
ATOM      7  C   UNL     1       6.040   6.047  15.548  0.00  0.00    +0.000 A 
ATOM      8  N   UNL     1       5.832   4.729  15.851  0.00  0.00    +0.000 N 
ATOM      9  C   UNL     1       6.634   3.691  15.230  0.00  0.00    +0.000 C 
ATOM     10  C   UNL     1       4.826   4.334  16.726  0.00  0.00    +0.000 A 
ATOM     11  O   UNL     1       4.590   3.158  16.976  0.00  0.00    +0.000 OA
ATOM     12  C   UNL     1       4.022   5.424  17.322  0.00  0.00    +0.000 A 
ENDROOT
BRANCH   3  13
ATOM     13  C   UNL     1       1.683   8.572  18.877  0.00  0.00    +0.000 A 
ATOM     14  C   UNL     1       1.084   9.555  18.120  0.00  0.00    +0.000 A 
ATOM     15  N   UNL     1       0.297  10.539  18.610  0.00  0.00    +0.000 NA
ATOM     16  C   UNL     1       0.096  10.584  19.934  0.00  0.00    +0.000 A 
ATOM     17  N   UNL     1      -0.670  11.588  20.452  0.00  0.00    +0.000 N 
ATOM     18  C   UNL     1      -1.315  12.585  19.602  0.00  0.00    +0.000 C 
ATOM     19  C   UNL     1      -0.909  13.997  20.054  0.00  0.00    +0.000 C 
ATOM     20  O   UNL     1      -1.138  14.193  21.462  0.00  0.00    +0.000 OA
ATOM     21  C   UNL     1      -0.383  13.235  22.228  0.00  0.00    +0.000 C 
ATOM     22  C   UNL     1      -0.792  11.793  21.888  0.00  0.00    +0.000 C 
ATOM     23  N   UNL     1       0.635   9.675  20.762  0.00  0.00    +0.000 NA
ATOM     24  C   UNL     1       1.392   8.695  20.221  0.00  0.00    +0.000 A 
ENDBRANCH   3  13
BRANCH   1  25
ATOM     25  N   UNL     1       2.683   3.912  18.695  0.00  0.00    +0.000 N 
ATOM     26  H   UNL     1       3.347   3.241  18.285  0.00  0.00    +0.000 HD
BRANCH  25  27
ATOM     27  C   UNL     1       1.310   3.450  18.468  0.00  0.00    +0.000 C 
BRANCH  27  28
ATOM     28  C   UNL     1       0.780   2.657  19.670  0.00  0.00    +0.000 C 
BRANCH  28  30
ATOM     29  C   UNL     1       1.728   2.593  21.822  0.00  0.00    +0.000 C 
ATOM     30  O   UNL     1       1.000   3.382  20.886  0.00  0.00    +0.000 OA
ENDBRANCH  28  30
ENDBRANCH  27  28
ENDBRANCH  25  27
ENDBRANCH   1  25
TORSDOF 5
ENDMDL
