MODEL 1
REMARK VINA RESULT:      -7.0      0.000      0.000
REMARK  Name = 
REMARK  8 active torsions:
REMARK  status: ('A' for Active; 'I' for Inactive)
REMARK    1  A    between atoms: C_1  and  C_2
REMARK    2  A    between atoms: C_2  and  N_3
REMARK    3  A    between atoms: N_3  and  C_4
REMARK    4  A    between atoms: N_3  and  C_6
REMARK    5  A    between atoms: C_4  and  C_5
REMARK    6  A    between atoms: C_6  and  C_7
REMARK    7  A    between atoms: C_7  and  O_8
REMARK    8  A    between atoms: O_8  and  C_9
REMARK                            x       y       z     vdW  Elec       q    Type
REMARK                         _______ _______ _______ _____ _____    ______ ____
ROOT
ATOM      1  C   UNL     1       4.281   5.450  17.593  0.00  0.00    +0.000 A 
ATOM      2  C   UNL     1       4.373   6.544  16.722  0.00  0.00    +0.000 A 
ATOM      3  C   UNL     1       3.668   7.714  16.974  0.00  0.00    +0.000 A 
ATOM      4  C   UNL     1       2.861   7.806  18.104  0.00  0.00    +0.000 A 
ATOM      5  C   UNL     1       2.740   6.728  18.994  0.00  0.00    +0.000 A 
ATOM      6  C   UNL     1       1.923   6.812  20.132  0.00  0.00    +0.000 A 
ATOM      7  N   UNL     1       1.774   5.781  21.003  0.00  0.00    +0.000 NA
ATOM      8  C   UNL     1       2.453   4.644  20.746  0.00  0.00    +0.000 A 
ATOM      9  C   UNL     1       3.286   4.473  19.656  0.00  0.00    +0.000 A 
ATOM     10  C   UNL     1       3.451   5.530  18.743  0.00  0.00    +0.000 A 
ATOM     11  C   UNL     1       1.180   8.048  20.431  0.00  0.00    +0.000 A 
ATOM     12  C   UNL     1       0.361   8.185  21.566  0.00  0.00    +0.000 A 
ATOM     13  C   UNL     1      -0.326   9.377  21.827  0.00  0.00    +0.000 A 
ATOM     14  C   UNL     1      -0.210  10.459  20.958  0.00  0.00    +0.000 A 
ATOM     15  C   UNL     1       0.592  10.351  19.827  0.00  0.00    +0.000 A 
ATOM     16  C   UNL     1       1.278   9.155  19.569  0.00  0.00    +0.000 A 
ATOM     17  C   UNL     1       2.125   9.064  18.361  0.00  0.00    +0.000 C 
ATOM     18  O   UNL     1       2.224  10.010  17.587  0.00  0.00    +0.000 OA
ENDROOT
BRANCH   1  19
ATOM     19  O   UNL     1       4.973   4.271  17.399  0.00  0.00    +0.000 OA
BRANCH  19  20
ATOM     20  C   UNL     1       4.883   3.710  16.081  0.00  0.00    +0.000 C 
BRANCH  20  21
ATOM     21  C   UNL     1       6.261   3.696  15.404  0.00  0.00    +0.000 C 
BRANCH  21  22
ATOM     22  N   UNL     1       6.284   4.319  14.059  0.00  0.00    +0.000 NA
BRANCH  22  24
ATOM     23  C   UNL     1       7.913   5.461  12.502  0.00  0.00    +0.000 C 
ATOM     24  C   UNL     1       7.476   5.177  13.936  0.00  0.00    +0.000 C 
ENDBRANCH  22  24
BRANCH  22  25
ATOM     25  C   UNL     1       6.120   3.365  12.951  0.00  0.00    +0.000 C 
ATOM     26  C   UNL     1       4.854   3.521  12.114  0.00  0.00    +0.000 C 
ENDBRANCH  22  25
ENDBRANCH  21  22
ENDBRANCH  20  21
ENDBRANCH  19  20
ENDBRANCH   1  19
TORSDOF 6
ENDMDL
MODEL 2
REMARK VINA RESULT:      -7.0      3.498      5.927
REMARK  Name = 
REMARK  8 active torsions:
REMARK  status: ('A' for Active; 'I' for Inactive)
REMARK    1  A    between atoms: C_1  and  C_2
REMARK    2  A    between atoms: C_2  and  N_3
REMARK    3  A    between atoms: N_3  and  C_4
REMARK    4  A    between atoms: N_3  and  C_6
REMARK    5  A    between atoms: C_4  and  C_5
REMARK    6  A    between atoms: C_6  and  C_7
REMARK    7  A    between atoms: C_7  and  O_8
REMARK    8  A    between atoms: O_8  and  C_9
REMARK                            x       y       z     vdW  Elec       q    Type
REMARK                         _______ _______ _______ _____ _____    ______ ____
ROOT
ATOM      1  C   UNL     1       1.346   8.884  19.863  0.00  0.00    +0.000 A 
ATOM      2  C   UNL     1       1.251   9.542  18.628  0.00  0.00    +0.000 A 
ATOM      3  C   UNL     1       0.583  10.755  18.519  0.00  0.00    +0.000 A 
ATOM      4  C   UNL     1       0.002  11.329  19.646  0.00  0.00    +0.000 A 
ATOM      5  C   UNL     1       0.072  10.696  20.896  0.00  0.00    +0.000 A 
ATOM      6  C   UNL     1      -0.518  11.266  22.034  0.00  0.00    +0.000 A 
ATOM      7  N   UNL     1      -0.480  10.669  23.254  0.00  0.00    +0.000 NA
ATOM      8  C   UNL     1       0.161   9.487  23.350  0.00  0.00    +0.000 A 
ATOM      9  C   UNL     1       0.776   8.854  22.286  0.00  0.00    +0.000 A 
ATOM     10  C   UNL     1       0.746   9.456  21.016  0.00  0.00    +0.000 A 
ATOM     11  C   UNL     1      -1.215  12.561  21.948  0.00  0.00    +0.000 A 
ATOM     12  C   UNL     1      -1.808  13.179  23.064  0.00  0.00    +0.000 A 
ATOM     13  C   UNL     1      -2.456  14.414  22.950  0.00  0.00    +0.000 A 
ATOM     14  C   UNL     1      -2.528  15.060  21.719  0.00  0.00    +0.000 A 
ATOM     15  C   UNL     1      -1.951  14.471  20.598  0.00  0.00    +0.000 A 
ATOM     16  C   UNL     1      -1.303  13.233  20.716  0.00  0.00    +0.000 A 
ATOM     17  C   UNL     1      -0.697  12.627  19.511  0.00  0.00    +0.000 C 
ATOM     18  O   UNL     1      -0.764  13.185  18.422  0.00  0.00    +0.000 OA
ENDROOT
BRANCH   1  19
ATOM     19  O   UNL     1       2.011   7.686  20.030  0.00  0.00    +0.000 OA
BRANCH  19  20
ATOM     20  C   UNL     1       2.536   7.097  18.831  0.00  0.00    +0.000 C 
BRANCH  20  21
ATOM     21  C   UNL     1       2.934   5.635  19.076  0.00  0.00    +0.000 C 
BRANCH  21  22
ATOM     22  N   UNL     1       1.847   4.795  19.632  0.00  0.00    +0.000 NA
BRANCH  22  24
ATOM     23  C   UNL     1       2.420   3.582  17.491  0.00  0.00    +0.000 C 
ATOM     24  C   UNL     1       1.419   3.812  18.620  0.00  0.00    +0.000 C 
ENDBRANCH  22  24
BRANCH  22  25
ATOM     25  C   UNL     1       2.155   4.203  20.944  0.00  0.00    +0.000 C 
ATOM     26  C   UNL     1       1.432   2.902  21.279  0.00  0.00    +0.000 C 
ENDBRANCH  22  25
ENDBRANCH  21  22
ENDBRANCH  20  21
ENDBRANCH  19  20
ENDBRANCH   1  19
TORSDOF 6
ENDMDL
MODEL 3
REMARK VINA RESULT:      -6.9      0.540      1.328
REMARK  Name = 
REMARK  8 active torsions:
REMARK  status: ('A' for Active; 'I' for Inactive)
REMARK    1  A    between atoms: C_1  and  C_2
REMARK    2  A    between atoms: C_2  and  N_3
REMARK    3  A    between atoms: N_3  and  C_4
REMARK    4  A    between atoms: N_3  and  C_6
REMARK    5  A    between atoms: C_4  and  C_5
REMARK    6  A    between atoms: C_6  and  C_7
REMARK    7  A    between atoms: C_7  and  O_8
REMARK    8  A    between atoms: O_8  and  C_9
REMARK                            x       y       z     vdW  Elec       q    Type
REMARK                         _______ _______ _______ _____ _____    ______ ____
ROOT
ATOM      1  C   UNL     1       4.606   5.288  17.501  0.00  0.00    +0.000 A 
ATOM      2  C   UNL     1       4.642   6.387  16.630  0.00  0.00    +0.000 A 
ATOM      3  C   UNL     1       3.877   7.519  16.882  0.00  0.00    +0.000 A 
ATOM      4  C   UNL     1       3.065   7.568  18.012  0.00  0.00    +0.000 A 
ATOM      5  C   UNL     1       3.001   6.485  18.901  0.00  0.00    +0.000 A 
ATOM      6  C   UNL     1       2.180   6.527  20.039  0.00  0.00    +0.000 A 
ATOM      7  N   UNL     1       2.085   5.489  20.910  0.00  0.00    +0.000 NA
ATOM      8  C   UNL     1       2.822   4.389  20.654  0.00  0.00    +0.000 A 
ATOM      9  C   UNL     1       3.663   4.262  19.563  0.00  0.00    +0.000 A 
ATOM     10  C   UNL     1       3.773   5.325  18.650  0.00  0.00    +0.000 A 
ATOM     11  C   UNL     1       1.373   7.723  20.338  0.00  0.00    +0.000 A 
ATOM     12  C   UNL     1       0.548   7.817  21.473  0.00  0.00    +0.000 A 
ATOM     13  C   UNL     1      -0.199   8.972  21.733  0.00  0.00    +0.000 A 
ATOM     14  C   UNL     1      -0.140  10.058  20.865  0.00  0.00    +0.000 A 
ATOM     15  C   UNL     1       0.667   9.992  19.734  0.00  0.00    +0.000 A 
ATOM     16  C   UNL     1       1.414   8.833  19.476  0.00  0.00    +0.000 A 
ATOM     17  C   UNL     1       2.265   8.787  18.268  0.00  0.00    +0.000 C 
ATOM     18  O   UNL     1       2.315   9.736  17.494  0.00  0.00    +0.000 OA
ENDROOT
BRANCH   1  19
ATOM     19  O   UNL     1       5.358   4.147  17.307  0.00  0.00    +0.000 OA
BRANCH  19  20
ATOM     20  C   UNL     1       6.295   4.201  16.222  0.00  0.00    +0.000 C 
BRANCH  20  21
ATOM     21  C   UNL     1       5.673   3.629  14.940  0.00  0.00    +0.000 C 
BRANCH  21  22
ATOM     22  N   UNL     1       6.507   3.808  13.728  0.00  0.00    +0.000 NA
BRANCH  22  24
ATOM     23  C   UNL     1       5.787   2.408  11.751  0.00  0.00    +0.000 C 
ATOM     24  C   UNL     1       5.655   3.715  12.529  0.00  0.00    +0.000 C 
ENDBRANCH  22  24
BRANCH  22  25
ATOM     25  C   UNL     1       7.364   5.002  13.758  0.00  0.00    +0.000 C 
ATOM     26  C   UNL     1       7.865   5.504  12.407  0.00  0.00    +0.000 C 
ENDBRANCH  22  25
ENDBRANCH  21  22
ENDBRANCH  20  21
ENDBRANCH  19  20
ENDBRANCH   1  19
TORSDOF 6
ENDMDL
MODEL 4
REMARK VINA RESULT:      -6.9      2.724      5.347
REMARK  Name = 
REMARK  8 active torsions:
REMARK  status: ('A' for Active; 'I' for Inactive)
REMARK    1  A    between atoms: C_1  and  C_2
REMARK    2  A    between atoms: C_2  and  N_3
REMARK    3  A    between atoms: N_3  and  C_4
REMARK    4  A    between atoms: N_3  and  C_6
REMARK    5  A    between atoms: C_4  and  C_5
REMARK    6  A    between atoms: C_6  and  C_7
REMARK    7  A    between atoms: C_7  and  O_8
REMARK    8  A    between atoms: O_8  and  C_9
REMARK                            x       y       z     vdW  Elec       q    Type
REMARK                         _______ _______ _______ _____ _____    ______ ____
ROOT
ATOM      1  C   UNL     1       1.325   8.802  19.511  0.00  0.00    +0.000 A 
ATOM      2  C   UNL     1       0.842   9.324  18.302  0.00  0.00    +0.000 A 
ATOM      3  C   UNL     1      -0.120  10.326  18.294  0.00  0.00    +0.000 A 
ATOM      4  C   UNL     1      -0.612  10.822  19.498  0.00  0.00    +0.000 A 
ATOM      5  C   UNL     1      -0.156  10.319  20.726  0.00  0.00    +0.000 A 
ATOM      6  C   UNL     1      -0.653  10.810  21.944  0.00  0.00    +0.000 A 
ATOM      7  N   UNL     1      -0.243  10.332  23.147  0.00  0.00    +0.000 NA
ATOM      8  C   UNL     1       0.684   9.352  23.146  0.00  0.00    +0.000 A 
ATOM      9  C   UNL     1       1.235   8.813  21.998  0.00  0.00    +0.000 A 
ATOM     10  C   UNL     1       0.820   9.294  20.744  0.00  0.00    +0.000 A 
ATOM     11  C   UNL     1      -1.661  11.885  21.962  0.00  0.00    +0.000 A 
ATOM     12  C   UNL     1      -2.176  12.420  23.156  0.00  0.00    +0.000 A 
ATOM     13  C   UNL     1      -3.127  13.448  23.140  0.00  0.00    +0.000 A 
ATOM     14  C   UNL     1      -3.584  13.964  21.930  0.00  0.00    +0.000 A 
ATOM     15  C   UNL     1      -3.091  13.453  20.734  0.00  0.00    +0.000 A 
ATOM     16  C   UNL     1      -2.140  12.422  20.755  0.00  0.00    +0.000 A 
ATOM     17  C   UNL     1      -1.630  11.896  19.470  0.00  0.00    +0.000 C 
ATOM     18  O   UNL     1      -2.035  12.339  18.401  0.00  0.00    +0.000 OA
ENDROOT
BRANCH   1  19
ATOM     19  O   UNL     1       2.292   7.819  19.575  0.00  0.00    +0.000 OA
BRANCH  19  20
ATOM     20  C   UNL     1       2.694   7.263  18.315  0.00  0.00    +0.000 C 
BRANCH  20  21
ATOM     21  C   UNL     1       3.319   5.874  18.511  0.00  0.00    +0.000 C 
BRANCH  21  22
ATOM     22  N   UNL     1       2.558   4.771  17.877  0.00  0.00    +0.000 NA
BRANCH  22  24
ATOM     23  C   UNL     1       4.705   4.343  16.615  0.00  0.00    +0.000 C 
ATOM     24  C   UNL     1       3.499   3.766  17.351  0.00  0.00    +0.000 C 
ENDBRANCH  22  24
BRANCH  22  25
ATOM     25  C   UNL     1       1.497   4.207  18.726  0.00  0.00    +0.000 C 
ATOM     26  C   UNL     1       1.702   4.336  20.232  0.00  0.00    +0.000 C 
ENDBRANCH  22  25
ENDBRANCH  21  22
ENDBRANCH  20  21
ENDBRANCH  19  20
ENDBRANCH   1  19
TORSDOF 6
ENDMDL
MODEL 5
REMARK VINA RESULT:      -6.9      3.302      5.502
REMARK  Name = 
REMARK  8 active torsions:
REMARK  status: ('A' for Active; 'I' for Inactive)
REMARK    1  A    between atoms: C_1  and  C_2
REMARK    2  A    between atoms: C_2  and  N_3
REMARK    3  A    between atoms: N_3  and  C_4
REMARK    4  A    between atoms: N_3  and  C_6
REMARK    5  A    between atoms: C_4  and  C_5
REMARK    6  A    between atoms: C_6  and  C_7
REMARK    7  A    between atoms: C_7  and  O_8
REMARK    8  A    between atoms: O_8  and  C_9
REMARK                            x       y       z     vdW  Elec       q    Type
REMARK                         _______ _______ _______ _____ _____    ______ ____
ROOT
ATOM      1  C   UNL     1       1.442   8.704  19.366  0.00  0.00    +0.000 A 
ATOM      2  C   UNL     1       0.941   9.216  18.161  0.00  0.00    +0.000 A 
ATOM      3  C   UNL     1      -0.026  10.214  18.160  0.00  0.00    +0.000 A 
ATOM      4  C   UNL     1      -0.503  10.716  19.368  0.00  0.00    +0.000 A 
ATOM      5  C   UNL     1      -0.028  10.223  20.592  0.00  0.00    +0.000 A 
ATOM      6  C   UNL     1      -0.510  10.720  21.813  0.00  0.00    +0.000 A 
ATOM      7  N   UNL     1      -0.081  10.252  23.013  0.00  0.00    +0.000 NA
ATOM      8  C   UNL     1       0.849   9.276  23.007  0.00  0.00    +0.000 A 
ATOM      9  C   UNL     1       1.386   8.731  21.855  0.00  0.00    +0.000 A 
ATOM     10  C   UNL     1       0.953   9.202  20.603  0.00  0.00    +0.000 A 
ATOM     11  C   UNL     1      -1.521  11.791  21.839  0.00  0.00    +0.000 A 
ATOM     12  C   UNL     1      -2.022  12.332  23.036  0.00  0.00    +0.000 A 
ATOM     13  C   UNL     1      -2.977  13.357  23.026  0.00  0.00    +0.000 A 
ATOM     14  C   UNL     1      -3.453  13.863  21.820  0.00  0.00    +0.000 A 
ATOM     15  C   UNL     1      -2.975  13.346  20.620  0.00  0.00    +0.000 A 
ATOM     16  C   UNL     1      -2.019  12.319  20.634  0.00  0.00    +0.000 A 
ATOM     17  C   UNL     1      -1.525  11.786  19.346  0.00  0.00    +0.000 C 
ATOM     18  O   UNL     1      -1.946  12.221  18.281  0.00  0.00    +0.000 OA
ENDROOT
BRANCH   1  19
ATOM     19  O   UNL     1       2.414   7.725  19.424  0.00  0.00    +0.000 OA
BRANCH  19  20
ATOM     20  C   UNL     1       2.954   7.315  18.159  0.00  0.00    +0.000 C 
BRANCH  20  21
ATOM     21  C   UNL     1       2.971   5.784  18.048  0.00  0.00    +0.000 C 
BRANCH  21  22
ATOM     22  N   UNL     1       3.459   5.091  19.265  0.00  0.00    +0.000 NA
BRANCH  22  24
ATOM     23  C   UNL     1       1.327   4.777  20.583  0.00  0.00    +0.000 C 
ATOM     24  C   UNL     1       2.431   4.148  19.738  0.00  0.00    +0.000 C 
ENDBRANCH  22  24
BRANCH  22  25
ATOM     25  C   UNL     1       4.796   4.494  19.121  0.00  0.00    +0.000 C 
ATOM     26  C   UNL     1       5.961   5.474  19.015  0.00  0.00    +0.000 C 
ENDBRANCH  22  25
ENDBRANCH  21  22
ENDBRANCH  20  21
ENDBRANCH  19  20
ENDBRANCH   1  19
TORSDOF 6
ENDMDL
MODEL 6
REMARK VINA RESULT:      -6.9      3.415      5.662
REMARK  Name = 
REMARK  8 active torsions:
REMARK  status: ('A' for Active; 'I' for Inactive)
REMARK    1  A    between atoms: C_1  and  C_2
REMARK    2  A    between atoms: C_2  and  N_3
REMARK    3  A    between atoms: N_3  and  C_4
REMARK    4  A    between atoms: N_3  and  C_6
REMARK    5  A    between atoms: C_4  and  C_5
REMARK    6  A    between atoms: C_6  and  C_7
REMARK    7  A    between atoms: C_7  and  O_8
REMARK    8  A    between atoms: O_8  and  C_9
REMARK                            x       y       z     vdW  Elec       q    Type
REMARK                         _______ _______ _______ _____ _____    ______ ____
ROOT
ATOM      1  C   UNL     1       1.430   8.739  19.490  0.00  0.00    +0.000 A 
ATOM      2  C   UNL     1       0.952   9.234  18.268  0.00  0.00    +0.000 A 
ATOM      3  C   UNL     1      -0.023  10.223  18.235  0.00  0.00    +0.000 A 
ATOM      4  C   UNL     1      -0.534  10.732  19.425  0.00  0.00    +0.000 A 
ATOM      5  C   UNL     1      -0.083  10.256  20.666  0.00  0.00    +0.000 A 
ATOM      6  C   UNL     1      -0.598  10.761  21.870  0.00  0.00    +0.000 A 
ATOM      7  N   UNL     1      -0.193  10.309  23.085  0.00  0.00    +0.000 NA
ATOM      8  C   UNL     1       0.746   9.341  23.110  0.00  0.00    +0.000 A 
ATOM      9  C   UNL     1       1.315   8.790  21.976  0.00  0.00    +0.000 A 
ATOM     10  C   UNL     1       0.907   9.244  20.710  0.00  0.00    +0.000 A 
ATOM     11  C   UNL     1      -1.620  11.822  21.860  0.00  0.00    +0.000 A 
ATOM     12  C   UNL     1      -2.154  12.370  23.040  0.00  0.00    +0.000 A 
ATOM     13  C   UNL     1      -3.118  13.385  22.997  0.00  0.00    +0.000 A 
ATOM     14  C   UNL     1      -3.569  13.875  21.775  0.00  0.00    +0.000 A 
ATOM     15  C   UNL     1      -3.058  13.350  20.592  0.00  0.00    +0.000 A 
ATOM     16  C   UNL     1      -2.094  12.333  20.640  0.00  0.00    +0.000 A 
ATOM     17  C   UNL     1      -1.565  11.792  19.369  0.00  0.00    +0.000 C 
ATOM     18  O   UNL     1      -1.965  12.212  18.289  0.00  0.00    +0.000 OA
ENDROOT
BRANCH   1  19
ATOM     19  O   UNL     1       2.409   7.770  19.580  0.00  0.00    +0.000 OA
BRANCH  19  20
ATOM     20  C   UNL     1       2.597   6.969  18.404  0.00  0.00    +0.000 C 
BRANCH  20  21
ATOM     21  C   UNL     1       2.115   5.532  18.645  0.00  0.00    +0.000 C 
BRANCH  21  22
ATOM     22  N   UNL     1       2.896   4.792  19.665  0.00  0.00    +0.000 NA
BRANCH  22  24
ATOM     23  C   UNL     1       2.213   3.226  21.527  0.00  0.00    +0.000 C 
ATOM     24  C   UNL     1       2.069   4.596  20.869  0.00  0.00    +0.000 C 
ENDBRANCH  22  24
BRANCH  22  25
ATOM     25  C   UNL     1       3.522   3.558  19.165  0.00  0.00    +0.000 C 
ATOM     26  C   UNL     1       3.001   3.034  17.830  0.00  0.00    +0.000 C 
ENDBRANCH  22  25
ENDBRANCH  21  22
ENDBRANCH  20  21
ENDBRANCH  19  20
ENDBRANCH   1  19
TORSDOF 6
ENDMDL
MODEL 7
REMARK VINA RESULT:      -6.8      2.252      8.427
REMARK  Name = 
REMARK  8 active torsions:
REMARK  status: ('A' for Active; 'I' for Inactive)
REMARK    1  A    between atoms: C_1  and  C_2
REMARK    2  A    between atoms: C_2  and  N_3
REMARK    3  A    between atoms: N_3  and  C_4
REMARK    4  A    between atoms: N_3  and  C_6
REMARK    5  A    between atoms: C_4  and  C_5
REMARK    6  A    between atoms: C_6  and  C_7
REMARK    7  A    between atoms: C_7  and  O_8
REMARK    8  A    between atoms: O_8  and  C_9
REMARK                            x       y       z     vdW  Elec       q    Type
REMARK                         _______ _______ _______ _____ _____    ______ ____
ROOT
ATOM      1  C   UNL     1       1.412   7.012  20.616  0.00  0.00    +0.000 A 
ATOM      2  C   UNL     1       1.642   5.735  21.147  0.00  0.00    +0.000 A 
ATOM      3  C   UNL     1       2.498   4.845  20.511  0.00  0.00    +0.000 A 
ATOM      4  C   UNL     1       3.139   5.222  19.334  0.00  0.00    +0.000 A 
ATOM      5  C   UNL     1       2.927   6.490  18.771  0.00  0.00    +0.000 A 
ATOM      6  C   UNL     1       3.565   6.874  17.581  0.00  0.00    +0.000 A 
ATOM      7  N   UNL     1       3.368   8.088  17.005  0.00  0.00    +0.000 NA
ATOM      8  C   UNL     1       2.527   8.942  17.622  0.00  0.00    +0.000 A 
ATOM      9  C   UNL     1       1.861   8.654  18.800  0.00  0.00    +0.000 A 
ATOM     10  C   UNL     1       2.052   7.402  19.409  0.00  0.00    +0.000 A 
ATOM     11  C   UNL     1       4.492   5.955  16.898  0.00  0.00    +0.000 A 
ATOM     12  C   UNL     1       5.166   6.300  15.713  0.00  0.00    +0.000 A 
ATOM     13  C   UNL     1       6.047   5.407  15.093  0.00  0.00    +0.000 A 
ATOM     14  C   UNL     1       6.275   4.148  15.642  0.00  0.00    +0.000 A 
ATOM     15  C   UNL     1       5.621   3.779  16.813  0.00  0.00    +0.000 A 
ATOM     16  C   UNL     1       4.738   4.677  17.431  0.00  0.00    +0.000 A 
ATOM     17  C   UNL     1       4.055   4.263  18.676  0.00  0.00    +0.000 C 
ATOM     18  O   UNL     1       4.244   3.153  19.160  0.00  0.00    +0.000 OA
ENDROOT
BRANCH   1  19
ATOM     19  O   UNL     1       0.584   7.940  21.216  0.00  0.00    +0.000 OA
BRANCH  19  20
ATOM     20  C   UNL     1       1.232   8.865  22.102  0.00  0.00    +0.000 C 
BRANCH  20  21
ATOM     21  C   UNL     1       0.200   9.581  22.985  0.00  0.00    +0.000 C 
BRANCH  21  22
ATOM     22  N   UNL     1      -0.667  10.535  22.254  0.00  0.00    +0.000 NA
BRANCH  22  24
ATOM     23  C   UNL     1      -2.501  12.241  22.585  0.00  0.00    +0.000 C 
ATOM     24  C   UNL     1      -1.493  11.285  23.217  0.00  0.00    +0.000 C 
ENDBRANCH  22  24
BRANCH  22  25
ATOM     25  C   UNL     1       0.052  11.388  21.295  0.00  0.00    +0.000 C 
ATOM     26  C   UNL     1      -0.426  11.321  19.847  0.00  0.00    +0.000 C 
ENDBRANCH  22  25
ENDBRANCH  21  22
ENDBRANCH  20  21
ENDBRANCH  19  20
ENDBRANCH   1  19
TORSDOF 6
ENDMDL
MODEL 8
REMARK VINA RESULT:      -6.8      1.212      1.993
REMARK  Name = 
REMARK  8 active torsions:
REMARK  status: ('A' for Active; 'I' for Inactive)
REMARK    1  A    between atoms: C_1  and  C_2
REMARK    2  A    between atoms: C_2  and  N_3
REMARK    3  A    between atoms: N_3  and  C_4
REMARK    4  A    between atoms: N_3  and  C_6
REMARK    5  A    between atoms: C_4  and  C_5
REMARK    6  A    between atoms: C_6  and  C_7
REMARK    7  A    between atoms: C_7  and  O_8
REMARK    8  A    between atoms: O_8  and  C_9
REMARK                            x       y       z     vdW  Elec       q    Type
REMARK                         _______ _______ _______ _____ _____    ______ ____
ROOT
ATOM      1  C   UNL     1       3.916   5.502  17.914  0.00  0.00    +0.000 A 
ATOM      2  C   UNL     1       4.066   6.534  16.977  0.00  0.00    +0.000 A 
ATOM      3  C   UNL     1       3.421   7.752  17.150  0.00  0.00    +0.000 A 
ATOM      4  C   UNL     1       2.616   7.956  18.267  0.00  0.00    +0.000 A 
ATOM      5  C   UNL     1       2.438   6.944  19.222  0.00  0.00    +0.000 A 
ATOM      6  C   UNL     1       1.623   7.141  20.348  0.00  0.00    +0.000 A 
ATOM      7  N   UNL     1       1.419   6.175  21.281  0.00  0.00    +0.000 NA
ATOM      8  C   UNL     1       2.040   4.992  21.101  0.00  0.00    +0.000 A 
ATOM      9  C   UNL     1       2.866   4.710  20.028  0.00  0.00    +0.000 A 
ATOM     10  C   UNL     1       3.087   5.697  19.052  0.00  0.00    +0.000 A 
ATOM     11  C   UNL     1       0.942   8.430  20.564  0.00  0.00    +0.000 A 
ATOM     12  C   UNL     1       0.129   8.679  21.683  0.00  0.00    +0.000 A 
ATOM     13  C   UNL     1      -0.497   9.919  21.863  0.00  0.00    +0.000 A 
ATOM     14  C   UNL     1      -0.324  10.936  20.929  0.00  0.00    +0.000 A 
ATOM     15  C   UNL     1       0.475  10.717  19.812  0.00  0.00    +0.000 A 
ATOM     16  C   UNL     1       1.099   9.473  19.635  0.00  0.00    +0.000 A 
ATOM     17  C   UNL     1       1.944   9.263  18.439  0.00  0.00    +0.000 C 
ATOM     18  O   UNL     1       2.093  10.152  17.608  0.00  0.00    +0.000 OA
ENDROOT
BRANCH   1  19
ATOM     19  O   UNL     1       4.547   4.280  17.799  0.00  0.00    +0.000 OA
BRANCH  19  20
ATOM     20  C   UNL     1       5.246   4.058  16.566  0.00  0.00    +0.000 C 
BRANCH  20  21
ATOM     21  C   UNL     1       6.764   4.149  16.780  0.00  0.00    +0.000 C 
BRANCH  21  22
ATOM     22  N   UNL     1       7.391   5.350  16.181  0.00  0.00    +0.000 NA
BRANCH  22  24
ATOM     23  C   UNL     1       7.281   4.736  13.732  0.00  0.00    +0.000 C 
ATOM     24  C   UNL     1       6.777   5.622  14.869  0.00  0.00    +0.000 C 
ENDBRANCH  22  24
BRANCH  22  25
ATOM     25  C   UNL     1       7.428   6.519  17.074  0.00  0.00    +0.000 C 
ATOM     26  C   UNL     1       7.672   6.226  18.552  0.00  0.00    +0.000 C 
ENDBRANCH  22  25
ENDBRANCH  21  22
ENDBRANCH  20  21
ENDBRANCH  19  20
ENDBRANCH   1  19
TORSDOF 6
ENDMDL
MODEL 9
REMARK VINA RESULT:      -6.7      3.530      5.462
REMARK  Name = 
REMARK  8 active torsions:
REMARK  status: ('A' for Active; 'I' for Inactive)
REMARK    1  A    between atoms: C_1  and  C_2
REMARK    2  A    between atoms: C_2  and  N_3
REMARK    3  A    between atoms: N_3  and  C_4
REMARK    4  A    between atoms: N_3  and  C_6
REMARK    5  A    between atoms: C_4  and  C_5
REMARK    6  A    between atoms: C_6  and  C_7
REMARK    7  A    between atoms: C_7  and  O_8
REMARK    8  A    between atoms: O_8  and  C_9
REMARK                            x       y       z     vdW  Elec       q    Type
REMARK                         _______ _______ _______ _____ _____    ______ ____
ROOT
ATOM      1  C   UNL     1       2.084   7.488  19.269  0.00  0.00    +0.000 A 
ATOM      2  C   UNL     1       1.693   6.869  20.465  0.00  0.00    +0.000 A 
ATOM      3  C   UNL     1       0.988   7.574  21.432  0.00  0.00    +0.000 A 
ATOM      4  C   UNL     1       0.661   8.910  21.216  0.00  0.00    +0.000 A 
ATOM      5  C   UNL     1       1.041   9.562  20.033  0.00  0.00    +0.000 A 
ATOM      6  C   UNL     1       0.721  10.911  19.811  0.00  0.00    +0.000 A 
ATOM      7  N   UNL     1       1.088  11.573  18.684  0.00  0.00    +0.000 NA
ATOM      8  C   UNL     1       1.782  10.886  17.754  0.00  0.00    +0.000 A 
ATOM      9  C   UNL     1       2.135   9.556  17.883  0.00  0.00    +0.000 A 
ATOM     10  C   UNL     1       1.765   8.854  19.044  0.00  0.00    +0.000 A 
ATOM     11  C   UNL     1      -0.042  11.674  20.814  0.00  0.00    +0.000 A 
ATOM     12  C   UNL     1      -0.400  13.021  20.630  0.00  0.00    +0.000 A 
ATOM     13  C   UNL     1      -1.134  13.717  21.599  0.00  0.00    +0.000 A 
ATOM     14  C   UNL     1      -1.526  13.081  22.774  0.00  0.00    +0.000 A 
ATOM     15  C   UNL     1      -1.185  11.749  22.983  0.00  0.00    +0.000 A 
ATOM     16  C   UNL     1      -0.449  11.056  22.010  0.00  0.00    +0.000 A 
ATOM     17  C   UNL     1      -0.099   9.640  22.254  0.00  0.00    +0.000 C 
ATOM     18  O   UNL     1      -0.432   9.078  23.290  0.00  0.00    +0.000 OA
ENDROOT
BRANCH   1  19
ATOM     19  O   UNL     1       2.770   6.831  18.268  0.00  0.00    +0.000 OA
BRANCH  19  20
ATOM     20  C   UNL     1       3.025   5.438  18.504  0.00  0.00    +0.000 C 
BRANCH  20  21
ATOM     21  C   UNL     1       1.877   4.578  17.958  0.00  0.00    +0.000 C 
BRANCH  21  22
ATOM     22  N   UNL     1       1.787   3.229  18.565  0.00  0.00    +0.000 NA
BRANCH  22  24
ATOM     23  C   UNL     1       3.589   1.470  18.358  0.00  0.00    +0.000 C 
ATOM     24  C   UNL     1       3.130   2.786  18.979  0.00  0.00    +0.000 C 
ENDBRANCH  22  24
BRANCH  22  25
ATOM     25  C   UNL     1       0.769   3.111  19.621  0.00  0.00    +0.000 C 
ATOM     26  C   UNL     1       1.292   3.060  21.054  0.00  0.00    +0.000 C 
ENDBRANCH  22  25
ENDBRANCH  21  22
ENDBRANCH  20  21
ENDBRANCH  19  20
ENDBRANCH   1  19
TORSDOF 6
ENDMDL
