MODEL 1
REMARK VINA RESULT:      -7.4      0.000      0.000
REMARK  Name = 
REMARK  5 active torsions:
REMARK  status: ('A' for Active; 'I' for Inactive)
REMARK    1  A    between atoms: C_2  and  C_3
REMARK    2  A    between atoms: C_3  and  C_4
REMARK    3  A    between atoms: N_11  and  C_12
REMARK    4  A    between atoms: C_12  and  C_13
REMARK    5  A    between atoms: C_13  and  C_14
REMARK                            x       y       z     vdW  Elec       q    Type
REMARK                         _______ _______ _______ _____ _____    ______ ____
ROOT
ATOM      1  O   UNL     1       6.976   7.805  17.036  0.00  0.00    +0.000 OA
ATOM      2  C   UNL     1       7.696   7.396  17.941  0.00  0.00    +0.000 C 
ATOM      3  N   UNL     1       8.560   8.207  18.649  0.00  0.00    +0.000 N 
ATOM      4  H   UNL     1       9.237   7.770  19.264  0.00  0.00    +0.000 HD
ENDROOT
BRANCH   2   5
ATOM      5  C   UNL     1       7.702   5.948  18.389  0.00  0.00    +0.000 C 
BRANCH   5   6
ATOM      6  C   UNL     1       6.610   5.126  17.762  0.00  0.00    +0.000 A 
ATOM      7  C   UNL     1       6.797   4.505  16.520  0.00  0.00    +0.000 A 
ATOM      8  C   UNL     1       5.764   3.767  15.936  0.00  0.00    +0.000 A 
ATOM      9  C   UNL     1       4.540   3.632  16.590  0.00  0.00    +0.000 A 
ATOM     10  C   UNL     1       4.349   4.229  17.835  0.00  0.00    +0.000 A 
ATOM     11  C   UNL     1       5.383   4.963  18.411  0.00  0.00    +0.000 A 
ATOM     12  F   UNL     1       5.187   5.532  19.610  0.00  0.00    +0.000 F 
ENDBRANCH   5   6
ENDBRANCH   2   5
BRANCH   3  13
ATOM     13  C   UNL     1       8.694   9.617  18.338  0.00  0.00    +0.000 C 
BRANCH  13  14
ATOM     14  C   UNL     1       9.372  10.393  19.471  0.00  0.00    +0.000 C 
BRANCH  14  15
ATOM     15  C   UNL     1      10.285  11.489  18.971  0.00  0.00    +0.000 C 
ATOM     16  C   UNL     1      10.069  12.107  17.796  0.00  0.00    +0.000 C 
ATOM     17  C   UNL     1      10.976  13.162  17.229  0.00  0.00    +0.000 C 
ATOM     18  C   UNL     1      12.330  13.224  17.934  0.00  0.00    +0.000 C 
ATOM     19  C   UNL     1      12.158  13.155  19.447  0.00  0.00    +0.000 C 
ATOM     20  C   UNL     1      11.453  11.860  19.860  0.00  0.00    +0.000 C 
ENDBRANCH  14  15
ENDBRANCH  13  14
ENDBRANCH   3  13
TORSDOF 5
ENDMDL
MODEL 2
REMARK VINA RESULT:      -7.4      5.860      7.447
REMARK  Name = 
REMARK  5 active torsions:
REMARK  status: ('A' for Active; 'I' for Inactive)
REMARK    1  A    between atoms: C_2  and  C_3
REMARK    2  A    between atoms: C_3  and  C_4
REMARK    3  A    between atoms: N_11  and  C_12
REMARK    4  A    between atoms: C_12  and  C_13
REMARK    5  A    between atoms: C_13  and  C_14
REMARK                            x       y       z     vdW  Elec       q    Type
REMARK                         _______ _______ _______ _____ _____    ______ ____
ROOT
ATOM      1  O   UNL     1       5.231   5.532  19.125  0.00  0.00    +0.000 OA
ATOM      2  C   UNL     1       4.251   5.942  18.511  0.00  0.00    +0.000 C 
ATOM      3  N   UNL     1       4.259   6.200  17.155  0.00  0.00    +0.000 N 
ATOM      4  H   UNL     1       3.467   6.688  16.752  0.00  0.00    +0.000 HD
ENDROOT
BRANCH   2   5
ATOM      5  C   UNL     1       2.915   6.194  19.179  0.00  0.00    +0.000 C 
BRANCH   5   6
ATOM      6  C   UNL     1       2.261   4.941  19.697  0.00  0.00    +0.000 A 
ATOM      7  C   UNL     1       2.358   4.582  21.047  0.00  0.00    +0.000 A 
ATOM      8  C   UNL     1       1.769   3.402  21.508  0.00  0.00    +0.000 A 
ATOM      9  C   UNL     1       1.070   2.576  20.629  0.00  0.00    +0.000 A 
ATOM     10  C   UNL     1       0.949   2.934  19.288  0.00  0.00    +0.000 A 
ATOM     11  C   UNL     1       1.539   4.111  18.835  0.00  0.00    +0.000 A 
ATOM     12  F   UNL     1       1.415   4.445  17.541  0.00  0.00    +0.000 F 
ENDBRANCH   5   6
ENDBRANCH   2   5
BRANCH   3  13
ATOM     13  C   UNL     1       5.462   6.030  16.364  0.00  0.00    +0.000 C 
BRANCH  13  14
ATOM     14  C   UNL     1       5.592   4.604  15.816  0.00  0.00    +0.000 C 
BRANCH  14  15
ATOM     15  C   UNL     1       6.270   4.550  14.467  0.00  0.00    +0.000 C 
ATOM     16  C   UNL     1       7.392   5.248  14.211  0.00  0.00    +0.000 C 
ATOM     17  C   UNL     1       8.073   5.272  12.873  0.00  0.00    +0.000 C 
ATOM     18  C   UNL     1       7.199   4.714  11.751  0.00  0.00    +0.000 C 
ATOM     19  C   UNL     1       6.510   3.427  12.189  0.00  0.00    +0.000 C 
ATOM     20  C   UNL     1       5.629   3.668  13.417  0.00  0.00    +0.000 C 
ENDBRANCH  14  15
ENDBRANCH  13  14
ENDBRANCH   3  13
TORSDOF 5
ENDMDL
MODEL 3
REMARK VINA RESULT:      -7.4      5.866      8.534
REMARK  Name = 
REMARK  5 active torsions:
REMARK  status: ('A' for Active; 'I' for Inactive)
REMARK    1  A    between atoms: C_2  and  C_3
REMARK    2  A    between atoms: C_3  and  C_4
REMARK    3  A    between atoms: N_11  and  C_12
REMARK    4  A    between atoms: C_12  and  C_13
REMARK    5  A    between atoms: C_13  and  C_14
REMARK                            x       y       z     vdW  Elec       q    Type
REMARK                         _______ _______ _______ _____ _____    ______ ____
ROOT
ATOM      1  O   UNL     1       5.195   6.934  15.665  0.00  0.00    +0.000 OA
ATOM      2  C   UNL     1       5.806   6.022  16.216  0.00  0.00    +0.000 C 
ATOM      3  N   UNL     1       5.464   5.520  17.455  0.00  0.00    +0.000 N 
ATOM      4  H   UNL     1       6.109   4.886  17.913  0.00  0.00    +0.000 HD
ENDROOT
BRANCH   2   5
ATOM      5  C   UNL     1       7.000   5.340  15.581  0.00  0.00    +0.000 C 
BRANCH   5   6
ATOM      6  C   UNL     1       6.690   4.714  14.248  0.00  0.00    +0.000 A 
ATOM      7  C   UNL     1       5.560   3.905  14.077  0.00  0.00    +0.000 A 
ATOM      8  C   UNL     1       5.300   3.307  12.841  0.00  0.00    +0.000 A 
ATOM      9  C   UNL     1       6.158   3.521  11.762  0.00  0.00    +0.000 A 
ATOM     10  C   UNL     1       7.274   4.341  11.916  0.00  0.00    +0.000 A 
ATOM     11  C   UNL     1       7.528   4.933  13.151  0.00  0.00    +0.000 A 
ATOM     12  F   UNL     1       8.605   5.721  13.286  0.00  0.00    +0.000 F 
ENDBRANCH   5   6
ENDBRANCH   2   5
BRANCH   3  13
ATOM     13  C   UNL     1       4.356   6.071  18.211  0.00  0.00    +0.000 C 
BRANCH  13  14
ATOM     14  C   UNL     1       3.003   5.561  17.703  0.00  0.00    +0.000 C 
BRANCH  14  15
ATOM     15  C   UNL     1       2.292   4.679  18.703  0.00  0.00    +0.000 C 
ATOM     16  C   UNL     1       2.196   5.019  20.002  0.00  0.00    +0.000 C 
ATOM     17  C   UNL     1       1.549   4.153  21.044  0.00  0.00    +0.000 C 
ATOM     18  C   UNL     1       1.315   2.721  20.567  0.00  0.00    +0.000 C 
ATOM     19  C   UNL     1       0.741   2.706  19.155  0.00  0.00    +0.000 C 
ATOM     20  C   UNL     1       1.686   3.398  18.171  0.00  0.00    +0.000 C 
ENDBRANCH  14  15
ENDBRANCH  13  14
ENDBRANCH   3  13
TORSDOF 5
ENDMDL
MODEL 4
REMARK VINA RESULT:      -7.3      1.871      2.590
REMARK  Name = 
REMARK  5 active torsions:
REMARK  status: ('A' for Active; 'I' for Inactive)
REMARK    1  A    between atoms: C_2  and  C_3
REMARK    2  A    between atoms: C_3  and  C_4
REMARK    3  A    between atoms: N_11  and  C_12
REMARK    4  A    between atoms: C_12  and  C_13
REMARK    5  A    between atoms: C_13  and  C_14
REMARK                            x       y       z     vdW  Elec       q    Type
REMARK                         _______ _______ _______ _____ _____    ______ ____
ROOT
ATOM      1  O   UNL     1       7.871   5.985  17.660  0.00  0.00    +0.000 OA
ATOM      2  C   UNL     1       6.994   6.775  17.324  0.00  0.00    +0.000 C 
ATOM      3  N   UNL     1       7.121   8.144  17.441  0.00  0.00    +0.000 N 
ATOM      4  H   UNL     1       6.298   8.719  17.297  0.00  0.00    +0.000 HD
ENDROOT
BRANCH   2   5
ATOM      5  C   UNL     1       5.675   6.325  16.727  0.00  0.00    +0.000 C 
BRANCH   5   6
ATOM      6  C   UNL     1       4.537   6.350  17.710  0.00  0.00    +0.000 A 
ATOM      7  C   UNL     1       3.559   7.351  17.656  0.00  0.00    +0.000 A 
ATOM      8  C   UNL     1       2.522   7.378  18.592  0.00  0.00    +0.000 A 
ATOM      9  C   UNL     1       2.446   6.401  19.584  0.00  0.00    +0.000 A 
ATOM     10  C   UNL     1       3.402   5.388  19.635  0.00  0.00    +0.000 A 
ATOM     11  C   UNL     1       4.432   5.368  18.699  0.00  0.00    +0.000 A 
ATOM     12  F   UNL     1       5.346   4.387  18.758  0.00  0.00    +0.000 F 
ENDBRANCH   5   6
ENDBRANCH   2   5
BRANCH   3  13
ATOM     13  C   UNL     1       8.313   8.744  18.009  0.00  0.00    +0.000 C 
BRANCH  13  14
ATOM     14  C   UNL     1       8.356  10.259  17.784  0.00  0.00    +0.000 C 
BRANCH  14  15
ATOM     15  C   UNL     1       9.542  10.919  18.449  0.00  0.00    +0.000 C 
ATOM     16  C   UNL     1      10.511  11.519  17.733  0.00  0.00    +0.000 C 
ATOM     17  C   UNL     1      11.734  12.141  18.342  0.00  0.00    +0.000 C 
ATOM     18  C   UNL     1      11.945  11.737  19.800  0.00  0.00    +0.000 C 
ATOM     19  C   UNL     1      10.635  11.806  20.577  0.00  0.00    +0.000 C 
ATOM     20  C   UNL     1       9.583  10.880  19.962  0.00  0.00    +0.000 C 
ENDBRANCH  14  15
ENDBRANCH  13  14
ENDBRANCH   3  13
TORSDOF 5
ENDMDL
MODEL 5
REMARK VINA RESULT:      -7.3      1.112      1.590
REMARK  Name = 
REMARK  5 active torsions:
REMARK  status: ('A' for Active; 'I' for Inactive)
REMARK    1  A    between atoms: C_2  and  C_3
REMARK    2  A    between atoms: C_3  and  C_4
REMARK    3  A    between atoms: N_11  and  C_12
REMARK    4  A    between atoms: C_12  and  C_13
REMARK    5  A    between atoms: C_13  and  C_14
REMARK                            x       y       z     vdW  Elec       q    Type
REMARK                         _______ _______ _______ _____ _____    ______ ____
ROOT
ATOM      1  O   UNL     1       7.709   7.282  16.659  0.00  0.00    +0.000 OA
ATOM      2  C   UNL     1       7.894   7.096  17.858  0.00  0.00    +0.000 C 
ATOM      3  N   UNL     1       8.340   8.078  18.719  0.00  0.00    +0.000 N 
ATOM      4  H   UNL     1       8.624   7.808  19.654  0.00  0.00    +0.000 HD
ENDROOT
BRANCH   2   5
ATOM      5  C   UNL     1       7.637   5.760  18.526  0.00  0.00    +0.000 C 
BRANCH   5   6
ATOM      6  C   UNL     1       6.296   5.171  18.184  0.00  0.00    +0.000 A 
ATOM      7  C   UNL     1       5.199   5.328  19.042  0.00  0.00    +0.000 A 
ATOM      8  C   UNL     1       3.966   4.752  18.725  0.00  0.00    +0.000 A 
ATOM      9  C   UNL     1       3.813   4.024  17.546  0.00  0.00    +0.000 A 
ATOM     10  C   UNL     1       4.891   3.879  16.675  0.00  0.00    +0.000 A 
ATOM     11  C   UNL     1       6.117   4.455  16.997  0.00  0.00    +0.000 A 
ATOM     12  F   UNL     1       7.148   4.309  16.151  0.00  0.00    +0.000 F 
ENDBRANCH   5   6
ENDBRANCH   2   5
BRANCH   3  13
ATOM     13  C   UNL     1       8.653   9.412  18.241  0.00  0.00    +0.000 C 
BRANCH  13  14
ATOM     14  C   UNL     1       9.267  10.286  19.340  0.00  0.00    +0.000 C 
BRANCH  14  15
ATOM     15  C   UNL     1      10.167  11.371  18.796  0.00  0.00    +0.000 C 
ATOM     16  C   UNL     1       9.741  12.237  17.857  0.00  0.00    +0.000 C 
ATOM     17  C   UNL     1      10.612  13.297  17.245  0.00  0.00    +0.000 C 
ATOM     18  C   UNL     1      12.097  13.086  17.531  0.00  0.00    +0.000 C 
ATOM     19  C   UNL     1      12.322  12.721  18.994  0.00  0.00    +0.000 C 
ATOM     20  C   UNL     1      11.569  11.441  19.362  0.00  0.00    +0.000 C 
ENDBRANCH  14  15
ENDBRANCH  13  14
ENDBRANCH   3  13
TORSDOF 5
ENDMDL
MODEL 6
REMARK VINA RESULT:      -7.3      5.850      8.611
REMARK  Name = 
REMARK  5 active torsions:
REMARK  status: ('A' for Active; 'I' for Inactive)
REMARK    1  A    between atoms: C_2  and  C_3
REMARK    2  A    between atoms: C_3  and  C_4
REMARK    3  A    between atoms: N_11  and  C_12
REMARK    4  A    between atoms: C_12  and  C_13
REMARK    5  A    between atoms: C_13  and  C_14
REMARK                            x       y       z     vdW  Elec       q    Type
REMARK                         _______ _______ _______ _____ _____    ______ ____
ROOT
ATOM      1  O   UNL     1       1.925   5.922  17.808  0.00  0.00    +0.000 OA
ATOM      2  C   UNL     1       2.787   6.544  18.421  0.00  0.00    +0.000 C 
ATOM      3  N   UNL     1       2.796   6.672  19.795  0.00  0.00    +0.000 N 
ATOM      4  H   UNL     1       3.442   7.332  20.214  0.00  0.00    +0.000 HD
ENDROOT
BRANCH   2   5
ATOM      5  C   UNL     1       3.948   7.228  17.729  0.00  0.00    +0.000 C 
BRANCH   5   6
ATOM      6  C   UNL     1       5.068   6.289  17.373  0.00  0.00    +0.000 A 
ATOM      7  C   UNL     1       5.722   5.540  18.359  0.00  0.00    +0.000 A 
ATOM      8  C   UNL     1       6.779   4.693  18.018  0.00  0.00    +0.000 A 
ATOM      9  C   UNL     1       7.185   4.576  16.689  0.00  0.00    +0.000 A 
ATOM     10  C   UNL     1       6.528   5.300  15.697  0.00  0.00    +0.000 A 
ATOM     11  C   UNL     1       5.476   6.144  16.044  0.00  0.00    +0.000 A 
ATOM     12  F   UNL     1       4.850   6.835  15.079  0.00  0.00    +0.000 F 
ENDBRANCH   5   6
ENDBRANCH   2   5
BRANCH   3  13
ATOM     13  C   UNL     1       1.747   6.093  20.613  0.00  0.00    +0.000 C 
BRANCH  13  14
ATOM     14  C   UNL     1       2.165   4.747  21.213  0.00  0.00    +0.000 C 
BRANCH  14  15
ATOM     15  C   UNL     1       2.318   3.660  20.175  0.00  0.00    +0.000 C 
ATOM     16  C   UNL     1       3.519   3.128  19.880  0.00  0.00    +0.000 C 
ATOM     17  C   UNL     1       3.733   2.087  18.819  0.00  0.00    +0.000 C 
ATOM     18  C   UNL     1       2.534   1.935  17.884  0.00  0.00    +0.000 C 
ATOM     19  C   UNL     1       1.230   1.908  18.673  0.00  0.00    +0.000 C 
ATOM     20  C   UNL     1       1.054   3.193  19.486  0.00  0.00    +0.000 C 
ENDBRANCH  14  15
ENDBRANCH  13  14
ENDBRANCH   3  13
TORSDOF 5
ENDMDL
MODEL 7
REMARK VINA RESULT:      -7.3      5.636      7.411
REMARK  Name = 
REMARK  5 active torsions:
REMARK  status: ('A' for Active; 'I' for Inactive)
REMARK    1  A    between atoms: C_2  and  C_3
REMARK    2  A    between atoms: C_3  and  C_4
REMARK    3  A    between atoms: N_11  and  C_12
REMARK    4  A    between atoms: C_12  and  C_13
REMARK    5  A    between atoms: C_13  and  C_14
REMARK                            x       y       z     vdW  Elec       q    Type
REMARK                         _______ _______ _______ _____ _____    ______ ____
ROOT
ATOM      1  O   UNL     1       5.277   5.237  18.913  0.00  0.00    +0.000 OA
ATOM      2  C   UNL     1       4.441   5.770  18.190  0.00  0.00    +0.000 C 
ATOM      3  N   UNL     1       4.695   6.151  16.888  0.00  0.00    +0.000 N 
ATOM      4  H   UNL     1       4.012   6.728  16.412  0.00  0.00    +0.000 HD
ENDROOT
BRANCH   2   5
ATOM      5  C   UNL     1       3.025   6.054  18.651  0.00  0.00    +0.000 C 
BRANCH   5   6
ATOM      6  C   UNL     1       2.254   4.813  19.009  0.00  0.00    +0.000 A 
ATOM      7  C   UNL     1       2.034   3.804  18.063  0.00  0.00    +0.000 A 
ATOM      8  C   UNL     1       1.292   2.669  18.401  0.00  0.00    +0.000 A 
ATOM      9  C   UNL     1       0.773   2.526  19.688  0.00  0.00    +0.000 A 
ATOM     10  C   UNL     1       1.004   3.514  20.643  0.00  0.00    +0.000 A 
ATOM     11  C   UNL     1       1.743   4.643  20.298  0.00  0.00    +0.000 A 
ATOM     12  F   UNL     1       1.960   5.588  21.227  0.00  0.00    +0.000 F 
ENDBRANCH   5   6
ENDBRANCH   2   5
BRANCH   3  13
ATOM     13  C   UNL     1       6.005   5.968  16.293  0.00  0.00    +0.000 C 
BRANCH  13  14
ATOM     14  C   UNL     1       6.249   4.514  15.877  0.00  0.00    +0.000 C 
BRANCH  14  15
ATOM     15  C   UNL     1       6.396   4.345  14.382  0.00  0.00    +0.000 C 
ATOM     16  C   UNL     1       5.496   3.653  13.658  0.00  0.00    +0.000 C 
ATOM     17  C   UNL     1       5.625   3.410  12.182  0.00  0.00    +0.000 C 
ATOM     18  C   UNL     1       7.021   3.722  11.646  0.00  0.00    +0.000 C 
ATOM     19  C   UNL     1       7.536   5.041  12.209  0.00  0.00    +0.000 C 
ATOM     20  C   UNL     1       7.600   4.997  13.738  0.00  0.00    +0.000 C 
ENDBRANCH  14  15
ENDBRANCH  13  14
ENDBRANCH   3  13
TORSDOF 5
ENDMDL
MODEL 8
REMARK VINA RESULT:      -7.2      6.225      7.764
REMARK  Name = 
REMARK  5 active torsions:
REMARK  status: ('A' for Active; 'I' for Inactive)
REMARK    1  A    between atoms: C_2  and  C_3
REMARK    2  A    between atoms: C_3  and  C_4
REMARK    3  A    between atoms: N_11  and  C_12
REMARK    4  A    between atoms: C_12  and  C_13
REMARK    5  A    between atoms: C_13  and  C_14
REMARK                            x       y       z     vdW  Elec       q    Type
REMARK                         _______ _______ _______ _____ _____    ______ ____
ROOT
ATOM      1  O   UNL     1       5.457   5.781  18.774  0.00  0.00    +0.000 OA
ATOM      2  C   UNL     1       4.387   5.462  18.264  0.00  0.00    +0.000 C 
ATOM      3  N   UNL     1       4.290   4.685  17.128  0.00  0.00    +0.000 N 
ATOM      4  H   UNL     1       3.386   4.602  16.676  0.00  0.00    +0.000 HD
ENDROOT
BRANCH   2   5
ATOM      5  C   UNL     1       3.050   5.883  18.841  0.00  0.00    +0.000 C 
BRANCH   5   6
ATOM      6  C   UNL     1       2.363   4.789  19.611  0.00  0.00    +0.000 A 
ATOM      7  C   UNL     1       2.676   4.546  20.954  0.00  0.00    +0.000 A 
ATOM      8  C   UNL     1       2.049   3.508  21.649  0.00  0.00    +0.000 A 
ATOM      9  C   UNL     1       1.097   2.711  21.014  0.00  0.00    +0.000 A 
ATOM     10  C   UNL     1       0.763   2.957  19.684  0.00  0.00    +0.000 A 
ATOM     11  C   UNL     1       1.391   3.992  18.997  0.00  0.00    +0.000 A 
ATOM     12  F   UNL     1       1.060   4.220  17.717  0.00  0.00    +0.000 F 
ENDBRANCH   5   6
ENDBRANCH   2   5
BRANCH   3  13
ATOM     13  C   UNL     1       5.473   4.211  16.437  0.00  0.00    +0.000 C 
BRANCH  13  14
ATOM     14  C   UNL     1       5.998   5.237  15.427  0.00  0.00    +0.000 C 
BRANCH  14  15
ATOM     15  C   UNL     1       6.233   4.648  14.055  0.00  0.00    +0.000 C 
ATOM     16  C   UNL     1       5.356   3.796  13.492  0.00  0.00    +0.000 C 
ATOM     17  C   UNL     1       5.570   3.142  12.158  0.00  0.00    +0.000 C 
ATOM     18  C   UNL     1       7.008   3.262  11.659  0.00  0.00    +0.000 C 
ATOM     19  C   UNL     1       7.538   4.677  11.863  0.00  0.00    +0.000 C 
ATOM     20  C   UNL     1       7.501   5.067  13.343  0.00  0.00    +0.000 C 
ENDBRANCH  14  15
ENDBRANCH  13  14
ENDBRANCH   3  13
TORSDOF 5
ENDMDL
MODEL 9
REMARK VINA RESULT:      -7.2      5.980      8.425
REMARK  Name = 
REMARK  5 active torsions:
REMARK  status: ('A' for Active; 'I' for Inactive)
REMARK    1  A    between atoms: C_2  and  C_3
REMARK    2  A    between atoms: C_3  and  C_4
REMARK    3  A    between atoms: N_11  and  C_12
REMARK    4  A    between atoms: C_12  and  C_13
REMARK    5  A    between atoms: C_13  and  C_14
REMARK                            x       y       z     vdW  Elec       q    Type
REMARK                         _______ _______ _______ _____ _____    ______ ____
ROOT
ATOM      1  O   UNL     1       5.164   6.903  15.405  0.00  0.00    +0.000 OA
ATOM      2  C   UNL     1       5.679   5.994  16.050  0.00  0.00    +0.000 C 
ATOM      3  N   UNL     1       5.209   5.574  17.278  0.00  0.00    +0.000 N 
ATOM      4  H   UNL     1       5.779   4.935  17.820  0.00  0.00    +0.000 HD
ENDROOT
BRANCH   2   5
ATOM      5  C   UNL     1       6.885   5.222  15.554  0.00  0.00    +0.000 C 
BRANCH   5   6
ATOM      6  C   UNL     1       6.691   4.628  14.185  0.00  0.00    +0.000 A 
ATOM      7  C   UNL     1       5.613   3.777  13.915  0.00  0.00    +0.000 A 
ATOM      8  C   UNL     1       5.461   3.210  12.647  0.00  0.00    +0.000 A 
ATOM      9  C   UNL     1       6.376   3.496  11.635  0.00  0.00    +0.000 A 
ATOM     10  C   UNL     1       7.441   4.359  11.887  0.00  0.00    +0.000 A 
ATOM     11  C   UNL     1       7.587   4.919  13.153  0.00  0.00    +0.000 A 
ATOM     12  F   UNL     1       8.617   5.749  13.383  0.00  0.00    +0.000 F 
ENDBRANCH   5   6
ENDBRANCH   2   5
BRANCH   3  13
ATOM     13  C   UNL     1       4.072   6.217  17.908  0.00  0.00    +0.000 C 
BRANCH  13  14
ATOM     14  C   UNL     1       3.892   5.769  19.362  0.00  0.00    +0.000 C 
BRANCH  14  15
ATOM     15  C   UNL     1       2.847   4.690  19.522  0.00  0.00    +0.000 C 
ATOM     16  C   UNL     1       2.448   3.933  18.483  0.00  0.00    +0.000 C 
ATOM     17  C   UNL     1       1.376   2.886  18.577  0.00  0.00    +0.000 C 
ATOM     18  C   UNL     1       0.551   2.992  19.858  0.00  0.00    +0.000 C 
ATOM     19  C   UNL     1       1.452   3.215  21.067  0.00  0.00    +0.000 C 
ATOM     20  C   UNL     1       2.273   4.497  20.910  0.00  0.00    +0.000 C 
ENDBRANCH  14  15
ENDBRANCH  13  14
ENDBRANCH   3  13
TORSDOF 5
ENDMDL
