MODEL 1
REMARK VINA RESULT:      -9.2      0.000      0.000
REMARK  Name = 
REMARK  6 active torsions:
REMARK  status: ('A' for Active; 'I' for Inactive)
REMARK    1  A    between atoms: C_1  and  C_2
REMARK    2  A    between atoms: C_5  and  S_6
REMARK    3  A    between atoms: S_6  and  N_9
REMARK    4  A    between atoms: N_9  and  C_10
REMARK    5  A    between atoms: C_14  and  C_15
REMARK    6  A    between atoms: C_27  and  C_28
REMARK                            x       y       z     vdW  Elec       q    Type
REMARK                         _______ _______ _______ _____ _____    ______ ____
ROOT
ATOM      1  C   UNL     1       5.153   3.699  17.278  0.00  0.00    +0.000 A 
ATOM      2  C   UNL     1       5.412   3.274  15.980  0.00  0.00    +0.000 A 
ATOM      3  C   UNL     1       6.244   4.027  15.155  0.00  0.00    +0.000 A 
ATOM      4  C   UNL     1       6.836   5.194  15.640  0.00  0.00    +0.000 A 
ATOM      5  C   UNL     1       6.598   5.635  16.952  0.00  0.00    +0.000 A 
ATOM      6  C   UNL     1       5.732   4.869  17.757  0.00  0.00    +0.000 A 
ENDROOT
BRANCH   5   7
ATOM      7  C   UNL     1       7.236   6.851  17.473  0.00  0.00    +0.000 A 
ATOM      8  C   UNL     1       8.064   6.834  18.580  0.00  0.00    +0.000 A 
ATOM      9  C   UNL     1       8.652   8.016  19.006  0.00  0.00    +0.000 A 
ATOM     10  C   UNL     1       8.412   9.212  18.344  0.00  0.00    +0.000 A 
ATOM     11  N   UNL     1       8.998  10.374  18.765  0.00  0.00    +0.000 N 
ATOM     12  C   UNL     1       8.799  11.654  18.116  0.00  0.00    +0.000 C 
ATOM     13  C   UNL     1      10.095  12.379  18.466  0.00  0.00    +0.000 C 
ATOM     14  C   UNL     1      10.405  11.900  19.880  0.00  0.00    +0.000 C 
ATOM     15  C   UNL     1       9.840  10.484  19.942  0.00  0.00    +0.000 C 
ATOM     16  N   UNL     1       7.597   9.192  17.269  0.00  0.00    +0.000 NA
ATOM     17  N   UNL     1       7.005   8.013  16.829  0.00  0.00    +0.000 NA
ENDBRANCH   5   7
BRANCH   1  18
ATOM     18  N   UNL     1       4.369   2.918  18.158  0.00  0.00    +0.000 N 
ATOM     19  H   UNL     1       4.739   2.022  18.465  0.00  0.00    +0.000 HD
BRANCH  18  20
ATOM     20  S   UNL     1       2.695   3.047  18.169  0.00  0.00    +0.000 S 
ATOM     21  O   UNL     1       2.168   1.968  18.990  0.00  0.00    +0.000 OA
ATOM     22  O   UNL     1       2.270   3.200  16.792  0.00  0.00    +0.000 OA
BRANCH  20  27
ATOM     23  C   UNL     1       1.564   8.428  20.804  0.00  0.00    +0.000 C 
ATOM     24  C   UNL     1       1.860   7.104  20.161  0.00  0.00    +0.000 A 
ATOM     25  C   UNL     1       2.233   7.019  18.819  0.00  0.00    +0.000 A 
ATOM     26  C   UNL     1       2.488   5.776  18.235  0.00  0.00    +0.000 A 
ATOM     27  C   UNL     1       2.376   4.599  18.994  0.00  0.00    +0.000 A 
ATOM     28  C   UNL     1       2.027   4.663  20.355  0.00  0.00    +0.000 A 
ATOM     29  C   UNL     1       1.873   3.476  21.269  0.00  0.00    +0.000 C 
ATOM     30  C   UNL     1       1.762   5.927  20.916  0.00  0.00    +0.000 A 
ENDBRANCH  20  27
ENDBRANCH  18  20
ENDBRANCH   1  18
TORSDOF 4
ENDMDL
MODEL 2
REMARK VINA RESULT:      -8.8      4.846      8.197
REMARK  Name = 
REMARK  6 active torsions:
REMARK  status: ('A' for Active; 'I' for Inactive)
REMARK    1  A    between atoms: C_1  and  C_2
REMARK    2  A    between atoms: C_5  and  S_6
REMARK    3  A    between atoms: S_6  and  N_9
REMARK    4  A    between atoms: N_9  and  C_10
REMARK    5  A    between atoms: C_14  and  C_15
REMARK    6  A    between atoms: C_27  and  C_28
REMARK                            x       y       z     vdW  Elec       q    Type
REMARK                         _______ _______ _______ _____ _____    ______ ____
ROOT
ATOM      1  C   UNL     1       2.068   7.290  19.847  0.00  0.00    +0.000 A 
ATOM      2  C   UNL     1       2.452   7.409  18.516  0.00  0.00    +0.000 A 
ATOM      3  C   UNL     1       2.085   8.535  17.784  0.00  0.00    +0.000 A 
ATOM      4  C   UNL     1       1.352   9.555  18.394  0.00  0.00    +0.000 A 
ATOM      5  C   UNL     1       0.963   9.462  19.740  0.00  0.00    +0.000 A 
ATOM      6  C   UNL     1       1.326   8.300  20.451  0.00  0.00    +0.000 A 
ENDROOT
BRANCH   5   7
ATOM      7  C   UNL     1       0.211  10.542  20.391  0.00  0.00    +0.000 A 
ATOM      8  C   UNL     1      -0.955  11.057  19.856  0.00  0.00    +0.000 A 
ATOM      9  C   UNL     1      -1.628  12.061  20.534  0.00  0.00    +0.000 A 
ATOM     10  C   UNL     1      -1.142  12.562  21.734  0.00  0.00    +0.000 A 
ATOM     11  N   UNL     1      -1.812  13.550  22.402  0.00  0.00    +0.000 N 
ATOM     12  C   UNL     1      -1.367  14.111  23.661  0.00  0.00    +0.000 C 
ATOM     13  C   UNL     1      -2.686  14.574  24.273  0.00  0.00    +0.000 C 
ATOM     14  C   UNL     1      -3.486  15.066  23.072  0.00  0.00    +0.000 C 
ATOM     15  C   UNL     1      -3.012  14.200  21.909  0.00  0.00    +0.000 C 
ATOM     16  N   UNL     1      -0.001  12.038  22.227  0.00  0.00    +0.000 NA
ATOM     17  N   UNL     1       0.681  11.026  21.558  0.00  0.00    +0.000 NA
ENDBRANCH   5   7
BRANCH   1  18
ATOM     18  N   UNL     1       2.486   6.192  20.632  0.00  0.00    +0.000 N 
ATOM     19  H   UNL     1       3.172   6.358  21.364  0.00  0.00    +0.000 HD
BRANCH  18  20
ATOM     20  S   UNL     1       2.451   4.629  20.018  0.00  0.00    +0.000 S 
ATOM     21  O   UNL     1       1.214   4.470  19.269  0.00  0.00    +0.000 OA
ATOM     22  O   UNL     1       2.767   3.734  21.113  0.00  0.00    +0.000 OA
BRANCH  20  27
ATOM     23  C   UNL     1       7.258   4.459  16.273  0.00  0.00    +0.000 C 
ATOM     24  C   UNL     1       6.068   4.516  17.186  0.00  0.00    +0.000 A 
ATOM     25  C   UNL     1       6.130   5.176  18.414  0.00  0.00    +0.000 A 
ATOM     26  C   UNL     1       5.016   5.204  19.257  0.00  0.00    +0.000 A 
ATOM     27  C   UNL     1       3.821   4.570  18.876  0.00  0.00    +0.000 A 
ATOM     28  C   UNL     1       3.729   3.920  17.631  0.00  0.00    +0.000 A 
ATOM     29  C   UNL     1       2.509   3.206  17.113  0.00  0.00    +0.000 C 
ATOM     30  C   UNL     1       4.869   3.896  16.806  0.00  0.00    +0.000 A 
ENDBRANCH  20  27
ENDBRANCH  18  20
ENDBRANCH   1  18
TORSDOF 4
ENDMDL
MODEL 3
REMARK VINA RESULT:      -8.8      3.155      6.681
REMARK  Name = 
REMARK  6 active torsions:
REMARK  status: ('A' for Active; 'I' for Inactive)
REMARK    1  A    between atoms: C_1  and  C_2
REMARK    2  A    between atoms: C_5  and  S_6
REMARK    3  A    between atoms: S_6  and  N_9
REMARK    4  A    between atoms: N_9  and  C_10
REMARK    5  A    between atoms: C_14  and  C_15
REMARK    6  A    between atoms: C_27  and  C_28
REMARK                            x       y       z     vdW  Elec       q    Type
REMARK                         _______ _______ _______ _____ _____    ______ ____
ROOT
ATOM      1  C   UNL     1       4.115   3.761  19.423  0.00  0.00    +0.000 A 
ATOM      2  C   UNL     1       3.501   2.846  20.271  0.00  0.00    +0.000 A 
ATOM      3  C   UNL     1       2.424   3.242  21.059  0.00  0.00    +0.000 A 
ATOM      4  C   UNL     1       1.945   4.550  20.978  0.00  0.00    +0.000 A 
ATOM      5  C   UNL     1       2.541   5.489  20.120  0.00  0.00    +0.000 A 
ATOM      6  C   UNL     1       3.647   5.069  19.353  0.00  0.00    +0.000 A 
ENDROOT
BRANCH   5   7
ATOM      7  C   UNL     1       2.027   6.860  20.016  0.00  0.00    +0.000 A 
ATOM      8  C   UNL     1       2.218   7.638  18.889  0.00  0.00    +0.000 A 
ATOM      9  C   UNL     1       1.685   8.918  18.849  0.00  0.00    +0.000 A 
ATOM     10  C   UNL     1       0.975   9.430  19.927  0.00  0.00    +0.000 A 
ATOM     11  N   UNL     1       0.449  10.691  19.881  0.00  0.00    +0.000 N 
ATOM     12  C   UNL     1      -0.310  11.283  20.963  0.00  0.00    +0.000 C 
ATOM     13  C   UNL     1      -1.194  12.273  20.211  0.00  0.00    +0.000 C 
ATOM     14  C   UNL     1      -0.293  12.784  19.093  0.00  0.00    +0.000 C 
ATOM     15  C   UNL     1       0.631  11.612  18.774  0.00  0.00    +0.000 C 
ATOM     16  N   UNL     1       0.809   8.644  21.011  0.00  0.00    +0.000 NA
ATOM     17  N   UNL     1       1.334   7.357  21.061  0.00  0.00    +0.000 NA
ENDBRANCH   5   7
BRANCH   1  18
ATOM     18  N   UNL     1       5.165   3.368  18.562  0.00  0.00    +0.000 N 
ATOM     19  H   UNL     1       6.009   2.982  18.979  0.00  0.00    +0.000 HD
BRANCH  18  20
ATOM     20  S   UNL     1       5.369   4.093  17.062  0.00  0.00    +0.000 S 
ATOM     21  O   UNL     1       4.053   4.454  16.557  0.00  0.00    +0.000 OA
ATOM     22  O   UNL     1       6.244   3.235  16.289  0.00  0.00    +0.000 OA
BRANCH  20  27
ATOM     23  C   UNL     1       8.621   9.093  18.326  0.00  0.00    +0.000 C 
ATOM     24  C   UNL     1       7.807   7.867  18.028  0.00  0.00    +0.000 A 
ATOM     25  C   UNL     1       8.066   6.655  18.667  0.00  0.00    +0.000 A 
ATOM     26  C   UNL     1       7.308   5.521  18.363  0.00  0.00    +0.000 A 
ATOM     27  C   UNL     1       6.276   5.591  17.413  0.00  0.00    +0.000 A 
ATOM     28  C   UNL     1       5.981   6.810  16.774  0.00  0.00    +0.000 A 
ATOM     29  C   UNL     1       4.905   7.010  15.741  0.00  0.00    +0.000 C 
ATOM     30  C   UNL     1       6.767   7.934  17.089  0.00  0.00    +0.000 A 
ENDBRANCH  20  27
ENDBRANCH  18  20
ENDBRANCH   1  18
TORSDOF 4
ENDMDL
MODEL 4
REMARK VINA RESULT:      -8.8      2.855      6.451
REMARK  Name = 
REMARK  6 active torsions:
REMARK  status: ('A' for Active; 'I' for Inactive)
REMARK    1  A    between atoms: C_1  and  C_2
REMARK    2  A    between atoms: C_5  and  S_6
REMARK    3  A    between atoms: S_6  and  N_9
REMARK    4  A    between atoms: N_9  and  C_10
REMARK    5  A    between atoms: C_14  and  C_15
REMARK    6  A    between atoms: C_27  and  C_28
REMARK                            x       y       z     vdW  Elec       q    Type
REMARK                         _______ _______ _______ _____ _____    ______ ____
ROOT
ATOM      1  C   UNL     1       3.878   3.561  19.407  0.00  0.00    +0.000 A 
ATOM      2  C   UNL     1       3.249   2.628  20.224  0.00  0.00    +0.000 A 
ATOM      3  C   UNL     1       2.202   3.023  21.053  0.00  0.00    +0.000 A 
ATOM      4  C   UNL     1       1.769   4.349  21.044  0.00  0.00    +0.000 A 
ATOM      5  C   UNL     1       2.380   5.306  20.217  0.00  0.00    +0.000 A 
ATOM      6  C   UNL     1       3.455   4.886  19.408  0.00  0.00    +0.000 A 
ENDROOT
BRANCH   5   7
ATOM      7  C   UNL     1       1.913   6.698  20.189  0.00  0.00    +0.000 A 
ATOM      8  C   UNL     1       1.209   7.262  21.237  0.00  0.00    +0.000 A 
ATOM      9  C   UNL     1       0.817   8.590  21.155  0.00  0.00    +0.000 A 
ATOM     10  C   UNL     1       1.111   9.353  20.033  0.00  0.00    +0.000 A 
ATOM     11  N   UNL     1       0.725  10.663  19.958  0.00  0.00    +0.000 N 
ATOM     12  C   UNL     1       1.007  11.518  18.824  0.00  0.00    +0.000 C 
ATOM     13  C   UNL     1       1.027  12.896  19.477  0.00  0.00    +0.000 C 
ATOM     14  C   UNL     1      -0.060  12.806  20.542  0.00  0.00    +0.000 C 
ATOM     15  C   UNL     1      -0.061  11.342  20.972  0.00  0.00    +0.000 C 
ATOM     16  N   UNL     1       1.797   8.770  19.028  0.00  0.00    +0.000 NA
ATOM     17  N   UNL     1       2.200   7.440  19.101  0.00  0.00    +0.000 NA
ENDBRANCH   5   7
BRANCH   1  18
ATOM     18  N   UNL     1       4.896   3.173  18.506  0.00  0.00    +0.000 N 
ATOM     19  H   UNL     1       5.733   2.738  18.885  0.00  0.00    +0.000 HD
BRANCH  18  20
ATOM     20  S   UNL     1       5.095   3.962  17.037  0.00  0.00    +0.000 S 
ATOM     21  O   UNL     1       3.788   4.425  16.597  0.00  0.00    +0.000 OA
ATOM     22  O   UNL     1       5.892   3.094  16.192  0.00  0.00    +0.000 OA
BRANCH  20  27
ATOM     23  C   UNL     1       8.670   8.692  18.457  0.00  0.00    +0.000 C 
ATOM     24  C   UNL     1       7.776   7.533  18.119  0.00  0.00    +0.000 A 
ATOM     25  C   UNL     1       7.886   6.316  18.792  0.00  0.00    +0.000 A 
ATOM     26  C   UNL     1       7.056   5.244  18.451  0.00  0.00    +0.000 A 
ATOM     27  C   UNL     1       6.101   5.384  17.430  0.00  0.00    +0.000 A 
ATOM     28  C   UNL     1       5.956   6.610  16.756  0.00  0.00    +0.000 A 
ATOM     29  C   UNL     1       4.974   6.881  15.647  0.00  0.00    +0.000 C 
ATOM     30  C   UNL     1       6.813   7.669  17.110  0.00  0.00    +0.000 A 
ENDBRANCH  20  27
ENDBRANCH  18  20
ENDBRANCH   1  18
TORSDOF 4
ENDMDL
MODEL 5
REMARK VINA RESULT:      -8.7      4.145      6.872
REMARK  Name = 
REMARK  6 active torsions:
REMARK  status: ('A' for Active; 'I' for Inactive)
REMARK    1  A    between atoms: C_1  and  C_2
REMARK    2  A    between atoms: C_5  and  S_6
REMARK    3  A    between atoms: S_6  and  N_9
REMARK    4  A    between atoms: N_9  and  C_10
REMARK    5  A    between atoms: C_14  and  C_15
REMARK    6  A    between atoms: C_27  and  C_28
REMARK                            x       y       z     vdW  Elec       q    Type
REMARK                         _______ _______ _______ _____ _____    ______ ____
ROOT
ATOM      1  C   UNL     1       4.748   4.367  18.730  0.00  0.00    +0.000 A 
ATOM      2  C   UNL     1       3.963   3.342  18.214  0.00  0.00    +0.000 A 
ATOM      3  C   UNL     1       2.609   3.559  17.970  0.00  0.00    +0.000 A 
ATOM      4  C   UNL     1       2.048   4.812  18.220  0.00  0.00    +0.000 A 
ATOM      5  C   UNL     1       2.825   5.865  18.729  0.00  0.00    +0.000 A 
ATOM      6  C   UNL     1       4.186   5.612  18.992  0.00  0.00    +0.000 A 
ENDROOT
BRANCH   5   7
ATOM      7  C   UNL     1       2.243   7.191  18.974  0.00  0.00    +0.000 A 
ATOM      8  C   UNL     1       2.111   8.136  17.973  0.00  0.00    +0.000 A 
ATOM      9  C   UNL     1       1.531   9.361  18.268  0.00  0.00    +0.000 A 
ATOM     10  C   UNL     1       1.093   9.653  19.553  0.00  0.00    +0.000 A 
ATOM     11  N   UNL     1       0.518  10.861  19.837  0.00  0.00    +0.000 N 
ATOM     12  C   UNL     1       0.031  11.228  21.151  0.00  0.00    +0.000 C 
ATOM     13  C   UNL     1      -1.055  12.240  20.803  0.00  0.00    +0.000 C 
ATOM     14  C   UNL     1      -0.486  12.978  19.597  0.00  0.00    +0.000 C 
ATOM     15  C   UNL     1       0.377  11.944  18.882  0.00  0.00    +0.000 C 
ATOM     16  N   UNL     1       1.239   8.709  20.505  0.00  0.00    +0.000 NA
ATOM     17  N   UNL     1       1.815   7.474  20.221  0.00  0.00    +0.000 NA
ENDBRANCH   5   7
BRANCH   1  18
ATOM     18  N   UNL     1       6.138   4.195  18.921  0.00  0.00    +0.000 N 
ATOM     19  H   UNL     1       6.475   4.009  19.863  0.00  0.00    +0.000 HD
BRANCH  18  20
ATOM     20  S   UNL     1       7.248   4.919  17.889  0.00  0.00    +0.000 S 
ATOM     21  O   UNL     1       8.483   4.151  17.950  0.00  0.00    +0.000 OA
ATOM     22  O   UNL     1       7.247   6.336  18.189  0.00  0.00    +0.000 OA
BRANCH  20  27
ATOM     23  C   UNL     1       4.833   4.046  12.359  0.00  0.00    +0.000 C 
ATOM     24  C   UNL     1       5.442   4.270  13.713  0.00  0.00    +0.000 A 
ATOM     25  C   UNL     1       6.270   3.313  14.301  0.00  0.00    +0.000 A 
ATOM     26  C   UNL     1       6.814   3.533  15.569  0.00  0.00    +0.000 A 
ATOM     27  C   UNL     1       6.535   4.723  16.264  0.00  0.00    +0.000 A 
ATOM     28  C   UNL     1       5.724   5.712  15.679  0.00  0.00    +0.000 A 
ATOM     29  C   UNL     1       5.354   7.022  16.323  0.00  0.00    +0.000 C 
ATOM     30  C   UNL     1       5.179   5.460  14.406  0.00  0.00    +0.000 A 
ENDBRANCH  20  27
ENDBRANCH  18  20
ENDBRANCH   1  18
TORSDOF 4
ENDMDL
MODEL 6
REMARK VINA RESULT:      -8.7      3.689      6.813
REMARK  Name = 
REMARK  6 active torsions:
REMARK  status: ('A' for Active; 'I' for Inactive)
REMARK    1  A    between atoms: C_1  and  C_2
REMARK    2  A    between atoms: C_5  and  S_6
REMARK    3  A    between atoms: S_6  and  N_9
REMARK    4  A    between atoms: N_9  and  C_10
REMARK    5  A    between atoms: C_14  and  C_15
REMARK    6  A    between atoms: C_27  and  C_28
REMARK                            x       y       z     vdW  Elec       q    Type
REMARK                         _______ _______ _______ _____ _____    ______ ____
ROOT
ATOM      1  C   UNL     1       3.035   5.141  18.623  0.00  0.00    +0.000 A 
ATOM      2  C   UNL     1       2.688   4.365  19.723  0.00  0.00    +0.000 A 
ATOM      3  C   UNL     1       2.027   4.945  20.802  0.00  0.00    +0.000 A 
ATOM      4  C   UNL     1       1.689   6.298  20.768  0.00  0.00    +0.000 A 
ATOM      5  C   UNL     1       2.019   7.099  19.662  0.00  0.00    +0.000 A 
ATOM      6  C   UNL     1       2.711   6.494  18.595  0.00  0.00    +0.000 A 
ENDROOT
BRANCH   5   7
ATOM      7  C   UNL     1       1.647   8.519  19.613  0.00  0.00    +0.000 A 
ATOM      8  C   UNL     1       1.725   9.263  18.451  0.00  0.00    +0.000 A 
ATOM      9  C   UNL     1       1.337  10.594  18.469  0.00  0.00    +0.000 A 
ATOM     10  C   UNL     1       0.882  11.189  19.639  0.00  0.00    +0.000 A 
ATOM     11  N   UNL     1       0.496  12.502  19.651  0.00  0.00    +0.000 N 
ATOM     12  C   UNL     1       0.003  13.181  20.831  0.00  0.00    +0.000 C 
ATOM     13  C   UNL     1      -0.883  14.259  20.215  0.00  0.00    +0.000 C 
ATOM     14  C   UNL     1      -0.137  14.659  18.948  0.00  0.00    +0.000 C 
ATOM     15  C   UNL     1       0.585  13.390  18.507  0.00  0.00    +0.000 C 
ATOM     16  N   UNL     1       0.820  10.434  20.755  0.00  0.00    +0.000 NA
ATOM     17  N   UNL     1       1.202   9.096  20.747  0.00  0.00    +0.000 NA
ENDBRANCH   5   7
BRANCH   1  18
ATOM     18  N   UNL     1       3.645   4.564  17.486  0.00  0.00    +0.000 N 
ATOM     19  H   UNL     1       3.050   4.096  16.807  0.00  0.00    +0.000 HD
BRANCH  18  20
ATOM     20  S   UNL     1       5.237   4.033  17.535  0.00  0.00    +0.000 S 
ATOM     21  O   UNL     1       5.547   3.427  16.250  0.00  0.00    +0.000 OA
ATOM     22  O   UNL     1       5.396   3.278  18.762  0.00  0.00    +0.000 OA
BRANCH  20  27
ATOM     23  C   UNL     1       8.664   9.029  18.219  0.00  0.00    +0.000 C 
ATOM     24  C   UNL     1       7.807   7.806  18.061  0.00  0.00    +0.000 A 
ATOM     25  C   UNL     1       7.958   6.704  18.903  0.00  0.00    +0.000 A 
ATOM     26  C   UNL     1       7.161   5.569  18.730  0.00  0.00    +0.000 A 
ATOM     27  C   UNL     1       6.198   5.528  17.708  0.00  0.00    +0.000 A 
ATOM     28  C   UNL     1       6.012   6.637  16.863  0.00  0.00    +0.000 A 
ATOM     29  C   UNL     1       5.017   6.712  15.736  0.00  0.00    +0.000 C 
ATOM     30  C   UNL     1       6.835   7.763  17.051  0.00  0.00    +0.000 A 
ENDBRANCH  20  27
ENDBRANCH  18  20
ENDBRANCH   1  18
TORSDOF 4
ENDMDL
MODEL 7
REMARK VINA RESULT:      -8.7      3.386      6.642
REMARK  Name = 
REMARK  6 active torsions:
REMARK  status: ('A' for Active; 'I' for Inactive)
REMARK    1  A    between atoms: C_1  and  C_2
REMARK    2  A    between atoms: C_5  and  S_6
REMARK    3  A    between atoms: S_6  and  N_9
REMARK    4  A    between atoms: N_9  and  C_10
REMARK    5  A    between atoms: C_14  and  C_15
REMARK    6  A    between atoms: C_27  and  C_28
REMARK                            x       y       z     vdW  Elec       q    Type
REMARK                         _______ _______ _______ _____ _____    ______ ____
ROOT
ATOM      1  C   UNL     1       4.653   4.352  18.568  0.00  0.00    +0.000 A 
ATOM      2  C   UNL     1       3.858   3.377  17.977  0.00  0.00    +0.000 A 
ATOM      3  C   UNL     1       2.519   3.645  17.701  0.00  0.00    +0.000 A 
ATOM      4  C   UNL     1       1.985   4.900  17.994  0.00  0.00    +0.000 A 
ATOM      5  C   UNL     1       2.773   5.905  18.579  0.00  0.00    +0.000 A 
ATOM      6  C   UNL     1       4.117   5.599  18.873  0.00  0.00    +0.000 A 
ENDROOT
BRANCH   5   7
ATOM      7  C   UNL     1       2.220   7.234  18.870  0.00  0.00    +0.000 A 
ATOM      8  C   UNL     1       2.084   8.206  17.896  0.00  0.00    +0.000 A 
ATOM      9  C   UNL     1       1.532   9.433  18.234  0.00  0.00    +0.000 A 
ATOM     10  C   UNL     1       1.127   9.700  19.535  0.00  0.00    +0.000 A 
ATOM     11  N   UNL     1       0.580  10.910  19.862  0.00  0.00    +0.000 N 
ATOM     12  C   UNL     1       0.128  11.251  21.195  0.00  0.00    +0.000 C 
ATOM     13  C   UNL     1      -0.947  12.291  20.897  0.00  0.00    +0.000 C 
ATOM     14  C   UNL     1      -0.391  13.049  19.697  0.00  0.00    +0.000 C 
ATOM     15  C   UNL     1       0.438  12.019  18.937  0.00  0.00    +0.000 C 
ATOM     16  N   UNL     1       1.277   8.729  20.460  0.00  0.00    +0.000 NA
ATOM     17  N   UNL     1       1.824   7.492  20.132  0.00  0.00    +0.000 NA
ENDBRANCH   5   7
BRANCH   1  18
ATOM     18  N   UNL     1       6.031   4.131  18.796  0.00  0.00    +0.000 N 
ATOM     19  H   UNL     1       6.371   4.161  19.754  0.00  0.00    +0.000 HD
BRANCH  18  20
ATOM     20  S   UNL     1       7.170   4.489  17.615  0.00  0.00    +0.000 S 
ATOM     21  O   UNL     1       6.584   4.180  16.319  0.00  0.00    +0.000 OA
ATOM     22  O   UNL     1       8.416   3.874  18.024  0.00  0.00    +0.000 OA
BRANCH  20  27
ATOM     23  C   UNL     1       8.110  10.494  18.090  0.00  0.00    +0.000 C 
ATOM     24  C   UNL     1       7.864   9.017  17.986  0.00  0.00    +0.000 A 
ATOM     25  C   UNL     1       8.591   8.107  18.754  0.00  0.00    +0.000 A 
ATOM     26  C   UNL     1       8.359   6.735  18.631  0.00  0.00    +0.000 A 
ATOM     27  C   UNL     1       7.390   6.257  17.733  0.00  0.00    +0.000 A 
ATOM     28  C   UNL     1       6.628   7.158  16.966  0.00  0.00    +0.000 A 
ATOM     29  C   UNL     1       5.566   6.769  15.972  0.00  0.00    +0.000 C 
ATOM     30  C   UNL     1       6.890   8.534  17.101  0.00  0.00    +0.000 A 
ENDBRANCH  20  27
ENDBRANCH  18  20
ENDBRANCH   1  18
TORSDOF 4
ENDMDL
MODEL 8
REMARK VINA RESULT:      -8.6      4.370      7.957
REMARK  Name = 
REMARK  6 active torsions:
REMARK  status: ('A' for Active; 'I' for Inactive)
REMARK    1  A    between atoms: C_1  and  C_2
REMARK    2  A    between atoms: C_5  and  S_6
REMARK    3  A    between atoms: S_6  and  N_9
REMARK    4  A    between atoms: N_9  and  C_10
REMARK    5  A    between atoms: C_14  and  C_15
REMARK    6  A    between atoms: C_27  and  C_28
REMARK                            x       y       z     vdW  Elec       q    Type
REMARK                         _______ _______ _______ _____ _____    ______ ____
ROOT
ATOM      1  C   UNL     1       2.845   6.794  19.342  0.00  0.00    +0.000 A 
ATOM      2  C   UNL     1       3.219   7.130  18.045  0.00  0.00    +0.000 A 
ATOM      3  C   UNL     1       2.687   8.266  17.440  0.00  0.00    +0.000 A 
ATOM      4  C   UNL     1       1.800   9.080  18.145  0.00  0.00    +0.000 A 
ATOM      5  C   UNL     1       1.418   8.768  19.460  0.00  0.00    +0.000 A 
ATOM      6  C   UNL     1       1.950   7.599  20.039  0.00  0.00    +0.000 A 
ENDROOT
BRANCH   5   7
ATOM      7  C   UNL     1       0.501   9.634  20.213  0.00  0.00    +0.000 A 
ATOM      8  C   UNL     1       0.150   9.375  21.524  0.00  0.00    +0.000 A 
ATOM      9  C   UNL     1      -0.704  10.247  22.183  0.00  0.00    +0.000 A 
ATOM     10  C   UNL     1      -1.218  11.366  21.541  0.00  0.00    +0.000 A 
ATOM     11  N   UNL     1      -2.056  12.225  22.196  0.00  0.00    +0.000 N 
ATOM     12  C   UNL     1      -2.619  13.414  21.591  0.00  0.00    +0.000 C 
ATOM     13  C   UNL     1      -2.840  14.303  22.811  0.00  0.00    +0.000 C 
ATOM     14  C   UNL     1      -3.258  13.321  23.900  0.00  0.00    +0.000 C 
ATOM     15  C   UNL     1      -2.532  12.025  23.553  0.00  0.00    +0.000 C 
ATOM     16  N   UNL     1      -0.855  11.586  20.260  0.00  0.00    +0.000 NA
ATOM     17  N   UNL     1       0.004  10.722  19.590  0.00  0.00    +0.000 NA
ENDBRANCH   5   7
BRANCH   1  18
ATOM     18  N   UNL     1       3.422   5.687  20.004  0.00  0.00    +0.000 N 
ATOM     19  H   UNL     1       4.159   5.862  20.682  0.00  0.00    +0.000 HD
BRANCH  18  20
ATOM     20  S   UNL     1       3.453   4.170  19.283  0.00  0.00    +0.000 S 
ATOM     21  O   UNL     1       2.129   3.906  18.739  0.00  0.00    +0.000 OA
ATOM     22  O   UNL     1       4.052   3.258  20.236  0.00  0.00    +0.000 OA
BRANCH  20  27
ATOM     23  C   UNL     1       7.215   4.774  14.524  0.00  0.00    +0.000 C 
ATOM     24  C   UNL     1       6.297   4.608  15.699  0.00  0.00    +0.000 A 
ATOM     25  C   UNL     1       5.018   4.072  15.548  0.00  0.00    +0.000 A 
ATOM     26  C   UNL     1       4.171   3.941  16.652  0.00  0.00    +0.000 A 
ATOM     27  C   UNL     1       4.601   4.346  17.927  0.00  0.00    +0.000 A 
ATOM     28  C   UNL     1       5.896   4.866  18.107  0.00  0.00    +0.000 A 
ATOM     29  C   UNL     1       6.468   5.335  19.419  0.00  0.00    +0.000 C 
ATOM     30  C   UNL     1       6.723   4.999  16.977  0.00  0.00    +0.000 A 
ENDBRANCH  20  27
ENDBRANCH  18  20
ENDBRANCH   1  18
TORSDOF 4
ENDMDL
MODEL 9
REMARK VINA RESULT:      -8.6      3.374      6.667
REMARK  Name = 
REMARK  6 active torsions:
REMARK  status: ('A' for Active; 'I' for Inactive)
REMARK    1  A    between atoms: C_1  and  C_2
REMARK    2  A    between atoms: C_5  and  S_6
REMARK    3  A    between atoms: S_6  and  N_9
REMARK    4  A    between atoms: N_9  and  C_10
REMARK    5  A    between atoms: C_14  and  C_15
REMARK    6  A    between atoms: C_27  and  C_28
REMARK                            x       y       z     vdW  Elec       q    Type
REMARK                         _______ _______ _______ _____ _____    ______ ____
ROOT
ATOM      1  C   UNL     1       4.543   4.477  18.218  0.00  0.00    +0.000 A 
ATOM      2  C   UNL     1       3.677   3.459  17.834  0.00  0.00    +0.000 A 
ATOM      3  C   UNL     1       2.306   3.696  17.779  0.00  0.00    +0.000 A 
ATOM      4  C   UNL     1       1.805   4.962  18.085  0.00  0.00    +0.000 A 
ATOM      5  C   UNL     1       2.662   6.009  18.463  0.00  0.00    +0.000 A 
ATOM      6  C   UNL     1       4.042   5.735  18.536  0.00  0.00    +0.000 A 
ENDROOT
BRANCH   5   7
ATOM      7  C   UNL     1       2.140   7.348  18.765  0.00  0.00    +0.000 A 
ATOM      8  C   UNL     1       1.965   8.310  17.788  0.00  0.00    +0.000 A 
ATOM      9  C   UNL     1       1.446   9.547  18.139  0.00  0.00    +0.000 A 
ATOM     10  C   UNL     1       1.112   9.834  19.456  0.00  0.00    +0.000 A 
ATOM     11  N   UNL     1       0.597  11.055  19.796  0.00  0.00    +0.000 N 
ATOM     12  C   UNL     1       0.218  11.417  21.146  0.00  0.00    +0.000 C 
ATOM     13  C   UNL     1      -0.859  12.467  20.891  0.00  0.00    +0.000 C 
ATOM     14  C   UNL     1      -0.357  13.204  19.655  0.00  0.00    +0.000 C 
ATOM     15  C   UNL     1       0.420  12.155  18.866  0.00  0.00    +0.000 C 
ATOM     16  N   UNL     1       1.298   8.873  20.384  0.00  0.00    +0.000 NA
ATOM     17  N   UNL     1       1.813   7.626  20.043  0.00  0.00    +0.000 NA
ENDBRANCH   5   7
BRANCH   1  18
ATOM     18  N   UNL     1       5.943   4.284  18.215  0.00  0.00    +0.000 N 
ATOM     19  H   UNL     1       6.413   4.157  19.108  0.00  0.00    +0.000 HD
BRANCH  18  20
ATOM     20  S   UNL     1       6.898   4.902  16.980  0.00  0.00    +0.000 S 
ATOM     21  O   UNL     1       6.028   5.219  15.857  0.00  0.00    +0.000 OA
ATOM     22  O   UNL     1       8.017   3.997  16.811  0.00  0.00    +0.000 OA
BRANCH  20  27
ATOM     23  C   UNL     1       8.995  10.211  19.121  0.00  0.00    +0.000 C 
ATOM     24  C   UNL     1       8.496   8.900  18.587  0.00  0.00    +0.000 A 
ATOM     25  C   UNL     1       7.912   8.809  17.324  0.00  0.00    +0.000 A 
ATOM     26  C   UNL     1       7.438   7.582  16.851  0.00  0.00    +0.000 A 
ATOM     27  C   UNL     1       7.549   6.427  17.643  0.00  0.00    +0.000 A 
ATOM     28  C   UNL     1       8.157   6.491  18.910  0.00  0.00    +0.000 A 
ATOM     29  C   UNL     1       8.331   5.327  19.848  0.00  0.00    +0.000 C 
ATOM     30  C   UNL     1       8.615   7.741  19.367  0.00  0.00    +0.000 A 
ENDBRANCH  20  27
ENDBRANCH  18  20
ENDBRANCH   1  18
TORSDOF 4
ENDMDL
