MODEL 1
REMARK VINA RESULT:      -7.5      0.000      0.000
REMARK  Name = 
REMARK  10 active torsions:
REMARK  status: ('A' for Active; 'I' for Inactive)
REMARK    1  A    between atoms: C_1  and  O_2
REMARK    2  A    between atoms: O_2  and  C_3
REMARK    3  A    between atoms: C_3  and  C_5
REMARK    4  A    between atoms: C_8  and  N_9
REMARK    5  A    between atoms: C_10  and  C_12
REMARK    6  A    between atoms: C_17  and  S_18
REMARK    7  A    between atoms: S_18  and  C_19
REMARK    8  A    between atoms: C_22  and  N_23
REMARK    9  A    between atoms: C_28  and  O_29
REMARK   10  A    between atoms: O_29  and  C_30
REMARK                            x       y       z     vdW  Elec       q    Type
REMARK                         _______ _______ _______ _____ _____    ______ ____
ROOT
ATOM      1  N   UNL     1       2.217   6.719  20.047  0.00  0.00    +0.000 N 
ATOM      2  C   UNL     1       1.989   5.620  19.230  0.00  0.00    +0.000 C 
ATOM      3  O   UNL     1       1.560   5.697  18.079  0.00  0.00    +0.000 OA
ATOM      4  H   UNL     1       2.940   6.652  20.755  0.00  0.00    +0.000 HD
ENDROOT
BRANCH   1   8
ATOM      5  C   UNL     1       1.307  10.649  18.791  0.00  0.00    +0.000 A 
ATOM      6  C   UNL     1       1.990   9.768  17.944  0.00  0.00    +0.000 A 
ATOM      7  C   UNL     1       2.268   8.471  18.366  0.00  0.00    +0.000 A 
ATOM      8  C   UNL     1       1.845   8.020  19.623  0.00  0.00    +0.000 A 
ATOM      9  C   UNL     1       1.085   8.864  20.454  0.00  0.00    +0.000 A 
ATOM     10  C   UNL     1       0.846  10.184  20.037  0.00  0.00    +0.000 A 
BRANCH   5  11
ATOM     11  C   UNL     1       1.072  12.069  18.422  0.00  0.00    +0.000 C 
ATOM     12  O   UNL     1      -0.009  12.626  18.516  0.00  0.00    +0.000 OA
BRANCH  11  14
ATOM     13  C   UNL     1       2.391  14.019  18.306  0.00  0.00    +0.000 C 
ATOM     14  O   UNL     1       2.234  12.638  17.991  0.00  0.00    +0.000 OA
ENDBRANCH  11  14
ENDBRANCH   5  11
BRANCH   9  15
ATOM     15  O   UNL     1       0.688   8.341  21.660  0.00  0.00    +0.000 OA
ATOM     16  C   UNL     1      -0.401   8.991  22.309  0.00  0.00    +0.000 C 
ENDBRANCH   9  15
ENDBRANCH   1   8
BRANCH   2  17
ATOM     17  C   UNL     1       2.320   4.259  19.729  0.00  0.00    +0.000 A 
ATOM     18  C   UNL     1       1.844   3.951  21.021  0.00  0.00    +0.000 A 
ATOM     19  C   UNL     1       2.256   2.799  21.688  0.00  0.00    +0.000 A 
ATOM     20  C   UNL     1       3.167   1.944  21.075  0.00  0.00    +0.000 A 
ATOM     21  C   UNL     1       3.633   2.228  19.789  0.00  0.00    +0.000 A 
ATOM     22  C   UNL     1       3.215   3.380  19.095  0.00  0.00    +0.000 A 
BRANCH  22  23
ATOM     23  S   UNL     1       3.819   3.582  17.428  0.00  0.00    +0.000 S 
BRANCH  23  24
ATOM     24  C   UNL     1       5.127   4.784  17.560  0.00  0.00    +0.000 A 
ATOM     25  C   UNL     1       5.036   5.928  16.753  0.00  0.00    +0.000 A 
ATOM     26  C   UNL     1       5.963   6.969  16.872  0.00  0.00    +0.000 A 
ATOM     27  C   UNL     1       6.994   6.867  17.810  0.00  0.00    +0.000 A 
ATOM     28  C   UNL     1       7.109   5.725  18.613  0.00  0.00    +0.000 A 
ATOM     29  C   UNL     1       6.175   4.690  18.489  0.00  0.00    +0.000 A 
BRANCH  27  30
ATOM     30  N   UNL     1       7.945   7.972  17.966  0.00  0.00    +0.000 N 
ATOM     31  O   UNL     1       8.753   7.912  18.906  0.00  0.00    +0.000 OA
ATOM     32  O   UNL     1       7.890   8.903  17.148  0.00  0.00    +0.000 OA
ENDBRANCH  27  30
ENDBRANCH  23  24
ENDBRANCH  22  23
ENDBRANCH   2  17
TORSDOF 8
ENDMDL
MODEL 2
REMARK VINA RESULT:      -7.5      0.500      1.125
REMARK  Name = 
REMARK  10 active torsions:
REMARK  status: ('A' for Active; 'I' for Inactive)
REMARK    1  A    between atoms: C_1  and  O_2
REMARK    2  A    between atoms: O_2  and  C_3
REMARK    3  A    between atoms: C_3  and  C_5
REMARK    4  A    between atoms: C_8  and  N_9
REMARK    5  A    between atoms: C_10  and  C_12
REMARK    6  A    between atoms: C_17  and  S_18
REMARK    7  A    between atoms: S_18  and  C_19
REMARK    8  A    between atoms: C_22  and  N_23
REMARK    9  A    between atoms: C_28  and  O_29
REMARK   10  A    between atoms: O_29  and  C_30
REMARK                            x       y       z     vdW  Elec       q    Type
REMARK                         _______ _______ _______ _____ _____    ______ ____
ROOT
ATOM      1  N   UNL     1       2.312   6.735  20.058  0.00  0.00    +0.000 N 
ATOM      2  C   UNL     1       2.053   5.632  19.256  0.00  0.00    +0.000 C 
ATOM      3  O   UNL     1       1.552   5.701  18.133  0.00  0.00    +0.000 OA
ATOM      4  H   UNL     1       3.079   6.680  20.720  0.00  0.00    +0.000 HD
ENDROOT
BRANCH   1   8
ATOM      5  C   UNL     1       1.260  10.650  18.868  0.00  0.00    +0.000 A 
ATOM      6  C   UNL     1       1.937   9.794  17.991  0.00  0.00    +0.000 A 
ATOM      7  C   UNL     1       2.262   8.502  18.392  0.00  0.00    +0.000 A 
ATOM      8  C   UNL     1       1.893   8.029  19.659  0.00  0.00    +0.000 A 
ATOM      9  C   UNL     1       1.140   8.847  20.521  0.00  0.00    +0.000 A 
ATOM     10  C   UNL     1       0.854  10.164  20.125  0.00  0.00    +0.000 A 
BRANCH   5  11
ATOM     11  C   UNL     1       0.976  12.067  18.520  0.00  0.00    +0.000 C 
ATOM     12  O   UNL     1       1.770  12.801  17.956  0.00  0.00    +0.000 OA
BRANCH  11  14
ATOM     13  C   UNL     1      -1.312  12.107  17.956  0.00  0.00    +0.000 C 
ATOM     14  O   UNL     1      -0.289  12.398  18.906  0.00  0.00    +0.000 OA
ENDBRANCH  11  14
ENDBRANCH   5  11
BRANCH   9  15
ATOM     15  O   UNL     1       0.798   8.304  21.736  0.00  0.00    +0.000 OA
ATOM     16  C   UNL     1       0.288   9.205  22.715  0.00  0.00    +0.000 C 
ENDBRANCH   9  15
ENDBRANCH   1   8
BRANCH   2  17
ATOM     17  C   UNL     1       2.437   4.278  19.733  0.00  0.00    +0.000 A 
ATOM     18  C   UNL     1       2.001   3.943  21.032  0.00  0.00    +0.000 A 
ATOM     19  C   UNL     1       2.464   2.797  21.678  0.00  0.00    +0.000 A 
ATOM     20  C   UNL     1       3.385   1.976  21.035  0.00  0.00    +0.000 A 
ATOM     21  C   UNL     1       3.812   2.287  19.741  0.00  0.00    +0.000 A 
ATOM     22  C   UNL     1       3.342   3.432  19.069  0.00  0.00    +0.000 A 
BRANCH  22  23
ATOM     23  S   UNL     1       3.900   3.669  17.391  0.00  0.00    +0.000 S 
BRANCH  23  24
ATOM     24  C   UNL     1       5.196   4.885  17.508  0.00  0.00    +0.000 A 
ATOM     25  C   UNL     1       4.982   6.118  16.873  0.00  0.00    +0.000 A 
ATOM     26  C   UNL     1       5.901   7.165  17.005  0.00  0.00    +0.000 A 
ATOM     27  C   UNL     1       7.046   6.979  17.783  0.00  0.00    +0.000 A 
ATOM     28  C   UNL     1       7.283   5.750  18.413  0.00  0.00    +0.000 A 
ATOM     29  C   UNL     1       6.357   4.710  18.277  0.00  0.00    +0.000 A 
BRANCH  27  30
ATOM     30  N   UNL     1       7.992   8.086  17.957  0.00  0.00    +0.000 N 
ATOM     31  O   UNL     1       7.947   9.020  17.142  0.00  0.00    +0.000 OA
ATOM     32  O   UNL     1       8.782   8.028  18.912  0.00  0.00    +0.000 OA
ENDBRANCH  27  30
ENDBRANCH  23  24
ENDBRANCH  22  23
ENDBRANCH   2  17
TORSDOF 8
ENDMDL
MODEL 3
REMARK VINA RESULT:      -7.5      2.203      2.615
REMARK  Name = 
REMARK  10 active torsions:
REMARK  status: ('A' for Active; 'I' for Inactive)
REMARK    1  A    between atoms: C_1  and  O_2
REMARK    2  A    between atoms: O_2  and  C_3
REMARK    3  A    between atoms: C_3  and  C_5
REMARK    4  A    between atoms: C_8  and  N_9
REMARK    5  A    between atoms: C_10  and  C_12
REMARK    6  A    between atoms: C_17  and  S_18
REMARK    7  A    between atoms: S_18  and  C_19
REMARK    8  A    between atoms: C_22  and  N_23
REMARK    9  A    between atoms: C_28  and  O_29
REMARK   10  A    between atoms: O_29  and  C_30
REMARK                            x       y       z     vdW  Elec       q    Type
REMARK                         _______ _______ _______ _____ _____    ______ ____
ROOT
ATOM      1  N   UNL     1       2.418   6.890  19.449  0.00  0.00    +0.000 N 
ATOM      2  C   UNL     1       2.098   5.872  18.561  0.00  0.00    +0.000 C 
ATOM      3  O   UNL     1       1.495   6.047  17.503  0.00  0.00    +0.000 OA
ATOM      4  H   UNL     1       3.243   6.783  20.029  0.00  0.00    +0.000 HD
ENDROOT
BRANCH   1   8
ATOM      5  C   UNL     1       1.217  10.889  18.805  0.00  0.00    +0.000 A 
ATOM      6  C   UNL     1       1.946  10.196  17.830  0.00  0.00    +0.000 A 
ATOM      7  C   UNL     1       2.320   8.874  18.051  0.00  0.00    +0.000 A 
ATOM      8  C   UNL     1       1.950   8.210  19.228  0.00  0.00    +0.000 A 
ATOM      9  C   UNL     1       1.146   8.864  20.181  0.00  0.00    +0.000 A 
ATOM     10  C   UNL     1       0.810  10.212  19.969  0.00  0.00    +0.000 A 
BRANCH   5  11
ATOM     11  C   UNL     1       0.877  12.329  18.655  0.00  0.00    +0.000 C 
ATOM     12  O   UNL     1       1.632  13.159  18.179  0.00  0.00    +0.000 OA
BRANCH  11  14
ATOM     13  C   UNL     1      -0.541  13.716  19.927  0.00  0.00    +0.000 C 
ATOM     14  O   UNL     1      -0.388  12.559  19.109  0.00  0.00    +0.000 OA
ENDBRANCH  11  14
ENDBRANCH   5  11
BRANCH   9  15
ATOM     15  O   UNL     1       0.807   8.139  21.297  0.00  0.00    +0.000 OA
ATOM     16  C   UNL     1      -0.425   8.479  21.927  0.00  0.00    +0.000 C 
ENDBRANCH   9  15
ENDBRANCH   1   8
BRANCH   2  17
ATOM     17  C   UNL     1       2.538   4.483  18.856  0.00  0.00    +0.000 A 
ATOM     18  C   UNL     1       1.521   3.506  18.847  0.00  0.00    +0.000 A 
ATOM     19  C   UNL     1       1.757   2.211  19.308  0.00  0.00    +0.000 A 
ATOM     20  C   UNL     1       3.016   1.881  19.800  0.00  0.00    +0.000 A 
ATOM     21  C   UNL     1       4.037   2.834  19.798  0.00  0.00    +0.000 A 
ATOM     22  C   UNL     1       3.820   4.141  19.323  0.00  0.00    +0.000 A 
BRANCH  22  23
ATOM     23  S   UNL     1       5.228   5.237  19.297  0.00  0.00    +0.000 S 
BRANCH  23  24
ATOM     24  C   UNL     1       5.767   5.247  17.600  0.00  0.00    +0.000 A 
ATOM     25  C   UNL     1       6.951   4.558  17.294  0.00  0.00    +0.000 A 
ATOM     26  C   UNL     1       7.387   4.426  15.971  0.00  0.00    +0.000 A 
ATOM     27  C   UNL     1       6.630   4.989  14.940  0.00  0.00    +0.000 A 
ATOM     28  C   UNL     1       5.454   5.694  15.228  0.00  0.00    +0.000 A 
ATOM     29  C   UNL     1       5.025   5.817  16.554  0.00  0.00    +0.000 A 
BRANCH  27  30
ATOM     30  N   UNL     1       7.061   4.821  13.549  0.00  0.00    +0.000 N 
ATOM     31  O   UNL     1       7.937   5.587  13.117  0.00  0.00    +0.000 OA
ATOM     32  O   UNL     1       6.530   3.920  12.883  0.00  0.00    +0.000 OA
ENDBRANCH  27  30
ENDBRANCH  23  24
ENDBRANCH  22  23
ENDBRANCH   2  17
TORSDOF 8
ENDMDL
MODEL 4
REMARK VINA RESULT:      -7.5      2.416      2.748
REMARK  Name = 
REMARK  10 active torsions:
REMARK  status: ('A' for Active; 'I' for Inactive)
REMARK    1  A    between atoms: C_1  and  O_2
REMARK    2  A    between atoms: O_2  and  C_3
REMARK    3  A    between atoms: C_3  and  C_5
REMARK    4  A    between atoms: C_8  and  N_9
REMARK    5  A    between atoms: C_10  and  C_12
REMARK    6  A    between atoms: C_17  and  S_18
REMARK    7  A    between atoms: S_18  and  C_19
REMARK    8  A    between atoms: C_22  and  N_23
REMARK    9  A    between atoms: C_28  and  O_29
REMARK   10  A    between atoms: O_29  and  C_30
REMARK                            x       y       z     vdW  Elec       q    Type
REMARK                         _______ _______ _______ _____ _____    ______ ____
ROOT
ATOM      1  N   UNL     1       2.216   7.016  19.899  0.00  0.00    +0.000 N 
ATOM      2  C   UNL     1       2.293   6.064  18.891  0.00  0.00    +0.000 C 
ATOM      3  O   UNL     1       2.100   6.309  17.700  0.00  0.00    +0.000 OA
ATOM      4  H   UNL     1       2.783   6.885  20.730  0.00  0.00    +0.000 HD
ENDROOT
BRANCH   1   8
ATOM      5  C   UNL     1       1.126  11.005  19.035  0.00  0.00    +0.000 A 
ATOM      6  C   UNL     1       1.740  10.206  18.063  0.00  0.00    +0.000 A 
ATOM      7  C   UNL     1       2.078   8.888  18.359  0.00  0.00    +0.000 A 
ATOM      8  C   UNL     1       1.784   8.335  19.612  0.00  0.00    +0.000 A 
ATOM      9  C   UNL     1       1.092   9.098  20.571  0.00  0.00    +0.000 A 
ATOM     10  C   UNL     1       0.794  10.440  20.280  0.00  0.00    +0.000 A 
BRANCH   5  11
ATOM     11  C   UNL     1       0.833  12.443  18.798  0.00  0.00    +0.000 C 
ATOM     12  O   UNL     1       1.657  13.248  18.397  0.00  0.00    +0.000 OA
BRANCH  11  14
ATOM     13  C   UNL     1      -1.408  12.267  18.091  0.00  0.00    +0.000 C 
ATOM     14  O   UNL     1      -0.476  12.705  19.077  0.00  0.00    +0.000 OA
ENDBRANCH  11  14
ENDBRANCH   5  11
BRANCH   9  15
ATOM     15  O   UNL     1       0.822   8.479  21.766  0.00  0.00    +0.000 OA
ATOM     16  C   UNL     1       0.340   9.309  22.820  0.00  0.00    +0.000 C 
ENDBRANCH   9  15
ENDBRANCH   1   8
BRANCH   2  17
ATOM     17  C   UNL     1       2.676   4.670  19.233  0.00  0.00    +0.000 A 
ATOM     18  C   UNL     1       1.605   3.786  19.480  0.00  0.00    +0.000 A 
ATOM     19  C   UNL     1       1.822   2.515  20.010  0.00  0.00    +0.000 A 
ATOM     20  C   UNL     1       3.120   2.116  20.317  0.00  0.00    +0.000 A 
ATOM     21  C   UNL     1       4.192   2.975  20.061  0.00  0.00    +0.000 A 
ATOM     22  C   UNL     1       3.990   4.256  19.512  0.00  0.00    +0.000 A 
BRANCH  22  23
ATOM     23  S   UNL     1       5.449   5.221  19.156  0.00  0.00    +0.000 S 
BRANCH  23  24
ATOM     24  C   UNL     1       5.868   4.811  17.474  0.00  0.00    +0.000 A 
ATOM     25  C   UNL     1       4.810   4.536  16.594  0.00  0.00    +0.000 A 
ATOM     26  C   UNL     1       5.045   4.311  15.234  0.00  0.00    +0.000 A 
ATOM     27  C   UNL     1       6.353   4.364  14.745  0.00  0.00    +0.000 A 
ATOM     28  C   UNL     1       7.423   4.623  15.611  0.00  0.00    +0.000 A 
ATOM     29  C   UNL     1       7.178   4.849  16.971  0.00  0.00    +0.000 A 
BRANCH  27  30
ATOM     30  N   UNL     1       6.601   4.169  13.313  0.00  0.00    +0.000 N 
ATOM     31  O   UNL     1       5.944   3.294  12.726  0.00  0.00    +0.000 OA
ATOM     32  O   UNL     1       7.451   4.890  12.768  0.00  0.00    +0.000 OA
ENDBRANCH  27  30
ENDBRANCH  23  24
ENDBRANCH  22  23
ENDBRANCH   2  17
TORSDOF 8
ENDMDL
MODEL 5
REMARK VINA RESULT:      -7.4      2.193      2.444
REMARK  Name = 
REMARK  10 active torsions:
REMARK  status: ('A' for Active; 'I' for Inactive)
REMARK    1  A    between atoms: C_1  and  O_2
REMARK    2  A    between atoms: O_2  and  C_3
REMARK    3  A    between atoms: C_3  and  C_5
REMARK    4  A    between atoms: C_8  and  N_9
REMARK    5  A    between atoms: C_10  and  C_12
REMARK    6  A    between atoms: C_17  and  S_18
REMARK    7  A    between atoms: S_18  and  C_19
REMARK    8  A    between atoms: C_22  and  N_23
REMARK    9  A    between atoms: C_28  and  O_29
REMARK   10  A    between atoms: O_29  and  C_30
REMARK                            x       y       z     vdW  Elec       q    Type
REMARK                         _______ _______ _______ _____ _____    ______ ____
ROOT
ATOM      1  N   UNL     1       2.271   7.013  19.697  0.00  0.00    +0.000 N 
ATOM      2  C   UNL     1       2.147   6.019  18.736  0.00  0.00    +0.000 C 
ATOM      3  O   UNL     1       1.793   6.225  17.576  0.00  0.00    +0.000 OA
ATOM      4  H   UNL     1       2.947   6.884  20.441  0.00  0.00    +0.000 HD
ENDROOT
BRANCH   1   8
ATOM      5  C   UNL     1       1.273  11.036  18.873  0.00  0.00    +0.000 A 
ATOM      6  C   UNL     1       2.057  10.297  17.979  0.00  0.00    +0.000 A 
ATOM      7  C   UNL     1       2.363   8.967  18.257  0.00  0.00    +0.000 A 
ATOM      8  C   UNL     1       1.871   8.343  19.411  0.00  0.00    +0.000 A 
ATOM      9  C   UNL     1       1.012   9.045  20.277  0.00  0.00    +0.000 A 
ATOM     10  C   UNL     1       0.743  10.399  20.011  0.00  0.00    +0.000 A 
BRANCH   5  11
ATOM     11  C   UNL     1       0.999  12.482  18.667  0.00  0.00    +0.000 C 
ATOM     12  O   UNL     1      -0.116  12.946  18.497  0.00  0.00    +0.000 OA
BRANCH  11  14
ATOM     13  C   UNL     1       2.588  13.575  20.022  0.00  0.00    +0.000 C 
ATOM     14  O   UNL     1       2.164  13.188  18.716  0.00  0.00    +0.000 OA
ENDBRANCH  11  14
ENDBRANCH   5  11
BRANCH   9  15
ATOM     15  O   UNL     1       0.553   8.358  21.374  0.00  0.00    +0.000 OA
ATOM     16  C   UNL     1       0.072   9.142  22.462  0.00  0.00    +0.000 C 
ENDBRANCH   9  15
ENDBRANCH   1   8
BRANCH   2  17
ATOM     17  C   UNL     1       2.504   4.619  19.087  0.00  0.00    +0.000 A 
ATOM     18  C   UNL     1       1.418   3.728  19.218  0.00  0.00    +0.000 A 
ATOM     19  C   UNL     1       1.592   2.448  19.743  0.00  0.00    +0.000 A 
ATOM     20  C   UNL     1       2.857   2.047  20.160  0.00  0.00    +0.000 A 
ATOM     21  C   UNL     1       3.944   2.914  20.020  0.00  0.00    +0.000 A 
ATOM     22  C   UNL     1       3.789   4.203  19.478  0.00  0.00    +0.000 A 
BRANCH  22  23
ATOM     23  S   UNL     1       5.269   5.179  19.276  0.00  0.00    +0.000 S 
BRANCH  23  24
ATOM     24  C   UNL     1       5.663   5.058  17.543  0.00  0.00    +0.000 A 
ATOM     25  C   UNL     1       6.669   5.902  17.049  0.00  0.00    +0.000 A 
ATOM     26  C   UNL     1       7.113   5.796  15.727  0.00  0.00    +0.000 A 
ATOM     27  C   UNL     1       6.547   4.834  14.887  0.00  0.00    +0.000 A 
ATOM     28  C   UNL     1       5.531   3.993  15.358  0.00  0.00    +0.000 A 
ATOM     29  C   UNL     1       5.095   4.104  16.684  0.00  0.00    +0.000 A 
BRANCH  27  30
ATOM     30  N   UNL     1       7.036   4.693  13.512  0.00  0.00    +0.000 N 
ATOM     31  O   UNL     1       6.558   3.782  12.818  0.00  0.00    +0.000 OA
ATOM     32  O   UNL     1       7.898   5.493  13.119  0.00  0.00    +0.000 OA
ENDBRANCH  27  30
ENDBRANCH  23  24
ENDBRANCH  22  23
ENDBRANCH   2  17
TORSDOF 8
ENDMDL
MODEL 6
REMARK VINA RESULT:      -7.3      0.492      1.208
REMARK  Name = 
REMARK  10 active torsions:
REMARK  status: ('A' for Active; 'I' for Inactive)
REMARK    1  A    between atoms: C_1  and  O_2
REMARK    2  A    between atoms: O_2  and  C_3
REMARK    3  A    between atoms: C_3  and  C_5
REMARK    4  A    between atoms: C_8  and  N_9
REMARK    5  A    between atoms: C_10  and  C_12
REMARK    6  A    between atoms: C_17  and  S_18
REMARK    7  A    between atoms: S_18  and  C_19
REMARK    8  A    between atoms: C_22  and  N_23
REMARK    9  A    between atoms: C_28  and  O_29
REMARK   10  A    between atoms: O_29  and  C_30
REMARK                            x       y       z     vdW  Elec       q    Type
REMARK                         _______ _______ _______ _____ _____    ______ ____
ROOT
ATOM      1  N   UNL     1       2.238   6.743  20.090  0.00  0.00    +0.000 N 
ATOM      2  C   UNL     1       1.999   5.627  19.299  0.00  0.00    +0.000 C 
ATOM      3  O   UNL     1       1.560   5.681  18.151  0.00  0.00    +0.000 OA
ATOM      4  H   UNL     1       2.968   6.689  20.792  0.00  0.00    +0.000 HD
ENDROOT
BRANCH   1   8
ATOM      5  C   UNL     1       1.327  10.650  18.765  0.00  0.00    +0.000 A 
ATOM      6  C   UNL     1       2.046   9.769  17.949  0.00  0.00    +0.000 A 
ATOM      7  C   UNL     1       2.323   8.479  18.393  0.00  0.00    +0.000 A 
ATOM      8  C   UNL     1       1.866   8.035  19.641  0.00  0.00    +0.000 A 
ATOM      9  C   UNL     1       1.071   8.880  20.439  0.00  0.00    +0.000 A 
ATOM     10  C   UNL     1       0.832  10.193  20.001  0.00  0.00    +0.000 A 
BRANCH   5  11
ATOM     11  C   UNL     1       1.088  12.064  18.374  0.00  0.00    +0.000 C 
ATOM     12  O   UNL     1       1.972  12.836  18.041  0.00  0.00    +0.000 OA
BRANCH  11  14
ATOM     13  C   UNL     1      -0.581  13.596  19.026  0.00  0.00    +0.000 C 
ATOM     14  O   UNL     1      -0.245  12.345  18.430  0.00  0.00    +0.000 OA
ENDBRANCH  11  14
ENDBRANCH   5  11
BRANCH   9  15
ATOM     15  O   UNL     1       0.643   8.365  21.637  0.00  0.00    +0.000 OA
ATOM     16  C   UNL     1       0.450   9.297  22.698  0.00  0.00    +0.000 C 
ENDBRANCH   9  15
ENDBRANCH   1   8
BRANCH   2  17
ATOM     17  C   UNL     1       2.331   4.277  19.824  0.00  0.00    +0.000 A 
ATOM     18  C   UNL     1       1.792   3.966  21.091  0.00  0.00    +0.000 A 
ATOM     19  C   UNL     1       2.191   2.827  21.788  0.00  0.00    +0.000 A 
ATOM     20  C   UNL     1       3.151   1.988  21.231  0.00  0.00    +0.000 A 
ATOM     21  C   UNL     1       3.680   2.274  19.970  0.00  0.00    +0.000 A 
ATOM     22  C   UNL     1       3.277   3.413  19.246  0.00  0.00    +0.000 A 
BRANCH  22  23
ATOM     23  S   UNL     1       3.966   3.618  17.613  0.00  0.00    +0.000 S 
BRANCH  23  24
ATOM     24  C   UNL     1       5.066   5.012  17.754  0.00  0.00    +0.000 A 
ATOM     25  C   UNL     1       6.188   4.868  18.584  0.00  0.00    +0.000 A 
ATOM     26  C   UNL     1       7.157   5.873  18.667  0.00  0.00    +0.000 A 
ATOM     27  C   UNL     1       7.005   7.038  17.910  0.00  0.00    +0.000 A 
ATOM     28  C   UNL     1       5.884   7.206  17.087  0.00  0.00    +0.000 A 
ATOM     29  C   UNL     1       4.921   6.192  17.009  0.00  0.00    +0.000 A 
BRANCH  27  30
ATOM     30  N   UNL     1       8.037   8.077  17.963  0.00  0.00    +0.000 N 
ATOM     31  O   UNL     1       8.814   8.074  18.931  0.00  0.00    +0.000 OA
ATOM     32  O   UNL     1       8.078   8.900  17.036  0.00  0.00    +0.000 OA
ENDBRANCH  27  30
ENDBRANCH  23  24
ENDBRANCH  22  23
ENDBRANCH   2  17
TORSDOF 8
ENDMDL
MODEL 7
REMARK VINA RESULT:      -7.2      3.451      8.046
REMARK  Name = 
REMARK  10 active torsions:
REMARK  status: ('A' for Active; 'I' for Inactive)
REMARK    1  A    between atoms: C_1  and  O_2
REMARK    2  A    between atoms: O_2  and  C_3
REMARK    3  A    between atoms: C_3  and  C_5
REMARK    4  A    between atoms: C_8  and  N_9
REMARK    5  A    between atoms: C_10  and  C_12
REMARK    6  A    between atoms: C_17  and  S_18
REMARK    7  A    between atoms: S_18  and  C_19
REMARK    8  A    between atoms: C_22  and  N_23
REMARK    9  A    between atoms: C_28  and  O_29
REMARK   10  A    between atoms: O_29  and  C_30
REMARK                            x       y       z     vdW  Elec       q    Type
REMARK                         _______ _______ _______ _____ _____    ______ ____
ROOT
ATOM      1  N   UNL     1       1.354   7.990  18.666  0.00  0.00    +0.000 N 
ATOM      2  C   UNL     1       1.238   9.245  18.085  0.00  0.00    +0.000 C 
ATOM      3  O   UNL     1       2.109   9.760  17.383  0.00  0.00    +0.000 OA
ATOM      4  H   UNL     1       0.507   7.458  18.837  0.00  0.00    +0.000 HD
ENDROOT
BRANCH   1   8
ATOM      5  C   UNL     1       4.904   5.745  18.210  0.00  0.00    +0.000 A 
ATOM      6  C   UNL     1       4.632   6.831  17.369  0.00  0.00    +0.000 A 
ATOM      7  C   UNL     1       3.466   7.571  17.543  0.00  0.00    +0.000 A 
ATOM      8  C   UNL     1       2.567   7.263  18.572  0.00  0.00    +0.000 A 
ATOM      9  C   UNL     1       2.865   6.228  19.479  0.00  0.00    +0.000 A 
ATOM     10  C   UNL     1       4.023   5.459  19.269  0.00  0.00    +0.000 A 
BRANCH   5  11
ATOM     11  C   UNL     1       6.087   4.868  18.003  0.00  0.00    +0.000 C 
ATOM     12  O   UNL     1       6.996   4.752  18.807  0.00  0.00    +0.000 OA
BRANCH  11  14
ATOM     13  C   UNL     1       7.032   4.483  15.878  0.00  0.00    +0.000 C 
ATOM     14  O   UNL     1       5.983   4.220  16.808  0.00  0.00    +0.000 OA
ENDBRANCH  11  14
ENDBRANCH   5  11
BRANCH   9  15
ATOM     15  O   UNL     1       1.946   6.002  20.473  0.00  0.00    +0.000 OA
ATOM     16  C   UNL     1       1.754   4.646  20.868  0.00  0.00    +0.000 C 
ENDBRANCH   9  15
ENDBRANCH   1   8
BRANCH   2  17
ATOM     17  C   UNL     1      -0.019  10.018  18.262  0.00  0.00    +0.000 A 
ATOM     18  C   UNL     1      -1.093   9.633  17.431  0.00  0.00    +0.000 A 
ATOM     19  C   UNL     1      -2.253  10.402  17.345  0.00  0.00    +0.000 A 
ATOM     20  C   UNL     1      -2.347  11.579  18.081  0.00  0.00    +0.000 A 
ATOM     21  C   UNL     1      -1.299  11.962  18.922  0.00  0.00    +0.000 A 
ATOM     22  C   UNL     1      -0.127  11.190  19.031  0.00  0.00    +0.000 A 
BRANCH  22  23
ATOM     23  S   UNL     1       1.101  11.745  20.200  0.00  0.00    +0.000 S 
BRANCH  23  24
ATOM     24  C   UNL     1       1.799  13.211  19.468  0.00  0.00    +0.000 A 
ATOM     25  C   UNL     1       1.397  14.449  19.993  0.00  0.00    +0.000 A 
ATOM     26  C   UNL     1       1.977  15.642  19.549  0.00  0.00    +0.000 A 
ATOM     27  C   UNL     1       2.972  15.599  18.569  0.00  0.00    +0.000 A 
ATOM     28  C   UNL     1       3.375  14.374  18.023  0.00  0.00    +0.000 A 
ATOM     29  C   UNL     1       2.791  13.185  18.476  0.00  0.00    +0.000 A 
BRANCH  27  30
ATOM     30  N   UNL     1       3.610  16.843  18.128  0.00  0.00    +0.000 N 
ATOM     31  O   UNL     1       4.700  17.148  18.639  0.00  0.00    +0.000 OA
ATOM     32  O   UNL     1       3.027  17.520  17.268  0.00  0.00    +0.000 OA
ENDBRANCH  27  30
ENDBRANCH  23  24
ENDBRANCH  22  23
ENDBRANCH   2  17
TORSDOF 8
ENDMDL
MODEL 8
REMARK VINA RESULT:      -7.2      3.913      8.845
REMARK  Name = 
REMARK  10 active torsions:
REMARK  status: ('A' for Active; 'I' for Inactive)
REMARK    1  A    between atoms: C_1  and  O_2
REMARK    2  A    between atoms: O_2  and  C_3
REMARK    3  A    between atoms: C_3  and  C_5
REMARK    4  A    between atoms: C_8  and  N_9
REMARK    5  A    between atoms: C_10  and  C_12
REMARK    6  A    between atoms: C_17  and  S_18
REMARK    7  A    between atoms: S_18  and  C_19
REMARK    8  A    between atoms: C_22  and  N_23
REMARK    9  A    between atoms: C_28  and  O_29
REMARK   10  A    between atoms: O_29  and  C_30
REMARK                            x       y       z     vdW  Elec       q    Type
REMARK                         _______ _______ _______ _____ _____    ______ ____
ROOT
ATOM      1  N   UNL     1       2.867   6.759  18.895  0.00  0.00    +0.000 N 
ATOM      2  C   UNL     1       2.342   8.036  18.753  0.00  0.00    +0.000 C 
ATOM      3  O   UNL     1       2.516   8.744  17.762  0.00  0.00    +0.000 OA
ATOM      4  H   UNL     1       2.364   6.091  19.470  0.00  0.00    +0.000 HD
ENDROOT
BRANCH   1   8
ATOM      5  C   UNL     1       5.451   5.339  15.868  0.00  0.00    +0.000 A 
ATOM      6  C   UNL     1       5.682   6.576  16.483  0.00  0.00    +0.000 A 
ATOM      7  C   UNL     1       4.830   7.022  17.490  0.00  0.00    +0.000 A 
ATOM      8  C   UNL     1       3.756   6.234  17.923  0.00  0.00    +0.000 A 
ATOM      9  C   UNL     1       3.559   4.953  17.375  0.00  0.00    +0.000 A 
ATOM     10  C   UNL     1       4.396   4.529  16.329  0.00  0.00    +0.000 A 
BRANCH   5  11
ATOM     11  C   UNL     1       6.274   4.865  14.725  0.00  0.00    +0.000 C 
ATOM     12  O   UNL     1       7.445   5.162  14.561  0.00  0.00    +0.000 OA
BRANCH  11  14
ATOM     13  C   UNL     1       6.212   3.538  12.778  0.00  0.00    +0.000 C 
ATOM     14  O   UNL     1       5.532   4.050  13.922  0.00  0.00    +0.000 OA
ENDBRANCH  11  14
ENDBRANCH   5  11
BRANCH   9  15
ATOM     15  O   UNL     1       2.498   4.233  17.867  0.00  0.00    +0.000 OA
ATOM     16  C   UNL     1       2.508   2.830  17.616  0.00  0.00    +0.000 C 
ENDBRANCH   9  15
ENDBRANCH   1   8
BRANCH   2  17
ATOM     17  C   UNL     1       1.472   8.589  19.824  0.00  0.00    +0.000 A 
ATOM     18  C   UNL     1       1.596   7.976  21.088  0.00  0.00    +0.000 A 
ATOM     19  C   UNL     1       0.699   8.254  22.118  0.00  0.00    +0.000 A 
ATOM     20  C   UNL     1      -0.348   9.141  21.891  0.00  0.00    +0.000 A 
ATOM     21  C   UNL     1      -0.473   9.769  20.649  0.00  0.00    +0.000 A 
ATOM     22  C   UNL     1       0.433   9.510  19.603  0.00  0.00    +0.000 A 
BRANCH  22  23
ATOM     23  S   UNL     1       0.213  10.439  18.095  0.00  0.00    +0.000 S 
BRANCH  23  24
ATOM     24  C   UNL     1      -1.537  10.761  18.009  0.00  0.00    +0.000 A 
ATOM     25  C   UNL     1      -2.336   9.813  17.352  0.00  0.00    +0.000 A 
ATOM     26  C   UNL     1      -3.730   9.935  17.333  0.00  0.00    +0.000 A 
ATOM     27  C   UNL     1      -4.334  11.017  17.979  0.00  0.00    +0.000 A 
ATOM     28  C   UNL     1      -3.551  11.981  18.627  0.00  0.00    +0.000 A 
ATOM     29  C   UNL     1      -2.157  11.848  18.644  0.00  0.00    +0.000 A 
BRANCH  27  30
ATOM     30  N   UNL     1      -5.795  11.128  17.995  0.00  0.00    +0.000 N 
ATOM     31  O   UNL     1      -6.315  12.036  17.327  0.00  0.00    +0.000 OA
ATOM     32  O   UNL     1      -6.431  10.307  18.674  0.00  0.00    +0.000 OA
ENDBRANCH  27  30
ENDBRANCH  23  24
ENDBRANCH  22  23
ENDBRANCH   2  17
TORSDOF 8
ENDMDL
MODEL 9
REMARK VINA RESULT:      -7.2      2.540      3.349
REMARK  Name = 
REMARK  10 active torsions:
REMARK  status: ('A' for Active; 'I' for Inactive)
REMARK    1  A    between atoms: C_1  and  O_2
REMARK    2  A    between atoms: O_2  and  C_3
REMARK    3  A    between atoms: C_3  and  C_5
REMARK    4  A    between atoms: C_8  and  N_9
REMARK    5  A    between atoms: C_10  and  C_12
REMARK    6  A    between atoms: C_17  and  S_18
REMARK    7  A    between atoms: S_18  and  C_19
REMARK    8  A    between atoms: C_22  and  N_23
REMARK    9  A    between atoms: C_28  and  O_29
REMARK   10  A    between atoms: O_29  and  C_30
REMARK                            x       y       z     vdW  Elec       q    Type
REMARK                         _______ _______ _______ _____ _____    ______ ____
ROOT
ATOM      1  N   UNL     1       1.802   6.732  19.452  0.00  0.00    +0.000 N 
ATOM      2  C   UNL     1       1.856   5.536  20.155  0.00  0.00    +0.000 C 
ATOM      3  O   UNL     1       1.479   5.407  21.319  0.00  0.00    +0.000 OA
ATOM      4  H   UNL     1       1.698   6.695  18.444  0.00  0.00    +0.000 HD
ENDROOT
BRANCH   1   8
ATOM      5  C   UNL     1       0.438  10.218  21.411  0.00  0.00    +0.000 A 
ATOM      6  C   UNL     1       0.646   9.032  22.125  0.00  0.00    +0.000 A 
ATOM      7  C   UNL     1       1.112   7.897  21.468  0.00  0.00    +0.000 A 
ATOM      8  C   UNL     1       1.406   7.930  20.099  0.00  0.00    +0.000 A 
ATOM      9  C   UNL     1       1.283   9.135  19.382  0.00  0.00    +0.000 A 
ATOM     10  C   UNL     1       0.771  10.264  20.044  0.00  0.00    +0.000 A 
BRANCH   5  11
ATOM     11  C   UNL     1      -0.147  11.427  22.049  0.00  0.00    +0.000 C 
ATOM     12  O   UNL     1      -0.521  11.469  23.209  0.00  0.00    +0.000 OA
BRANCH  11  14
ATOM     13  C   UNL     1       0.388  13.681  21.617  0.00  0.00    +0.000 C 
ATOM     14  O   UNL     1      -0.179  12.457  21.155  0.00  0.00    +0.000 OA
ENDBRANCH  11  14
ENDBRANCH   5  11
BRANCH   9  15
ATOM     15  O   UNL     1       1.611   9.092  18.050  0.00  0.00    +0.000 OA
ATOM     16  C   UNL     1       2.395  10.173  17.552  0.00  0.00    +0.000 C 
ENDBRANCH   9  15
ENDBRANCH   1   8
BRANCH   2  17
ATOM     17  C   UNL     1       2.346   4.311  19.472  0.00  0.00    +0.000 A 
ATOM     18  C   UNL     1       1.392   3.285  19.300  0.00  0.00    +0.000 A 
ATOM     19  C   UNL     1       1.766   2.014  18.868  0.00  0.00    +0.000 A 
ATOM     20  C   UNL     1       3.107   1.746  18.616  0.00  0.00    +0.000 A 
ATOM     21  C   UNL     1       4.060   2.757  18.764  0.00  0.00    +0.000 A 
ATOM     22  C   UNL     1       3.697   4.050  19.186  0.00  0.00    +0.000 A 
BRANCH  22  23
ATOM     23  S   UNL     1       4.996   5.272  19.255  0.00  0.00    +0.000 S 
BRANCH  23  24
ATOM     24  C   UNL     1       5.667   5.319  17.606  0.00  0.00    +0.000 A 
ATOM     25  C   UNL     1       6.944   4.768  17.412  0.00  0.00    +0.000 A 
ATOM     26  C   UNL     1       7.498   4.668  16.132  0.00  0.00    +0.000 A 
ATOM     27  C   UNL     1       6.768   5.121  15.030  0.00  0.00    +0.000 A 
ATOM     28  C   UNL     1       5.499   5.687  15.205  0.00  0.00    +0.000 A 
ATOM     29  C   UNL     1       4.951   5.780  16.490  0.00  0.00    +0.000 A 
BRANCH  27  30
ATOM     30  N   UNL     1       7.328   4.982  13.682  0.00  0.00    +0.000 N 
ATOM     31  O   UNL     1       8.310   5.683  13.387  0.00  0.00    +0.000 OA
ATOM     32  O   UNL     1       6.792   4.170  12.913  0.00  0.00    +0.000 OA
ENDBRANCH  27  30
ENDBRANCH  23  24
ENDBRANCH  22  23
ENDBRANCH   2  17
TORSDOF 8
ENDMDL
