MODEL 1
REMARK VINA RESULT:      -6.3      0.000      0.000
REMARK  Name = 
REMARK  2 active torsions:
REMARK  status: ('A' for Active; 'I' for Inactive)
REMARK    1  A    between atoms: C_2  and  C_3
REMARK    2  A    between atoms: C_3  and  C_4
REMARK                            x       y       z     vdW  Elec       q    Type
REMARK                         _______ _______ _______ _____ _____    ______ ____
ROOT
ATOM      1  C   UNL     1       3.749   3.568  19.718  0.00  0.00    +0.000 C 
ATOM      2  O   UNL     1       4.684   4.634  19.750  0.00  0.00    +0.000 OA
ATOM      3  C   UNL     1       4.012   4.458  18.481  0.00  0.00    +0.000 C 
ATOM      4  C   UNL     1       4.849   3.830  17.380  0.00  0.00    +0.000 C 
ATOM      5  C   UNL     1       6.108   4.641  17.172  0.00  0.00    +0.000 C 
ATOM      6  S   UNL     1       5.709   6.245  16.546  0.00  0.00    +0.000 S 
ATOM      7  O   UNL     1       6.747   7.160  16.979  0.00  0.00    +0.000 OA
ATOM      8  O   UNL     1       5.367   6.099  15.140  0.00  0.00    +0.000 OA
ATOM      9  C   UNL     1       4.203   6.749  17.355  0.00  0.00    +0.000 A 
ATOM     10  C   UNL     1       3.837   8.091  17.183  0.00  0.00    +0.000 A 
ATOM     11  C   UNL     1       2.645   8.545  17.725  0.00  0.00    +0.000 A 
ATOM     12  C   UNL     1       1.808   7.648  18.378  0.00  0.00    +0.000 A 
ATOM     13  C   UNL     1       2.187   6.307  18.548  0.00  0.00    +0.000 A 
ATOM     14  C   UNL     1       3.428   5.824  18.095  0.00  0.00    +0.000 A 
ENDROOT
BRANCH   1  16
ATOM     15  N   UNL     1       5.085   1.407  20.245  0.00  0.00    +0.000 NA
ATOM     16  C   UNL     1       4.451   2.349  19.997  0.00  0.00    +0.000 C 
ENDBRANCH   1  16
BRANCH   1  17
ATOM     17  C   UNL     1       2.539   3.699  20.456  0.00  0.00    +0.000 C 
ATOM     18  N   UNL     1       1.536   3.728  21.041  0.00  0.00    +0.000 NA
ENDBRANCH   1  17
TORSDOF 2
ENDMDL
MODEL 2
REMARK VINA RESULT:      -6.2      2.490      3.656
REMARK  Name = 
REMARK  2 active torsions:
REMARK  status: ('A' for Active; 'I' for Inactive)
REMARK    1  A    between atoms: C_2  and  C_3
REMARK    2  A    between atoms: C_3  and  C_4
REMARK                            x       y       z     vdW  Elec       q    Type
REMARK                         _______ _______ _______ _____ _____    ______ ____
ROOT
ATOM      1  C   UNL     1       2.995   4.835  18.698  0.00  0.00    +0.000 C 
ATOM      2  O   UNL     1       3.817   5.936  18.347  0.00  0.00    +0.000 OA
ATOM      3  C   UNL     1       4.486   4.654  18.333  0.00  0.00    +0.000 C 
ATOM      4  C   UNL     1       5.426   4.395  19.499  0.00  0.00    +0.000 C 
ATOM      5  C   UNL     1       6.457   5.497  19.576  0.00  0.00    +0.000 C 
ATOM      6  S   UNL     1       7.510   5.455  18.157  0.00  0.00    +0.000 S 
ATOM      7  O   UNL     1       7.986   6.803  17.917  0.00  0.00    +0.000 OA
ATOM      8  O   UNL     1       8.435   4.345  18.325  0.00  0.00    +0.000 OA
ATOM      9  C   UNL     1       6.481   5.013  16.770  0.00  0.00    +0.000 A 
ATOM     10  C   UNL     1       7.068   5.156  15.505  0.00  0.00    +0.000 A 
ATOM     11  C   UNL     1       6.357   4.772  14.379  0.00  0.00    +0.000 A 
ATOM     12  C   UNL     1       5.099   4.198  14.531  0.00  0.00    +0.000 A 
ATOM     13  C   UNL     1       4.521   4.064  15.802  0.00  0.00    +0.000 A 
ATOM     14  C   UNL     1       5.167   4.525  16.963  0.00  0.00    +0.000 A 
ENDROOT
BRANCH   1  16
ATOM     15  N   UNL     1       2.115   5.131  21.121  0.00  0.00    +0.000 NA
ATOM     16  C   UNL     1       2.512   5.045  20.033  0.00  0.00    +0.000 C 
ENDBRANCH   1  16
BRANCH   1  17
ATOM     17  C   UNL     1       1.976   4.427  17.791  0.00  0.00    +0.000 C 
ATOM     18  N   UNL     1       1.102   4.070  17.116  0.00  0.00    +0.000 NA
ENDBRANCH   1  17
TORSDOF 2
ENDMDL
MODEL 3
REMARK VINA RESULT:      -6.0      2.980      4.751
REMARK  Name = 
REMARK  2 active torsions:
REMARK  status: ('A' for Active; 'I' for Inactive)
REMARK    1  A    between atoms: C_2  and  C_3
REMARK    2  A    between atoms: C_3  and  C_4
REMARK                            x       y       z     vdW  Elec       q    Type
REMARK                         _______ _______ _______ _____ _____    ______ ____
ROOT
ATOM      1  C   UNL     1       4.091   6.481  17.763  0.00  0.00    +0.000 C 
ATOM      2  O   UNL     1       3.645   5.221  17.292  0.00  0.00    +0.000 OA
ATOM      3  C   UNL     1       4.093   5.227  18.667  0.00  0.00    +0.000 C 
ATOM      4  C   UNL     1       5.451   4.592  18.915  0.00  0.00    +0.000 C 
ATOM      5  C   UNL     1       5.452   3.173  18.394  0.00  0.00    +0.000 C 
ATOM      6  S   UNL     1       4.333   2.174  19.329  0.00  0.00    +0.000 S 
ATOM      7  O   UNL     1       3.860   1.111  18.466  0.00  0.00    +0.000 OA
ATOM      8  O   UNL     1       4.961   1.886  20.609  0.00  0.00    +0.000 OA
ATOM      9  C   UNL     1       2.926   3.201  19.708  0.00  0.00    +0.000 A 
ATOM     10  C   UNL     1       1.812   2.537  20.240  0.00  0.00    +0.000 A 
ATOM     11  C   UNL     1       0.701   3.273  20.622  0.00  0.00    +0.000 A 
ATOM     12  C   UNL     1       0.737   4.659  20.526  0.00  0.00    +0.000 A 
ATOM     13  C   UNL     1       1.856   5.312  19.988  0.00  0.00    +0.000 A 
ATOM     14  C   UNL     1       2.968   4.600  19.502  0.00  0.00    +0.000 A 
ENDROOT
BRANCH   1  16
ATOM     15  N   UNL     1       6.152   7.201  16.361  0.00  0.00    +0.000 NA
ATOM     16  C   UNL     1       5.202   6.894  16.955  0.00  0.00    +0.000 C 
ENDBRANCH   1  16
BRANCH   1  17
ATOM     17  C   UNL     1       3.131   7.514  17.965  0.00  0.00    +0.000 C 
ATOM     18  N   UNL     1       2.295   8.311  18.086  0.00  0.00    +0.000 NA
ENDBRANCH   1  17
TORSDOF 2
ENDMDL
MODEL 4
REMARK VINA RESULT:      -5.9      3.160      4.631
REMARK  Name = 
REMARK  2 active torsions:
REMARK  status: ('A' for Active; 'I' for Inactive)
REMARK    1  A    between atoms: C_2  and  C_3
REMARK    2  A    between atoms: C_3  and  C_4
REMARK                            x       y       z     vdW  Elec       q    Type
REMARK                         _______ _______ _______ _____ _____    ______ ____
ROOT
ATOM      1  C   UNL     1       4.786   4.871  16.820  0.00  0.00    +0.000 C 
ATOM      2  O   UNL     1       3.496   4.305  16.987  0.00  0.00    +0.000 OA
ATOM      3  C   UNL     1       4.250   4.462  18.212  0.00  0.00    +0.000 C 
ATOM      4  C   UNL     1       4.826   3.182  18.793  0.00  0.00    +0.000 C 
ATOM      5  C   UNL     1       3.718   2.177  19.012  0.00  0.00    +0.000 C 
ATOM      6  S   UNL     1       2.605   2.752  20.258  0.00  0.00    +0.000 S 
ATOM      7  O   UNL     1       1.300   2.182  19.984  0.00  0.00    +0.000 OA
ATOM      8  O   UNL     1       3.253   2.573  21.547  0.00  0.00    +0.000 OA
ATOM      9  C   UNL     1       2.457   4.515  20.038  0.00  0.00    +0.000 A 
ATOM     10  C   UNL     1       1.438   5.138  20.771  0.00  0.00    +0.000 A 
ATOM     11  C   UNL     1       1.299   6.516  20.706  0.00  0.00    +0.000 A 
ATOM     12  C   UNL     1       2.210   7.258  19.963  0.00  0.00    +0.000 A 
ATOM     13  C   UNL     1       3.225   6.622  19.230  0.00  0.00    +0.000 A 
ATOM     14  C   UNL     1       3.345   5.221  19.193  0.00  0.00    +0.000 A 
ENDROOT
BRANCH   1  16
ATOM     15  N   UNL     1       6.223   3.369  15.268  0.00  0.00    +0.000 NA
ATOM     16  C   UNL     1       5.547   4.008  15.964  0.00  0.00    +0.000 C 
ENDBRANCH   1  16
BRANCH   1  17
ATOM     17  C   UNL     1       4.887   6.245  16.463  0.00  0.00    +0.000 C 
ATOM     18  N   UNL     1       5.048   7.353  16.152  0.00  0.00    +0.000 NA
ENDBRANCH   1  17
TORSDOF 2
ENDMDL
MODEL 5
REMARK VINA RESULT:      -5.8      3.312      4.731
REMARK  Name = 
REMARK  2 active torsions:
REMARK  status: ('A' for Active; 'I' for Inactive)
REMARK    1  A    between atoms: C_2  and  C_3
REMARK    2  A    between atoms: C_3  and  C_4
REMARK                            x       y       z     vdW  Elec       q    Type
REMARK                         _______ _______ _______ _____ _____    ______ ____
ROOT
ATOM      1  C   UNL     1       4.892   4.786  16.856  0.00  0.00    +0.000 C 
ATOM      2  O   UNL     1       3.502   4.574  16.673  0.00  0.00    +0.000 OA
ATOM      3  C   UNL     1       4.017   4.134  17.951  0.00  0.00    +0.000 C 
ATOM      4  C   UNL     1       4.169   2.630  18.111  0.00  0.00    +0.000 C 
ATOM      5  C   UNL     1       2.843   1.954  17.845  0.00  0.00    +0.000 C 
ATOM      6  S   UNL     1       1.664   2.401  19.083  0.00  0.00    +0.000 S 
ATOM      7  O   UNL     1       0.345   2.325  18.487  0.00  0.00    +0.000 OA
ATOM      8  O   UNL     1       1.991   1.663  20.292  0.00  0.00    +0.000 OA
ATOM      9  C   UNL     1       1.959   4.115  19.474  0.00  0.00    +0.000 A 
ATOM     10  C   UNL     1       0.981   4.738  20.260  0.00  0.00    +0.000 A 
ATOM     11  C   UNL     1       1.168   6.051  20.663  0.00  0.00    +0.000 A 
ATOM     12  C   UNL     1       2.349   6.705  20.328  0.00  0.00    +0.000 A 
ATOM     13  C   UNL     1       3.319   6.071  19.537  0.00  0.00    +0.000 A 
ATOM     14  C   UNL     1       3.130   4.773  19.029  0.00  0.00    +0.000 A 
ENDROOT
BRANCH   1  16
ATOM     15  N   UNL     1       6.179   3.532  14.984  0.00  0.00    +0.000 NA
ATOM     16  C   UNL     1       5.595   4.053  15.843  0.00  0.00    +0.000 C 
ENDBRANCH   1  16
BRANCH   1  17
ATOM     17  C   UNL     1       5.365   6.120  17.011  0.00  0.00    +0.000 C 
ATOM     18  N   UNL     1       5.821   7.184  17.104  0.00  0.00    +0.000 NA
ENDBRANCH   1  17
TORSDOF 2
ENDMDL
MODEL 6
REMARK VINA RESULT:      -5.7      2.903      4.194
REMARK  Name = 
REMARK  2 active torsions:
REMARK  status: ('A' for Active; 'I' for Inactive)
REMARK    1  A    between atoms: C_2  and  C_3
REMARK    2  A    between atoms: C_3  and  C_4
REMARK                            x       y       z     vdW  Elec       q    Type
REMARK                         _______ _______ _______ _____ _____    ______ ____
ROOT
ATOM      1  C   UNL     1       6.576   5.667  17.663  0.00  0.00    +0.000 C 
ATOM      2  O   UNL     1       5.531   5.131  16.868  0.00  0.00    +0.000 OA
ATOM      3  C   UNL     1       5.168   5.399  18.243  0.00  0.00    +0.000 C 
ATOM      4  C   UNL     1       5.042   4.176  19.136  0.00  0.00    +0.000 C 
ATOM      5  C   UNL     1       4.050   3.207  18.535  0.00  0.00    +0.000 C 
ATOM      6  S   UNL     1       2.428   3.908  18.536  0.00  0.00    +0.000 S 
ATOM      7  O   UNL     1       1.692   3.326  17.431  0.00  0.00    +0.000 OA
ATOM      8  O   UNL     1       1.920   3.848  19.898  0.00  0.00    +0.000 OA
ATOM      9  C   UNL     1       2.621   5.643  18.174  0.00  0.00    +0.000 A 
ATOM     10  C   UNL     1       1.440   6.342  17.890  0.00  0.00    +0.000 A 
ATOM     11  C   UNL     1       1.497   7.708  17.663  0.00  0.00    +0.000 A 
ATOM     12  C   UNL     1       2.716   8.367  17.778  0.00  0.00    +0.000 A 
ATOM     13  C   UNL     1       3.893   7.656  18.058  0.00  0.00    +0.000 A 
ATOM     14  C   UNL     1       3.896   6.256  18.205  0.00  0.00    +0.000 A 
ENDROOT
BRANCH   1  16
ATOM     15  N   UNL     1       8.549   3.986  17.781  0.00  0.00    +0.000 NA
ATOM     16  C   UNL     1       7.652   4.719  17.688  0.00  0.00    +0.000 C 
ENDBRANCH   1  16
BRANCH   1  17
ATOM     17  C   UNL     1       7.010   7.000  17.412  0.00  0.00    +0.000 C 
ATOM     18  N   UNL     1       7.428   8.072  17.254  0.00  0.00    +0.000 NA
ENDBRANCH   1  17
TORSDOF 2
ENDMDL
MODEL 7
REMARK VINA RESULT:      -5.6      2.965      4.658
REMARK  Name = 
REMARK  2 active torsions:
REMARK  status: ('A' for Active; 'I' for Inactive)
REMARK    1  A    between atoms: C_2  and  C_3
REMARK    2  A    between atoms: C_3  and  C_4
REMARK                            x       y       z     vdW  Elec       q    Type
REMARK                         _______ _______ _______ _____ _____    ______ ____
ROOT
ATOM      1  C   UNL     1       2.338   7.369  19.165  0.00  0.00    +0.000 C 
ATOM      2  O   UNL     1       3.505   6.746  19.674  0.00  0.00    +0.000 OA
ATOM      3  C   UNL     1       2.776   5.960  18.702  0.00  0.00    +0.000 C 
ATOM      4  C   UNL     1       1.977   4.799  19.269  0.00  0.00    +0.000 C 
ATOM      5  C   UNL     1       2.889   3.893  20.064  0.00  0.00    +0.000 C 
ATOM      6  S   UNL     1       4.070   3.122  18.999  0.00  0.00    +0.000 S 
ATOM      7  O   UNL     1       5.258   2.843  19.782  0.00  0.00    +0.000 OA
ATOM      8  O   UNL     1       3.385   2.071  18.264  0.00  0.00    +0.000 OA
ATOM      9  C   UNL     1       4.528   4.338  17.779  0.00  0.00    +0.000 A 
ATOM     10  C   UNL     1       5.632   4.014  16.978  0.00  0.00    +0.000 A 
ATOM     11  C   UNL     1       6.011   4.877  15.962  0.00  0.00    +0.000 A 
ATOM     12  C   UNL     1       5.254   6.018  15.719  0.00  0.00    +0.000 A 
ATOM     13  C   UNL     1       4.152   6.333  16.529  0.00  0.00    +0.000 A 
ATOM     14  C   UNL     1       3.788   5.535  17.629  0.00  0.00    +0.000 A 
ENDROOT
BRANCH   1  16
ATOM     15  N   UNL     1       0.765   7.889  21.162  0.00  0.00    +0.000 NA
ATOM     16  C   UNL     1       1.447   7.616  20.261  0.00  0.00    +0.000 C 
ENDBRANCH   1  16
BRANCH   1  17
ATOM     17  C   UNL     1       2.484   8.490  18.299  0.00  0.00    +0.000 C 
ATOM     18  N   UNL     1       2.523   9.399  17.578  0.00  0.00    +0.000 NA
ENDBRANCH   1  17
TORSDOF 2
ENDMDL
MODEL 8
REMARK VINA RESULT:      -5.6      2.860      4.753
REMARK  Name = 
REMARK  2 active torsions:
REMARK  status: ('A' for Active; 'I' for Inactive)
REMARK    1  A    between atoms: C_2  and  C_3
REMARK    2  A    between atoms: C_3  and  C_4
REMARK                            x       y       z     vdW  Elec       q    Type
REMARK                         _______ _______ _______ _____ _____    ______ ____
ROOT
ATOM      1  C   UNL     1       2.137   7.662  19.113  0.00  0.00    +0.000 C 
ATOM      2  O   UNL     1       1.881   6.512  18.323  0.00  0.00    +0.000 OA
ATOM      3  C   UNL     1       3.103   6.455  19.096  0.00  0.00    +0.000 C 
ATOM      4  C   UNL     1       4.386   6.645  18.304  0.00  0.00    +0.000 C 
ATOM      5  C   UNL     1       4.450   5.627  17.188  0.00  0.00    +0.000 C 
ATOM      6  S   UNL     1       4.592   3.995  17.851  0.00  0.00    +0.000 S 
ATOM      7  O   UNL     1       3.999   3.077  16.899  0.00  0.00    +0.000 OA
ATOM      8  O   UNL     1       5.959   3.824  18.316  0.00  0.00    +0.000 OA
ATOM      9  C   UNL     1       3.579   3.950  19.317  0.00  0.00    +0.000 A 
ATOM     10  C   UNL     1       3.358   2.679  19.866  0.00  0.00    +0.000 A 
ATOM     11  C   UNL     1       2.635   2.565  21.044  0.00  0.00    +0.000 A 
ATOM     12  C   UNL     1       2.195   3.716  21.687  0.00  0.00    +0.000 A 
ATOM     13  C   UNL     1       2.418   4.982  21.125  0.00  0.00    +0.000 A 
ATOM     14  C   UNL     1       3.066   5.139  19.886  0.00  0.00    +0.000 A 
ENDROOT
BRANCH   1  16
ATOM     15  N   UNL     1       2.277   9.670  17.475  0.00  0.00    +0.000 NA
ATOM     16  C   UNL     1       2.244   8.792  18.236  0.00  0.00    +0.000 C 
ENDBRANCH   1  16
BRANCH   1  17
ATOM     17  C   UNL     1       1.312   7.910  20.246  0.00  0.00    +0.000 C 
ATOM     18  N   UNL     1       0.647   8.191  21.155  0.00  0.00    +0.000 NA
ENDBRANCH   1  17
TORSDOF 2
ENDMDL
MODEL 9
REMARK VINA RESULT:      -5.4      3.407      5.246
REMARK  Name = 
REMARK  2 active torsions:
REMARK  status: ('A' for Active; 'I' for Inactive)
REMARK    1  A    between atoms: C_2  and  C_3
REMARK    2  A    between atoms: C_3  and  C_4
REMARK                            x       y       z     vdW  Elec       q    Type
REMARK                         _______ _______ _______ _____ _____    ______ ____
ROOT
ATOM      1  C   UNL     1       2.113   7.230  19.662  0.00  0.00    +0.000 C 
ATOM      2  O   UNL     1       3.163   6.469  20.237  0.00  0.00    +0.000 OA
ATOM      3  C   UNL     1       2.177   5.691  19.519  0.00  0.00    +0.000 C 
ATOM      4  C   UNL     1       1.207   4.906  20.385  0.00  0.00    +0.000 C 
ATOM      5  C   UNL     1       1.977   4.000  21.319  0.00  0.00    +0.000 C 
ATOM      6  S   UNL     1       2.836   2.758  20.400  0.00  0.00    +0.000 S 
ATOM      7  O   UNL     1       4.011   2.377  21.160  0.00  0.00    +0.000 OA
ATOM      8  O   UNL     1       1.860   1.769  19.972  0.00  0.00    +0.000 OA
ATOM      9  C   UNL     1       3.415   3.537  18.906  0.00  0.00    +0.000 A 
ATOM     10  C   UNL     1       4.327   2.793  18.144  0.00  0.00    +0.000 A 
ATOM     11  C   UNL     1       4.775   3.301  16.934  0.00  0.00    +0.000 A 
ATOM     12  C   UNL     1       4.266   4.510  16.472  0.00  0.00    +0.000 A 
ATOM     13  C   UNL     1       3.357   5.247  17.246  0.00  0.00    +0.000 A 
ATOM     14  C   UNL     1       2.947   4.815  18.521  0.00  0.00    +0.000 A 
ENDROOT
BRANCH   1  16
ATOM     15  N   UNL     1       0.919   8.530  21.563  0.00  0.00    +0.000 NA
ATOM     16  C   UNL     1       1.424   7.913  20.718  0.00  0.00    +0.000 C 
ENDBRANCH   1  16
BRANCH   1  17
ATOM     17  C   UNL     1       2.409   8.069  18.551  0.00  0.00    +0.000 C 
ATOM     18  N   UNL     1       2.571   8.778  17.645  0.00  0.00    +0.000 NA
ENDBRANCH   1  17
TORSDOF 2
ENDMDL
