MODEL 1
REMARK VINA RESULT:      -7.9      0.000      0.000
REMARK  Name = 
REMARK  1 active torsions:
REMARK  status: ('A' for Active; 'I' for Inactive)
REMARK    1  A    between atoms: C_13  and  C_14
REMARK                            x       y       z     vdW  Elec       q    Type
REMARK                         _______ _______ _______ _____ _____    ______ ____
ROOT
ATOM      1  O   UNL     1       2.544   7.200  17.572  0.00  0.00    +0.000 OA
ATOM      2  C   UNL     1       2.816   6.152  18.157  0.00  0.00    +0.000 C 
ATOM      3  N   UNL     1       1.834   5.520  18.868  0.00  0.00    +0.000 N 
ATOM      4  C   UNL     1       2.068   4.446  19.721  0.00  0.00    +0.000 A 
ATOM      5  C   UNL     1       1.028   3.935  20.501  0.00  0.00    +0.000 A 
ATOM      6  C   UNL     1       1.289   2.915  21.418  0.00  0.00    +0.000 A 
ATOM      7  C   UNL     1       2.583   2.408  21.552  0.00  0.00    +0.000 A 
ATOM      8  C   UNL     1       3.613   2.904  20.752  0.00  0.00    +0.000 A 
ATOM      9  C   UNL     1       3.350   3.921  19.825  0.00  0.00    +0.000 A 
ATOM     10  C   UNL     1       4.416   4.476  18.959  0.00  0.00    +0.000 C 
ATOM     11  N   UNL     1       5.576   3.931  18.974  0.00  0.00    +0.000 NA
ATOM     12  C   UNL     1       6.688   4.381  18.151  0.00  0.00    +0.000 C 
ATOM     13  C   UNL     1       6.397   5.532  17.190  0.00  0.00    +0.000 C 
ATOM     14  C   UNL     1       5.147   6.325  17.549  0.00  0.00    +0.000 C 
ATOM     15  N   UNL     1       4.080   5.568  18.174  0.00  0.00    +0.000 N 
ATOM     16  H   UNL     1       0.926   5.961  18.836  0.00  0.00    +0.000 HD
ENDROOT
BRANCH  13  17
ATOM     17  C   UNL     1       6.452   5.102  15.730  0.00  0.00    +0.000 A 
ATOM     18  C   UNL     1       5.483   4.264  15.161  0.00  0.00    +0.000 A 
ATOM     19  C   UNL     1       5.611   3.834  13.837  0.00  0.00    +0.000 A 
ATOM     20  C   UNL     1       6.708   4.233  13.074  0.00  0.00    +0.000 A 
ATOM     21 CL   UNL     1       6.886   3.665  11.459  0.00  0.00    +0.000 Cl
ATOM     22  C   UNL     1       7.667   5.083  13.615  0.00  0.00    +0.000 A 
ATOM     23  C   UNL     1       7.538   5.516  14.935  0.00  0.00    +0.000 A 
ENDBRANCH  13  17
TORSDOF 1
ENDMDL
MODEL 2
REMARK VINA RESULT:      -7.7      0.158      1.039
REMARK  Name = 
REMARK  1 active torsions:
REMARK  status: ('A' for Active; 'I' for Inactive)
REMARK    1  A    between atoms: C_13  and  C_14
REMARK                            x       y       z     vdW  Elec       q    Type
REMARK                         _______ _______ _______ _____ _____    ______ ____
ROOT
ATOM      1  O   UNL     1       2.598   7.151  17.473  0.00  0.00    +0.000 OA
ATOM      2  C   UNL     1       2.851   6.126  18.105  0.00  0.00    +0.000 C 
ATOM      3  N   UNL     1       1.842   5.508  18.789  0.00  0.00    +0.000 N 
ATOM      4  C   UNL     1       2.045   4.465  19.688  0.00  0.00    +0.000 A 
ATOM      5  C   UNL     1       0.973   3.970  20.434  0.00  0.00    +0.000 A 
ATOM      6  C   UNL     1       1.200   2.983  21.397  0.00  0.00    +0.000 A 
ATOM      7  C   UNL     1       2.490   2.495  21.609  0.00  0.00    +0.000 A 
ATOM      8  C   UNL     1       3.553   2.976  20.842  0.00  0.00    +0.000 A 
ATOM      9  C   UNL     1       3.325   3.958  19.871  0.00  0.00    +0.000 A 
ATOM     10  C   UNL     1       4.426   4.495  19.038  0.00  0.00    +0.000 C 
ATOM     11  N   UNL     1       5.589   3.964  19.126  0.00  0.00    +0.000 NA
ATOM     12  C   UNL     1       6.735   4.399  18.342  0.00  0.00    +0.000 C 
ATOM     13  C   UNL     1       6.480   5.514  17.331  0.00  0.00    +0.000 C 
ATOM     14  C   UNL     1       5.206   6.305  17.602  0.00  0.00    +0.000 C 
ATOM     15  N   UNL     1       4.117   5.557  18.201  0.00  0.00    +0.000 N 
ATOM     16  H   UNL     1       0.932   5.937  18.700  0.00  0.00    +0.000 HD
ENDROOT
BRANCH  13  17
ATOM     17  C   UNL     1       6.609   5.036  15.890  0.00  0.00    +0.000 A 
ATOM     18  C   UNL     1       7.584   5.542  15.019  0.00  0.00    +0.000 A 
ATOM     19  C   UNL     1       7.621   5.131  13.684  0.00  0.00    +0.000 A 
ATOM     20  C   UNL     1       6.683   4.215  13.208  0.00  0.00    +0.000 A 
ATOM     21 CL   UNL     1       6.703   3.744  11.553  0.00  0.00    +0.000 Cl
ATOM     22  C   UNL     1       5.723   3.684  14.063  0.00  0.00    +0.000 A 
ATOM     23  C   UNL     1       5.688   4.091  15.397  0.00  0.00    +0.000 A 
ENDBRANCH  13  17
TORSDOF 1
ENDMDL
MODEL 3
REMARK VINA RESULT:      -7.6      5.568      8.011
REMARK  Name = 
REMARK  1 active torsions:
REMARK  status: ('A' for Active; 'I' for Inactive)
REMARK    1  A    between atoms: C_13  and  C_14
REMARK                            x       y       z     vdW  Elec       q    Type
REMARK                         _______ _______ _______ _____ _____    ______ ____
ROOT
ATOM      1  O   UNL     1       0.829   8.019  22.004  0.00  0.00    +0.000 OA
ATOM      2  C   UNL     1       1.330   7.720  20.920  0.00  0.00    +0.000 C 
ATOM      3  N   UNL     1       1.880   6.478  20.769  0.00  0.00    +0.000 N 
ATOM      4  C   UNL     1       2.640   6.099  19.667  0.00  0.00    +0.000 A 
ATOM      5  C   UNL     1       3.266   4.851  19.647  0.00  0.00    +0.000 A 
ATOM      6  C   UNL     1       4.097   4.512  18.577  0.00  0.00    +0.000 A 
ATOM      7  C   UNL     1       4.300   5.417  17.533  0.00  0.00    +0.000 A 
ATOM      8  C   UNL     1       3.651   6.653  17.546  0.00  0.00    +0.000 A 
ATOM      9  C   UNL     1       2.810   6.989  18.614  0.00  0.00    +0.000 A 
ATOM     10  C   UNL     1       2.106   8.292  18.666  0.00  0.00    +0.000 C 
ATOM     11  N   UNL     1       2.174   9.077  17.655  0.00  0.00    +0.000 NA
ATOM     12  C   UNL     1       1.506  10.367  17.590  0.00  0.00    +0.000 C 
ATOM     13  C   UNL     1       0.642  10.744  18.792  0.00  0.00    +0.000 C 
ATOM     14  C   UNL     1       0.960   9.941  20.048  0.00  0.00    +0.000 C 
ATOM     15  N   UNL     1       1.405   8.579  19.828  0.00  0.00    +0.000 N 
ATOM     16  H   UNL     1       1.808   5.872  21.575  0.00  0.00    +0.000 HD
ENDROOT
BRANCH  13  17
ATOM     17  C   UNL     1      -0.842  10.788  18.453  0.00  0.00    +0.000 A 
ATOM     18  C   UNL     1      -1.396  10.017  17.421  0.00  0.00    +0.000 A 
ATOM     19  C   UNL     1      -2.749  10.142  17.094  0.00  0.00    +0.000 A 
ATOM     20  C   UNL     1      -3.557  11.039  17.791  0.00  0.00    +0.000 A 
ATOM     21 CL   UNL     1      -5.212  11.224  17.357  0.00  0.00    +0.000 Cl
ATOM     22  C   UNL     1      -3.030  11.795  18.833  0.00  0.00    +0.000 A 
ATOM     23  C   UNL     1      -1.681  11.668  19.163  0.00  0.00    +0.000 A 
ENDBRANCH  13  17
TORSDOF 1
ENDMDL
MODEL 4
REMARK VINA RESULT:      -7.4      5.623      8.139
REMARK  Name = 
REMARK  1 active torsions:
REMARK  status: ('A' for Active; 'I' for Inactive)
REMARK    1  A    between atoms: C_13  and  C_14
REMARK                            x       y       z     vdW  Elec       q    Type
REMARK                         _______ _______ _______ _____ _____    ______ ____
ROOT
ATOM      1  O   UNL     1       0.842   7.954  21.897  0.00  0.00    +0.000 OA
ATOM      2  C   UNL     1       1.360   7.763  20.797  0.00  0.00    +0.000 C 
ATOM      3  N   UNL     1       1.928   6.547  20.538  0.00  0.00    +0.000 N 
ATOM      4  C   UNL     1       2.707   6.282  19.416  0.00  0.00    +0.000 A 
ATOM      5  C   UNL     1       3.349   5.048  19.288  0.00  0.00    +0.000 A 
ATOM      6  C   UNL     1       4.198   4.820  18.203  0.00  0.00    +0.000 A 
ATOM      7  C   UNL     1       4.403   5.821  17.252  0.00  0.00    +0.000 A 
ATOM      8  C   UNL     1       3.738   7.043  17.371  0.00  0.00    +0.000 A 
ATOM      9  C   UNL     1       2.879   7.268  18.454  0.00  0.00    +0.000 A 
ATOM     10  C   UNL     1       2.158   8.552  18.617  0.00  0.00    +0.000 C 
ATOM     11  N   UNL     1       2.229   9.429  17.685  0.00  0.00    +0.000 NA
ATOM     12  C   UNL     1       1.545  10.712  17.732  0.00  0.00    +0.000 C 
ATOM     13  C   UNL     1       0.661  10.964  18.951  0.00  0.00    +0.000 C 
ATOM     14  C   UNL     1       0.973  10.052  20.130  0.00  0.00    +0.000 C 
ATOM     15  N   UNL     1       1.439   8.721  19.790  0.00  0.00    +0.000 N 
ATOM     16  H   UNL     1       1.854   5.867  21.282  0.00  0.00    +0.000 HD
ENDROOT
BRANCH  13  17
ATOM     17  C   UNL     1      -0.819  11.022  18.596  0.00  0.00    +0.000 A 
ATOM     18  C   UNL     1      -1.698  11.927  19.206  0.00  0.00    +0.000 A 
ATOM     19  C   UNL     1      -3.063  11.898  18.906  0.00  0.00    +0.000 A 
ATOM     20  C   UNL     1      -3.560  10.964  17.998  0.00  0.00    +0.000 A 
ATOM     21 CL   UNL     1      -5.247  10.900  17.664  0.00  0.00    +0.000 Cl
ATOM     22  C   UNL     1      -2.698  10.074  17.365  0.00  0.00    +0.000 A 
ATOM     23  C   UNL     1      -1.336  10.105  17.661  0.00  0.00    +0.000 A 
ENDBRANCH  13  17
TORSDOF 1
ENDMDL
MODEL 5
REMARK VINA RESULT:      -7.3      8.113     10.903
REMARK  Name = 
REMARK  1 active torsions:
REMARK  status: ('A' for Active; 'I' for Inactive)
REMARK    1  A    between atoms: C_13  and  C_14
REMARK                            x       y       z     vdW  Elec       q    Type
REMARK                         _______ _______ _______ _____ _____    ______ ____
ROOT
ATOM      1  O   UNL     1       0.247   9.956  23.402  0.00  0.00    +0.000 OA
ATOM      2  C   UNL     1       0.376   9.832  22.184  0.00  0.00    +0.000 C 
ATOM      3  N   UNL     1       0.980   8.707  21.698  0.00  0.00    +0.000 N 
ATOM      4  C   UNL     1       1.353   8.546  20.367  0.00  0.00    +0.000 A 
ATOM      5  C   UNL     1       2.074   7.415  19.976  0.00  0.00    +0.000 A 
ATOM      6  C   UNL     1       2.521   7.302  18.657  0.00  0.00    +0.000 A 
ATOM      7  C   UNL     1       2.246   8.314  17.736  0.00  0.00    +0.000 A 
ATOM      8  C   UNL     1       1.504   9.429  18.125  0.00  0.00    +0.000 A 
ATOM      9  C   UNL     1       1.048   9.539  19.445  0.00  0.00    +0.000 A 
ATOM     10  C   UNL     1       0.258  10.708  19.898  0.00  0.00    +0.000 C 
ATOM     11  N   UNL     1      -0.117  11.579  19.035  0.00  0.00    +0.000 NA
ATOM     12  C   UNL     1      -0.911  12.751  19.365  0.00  0.00    +0.000 C 
ATOM     13  C   UNL     1      -1.346  12.885  20.823  0.00  0.00    +0.000 C 
ATOM     14  C   UNL     1      -0.526  12.037  21.786  0.00  0.00    +0.000 C 
ATOM     15  N   UNL     1      -0.029  10.783  21.252  0.00  0.00    +0.000 N 
ATOM     16  H   UNL     1       1.260   8.030  22.393  0.00  0.00    +0.000 HD
ENDROOT
BRANCH  13  17
ATOM     17  C   UNL     1      -2.851  12.729  20.998  0.00  0.00    +0.000 A 
ATOM     18  C   UNL     1      -3.712  12.515  19.913  0.00  0.00    +0.000 A 
ATOM     19  C   UNL     1      -5.095  12.452  20.109  0.00  0.00    +0.000 A 
ATOM     20  C   UNL     1      -5.627  12.604  21.388  0.00  0.00    +0.000 A 
ATOM     21 CL   UNL     1      -7.332  12.569  21.621  0.00  0.00    +0.000 Cl
ATOM     22  C   UNL     1      -4.787  12.792  22.481  0.00  0.00    +0.000 A 
ATOM     23  C   UNL     1      -3.407  12.853  22.286  0.00  0.00    +0.000 A 
ENDBRANCH  13  17
TORSDOF 1
ENDMDL
MODEL 6
REMARK VINA RESULT:      -7.3      8.050     10.827
REMARK  Name = 
REMARK  1 active torsions:
REMARK  status: ('A' for Active; 'I' for Inactive)
REMARK    1  A    between atoms: C_13  and  C_14
REMARK                            x       y       z     vdW  Elec       q    Type
REMARK                         _______ _______ _______ _____ _____    ______ ____
ROOT
ATOM      1  O   UNL     1       0.238  10.005  23.399  0.00  0.00    +0.000 OA
ATOM      2  C   UNL     1       0.378   9.875  22.183  0.00  0.00    +0.000 C 
ATOM      3  N   UNL     1       0.959   8.735  21.704  0.00  0.00    +0.000 N 
ATOM      4  C   UNL     1       1.343   8.562  20.378  0.00  0.00    +0.000 A 
ATOM      5  C   UNL     1       2.039   7.412  19.997  0.00  0.00    +0.000 A 
ATOM      6  C   UNL     1       2.497   7.286  18.683  0.00  0.00    +0.000 A 
ATOM      7  C   UNL     1       2.260   8.303  17.758  0.00  0.00    +0.000 A 
ATOM      8  C   UNL     1       1.542   9.438  18.137  0.00  0.00    +0.000 A 
ATOM      9  C   UNL     1       1.074   9.561  19.452  0.00  0.00    +0.000 A 
ATOM     10  C   UNL     1       0.310  10.752  19.894  0.00  0.00    +0.000 C 
ATOM     11  N   UNL     1      -0.031  11.630  19.025  0.00  0.00    +0.000 NA
ATOM     12  C   UNL     1      -0.798  12.824  19.346  0.00  0.00    +0.000 C 
ATOM     13  C   UNL     1      -1.247  12.971  20.798  0.00  0.00    +0.000 C 
ATOM     14  C   UNL     1      -0.460  12.103  21.771  0.00  0.00    +0.000 C 
ATOM     15  N   UNL     1       0.009  10.836  21.245  0.00  0.00    +0.000 N 
ATOM     16  H   UNL     1       1.213   8.052  22.404  0.00  0.00    +0.000 HD
ENDROOT
BRANCH  13  17
ATOM     17  C   UNL     1      -2.758  12.855  20.956  0.00  0.00    +0.000 A 
ATOM     18  C   UNL     1      -3.390  12.968  22.202  0.00  0.00    +0.000 A 
ATOM     19  C   UNL     1      -4.770  12.782  22.314  0.00  0.00    +0.000 A 
ATOM     20  C   UNL     1      -5.529  12.477  21.184  0.00  0.00    +0.000 A 
ATOM     21 CL   UNL     1      -7.222  12.204  21.332  0.00  0.00    +0.000 Cl
ATOM     22  C   UNL     1      -4.922  12.384  19.936  0.00  0.00    +0.000 A 
ATOM     23  C   UNL     1      -3.545  12.574  19.822  0.00  0.00    +0.000 A 
ENDBRANCH  13  17
TORSDOF 1
ENDMDL
MODEL 7
REMARK VINA RESULT:      -7.0      7.978     10.088
REMARK  Name = 
REMARK  1 active torsions:
REMARK  status: ('A' for Active; 'I' for Inactive)
REMARK    1  A    between atoms: C_13  and  C_14
REMARK                            x       y       z     vdW  Elec       q    Type
REMARK                         _______ _______ _______ _____ _____    ______ ____
ROOT
ATOM      1  O   UNL     1      -2.819  11.070  15.656  0.00  0.00    +0.000 OA
ATOM      2  C   UNL     1      -3.308  11.256  16.770  0.00  0.00    +0.000 C 
ATOM      3  N   UNL     1      -4.665  11.174  16.916  0.00  0.00    +0.000 N 
ATOM      4  C   UNL     1      -5.341  11.552  18.071  0.00  0.00    +0.000 A 
ATOM      5  C   UNL     1      -6.738  11.548  18.095  0.00  0.00    +0.000 A 
ATOM      6  C   UNL     1      -7.411  12.012  19.228  0.00  0.00    +0.000 A 
ATOM      7  C   UNL     1      -6.690  12.475  20.329  0.00  0.00    +0.000 A 
ATOM      8  C   UNL     1      -5.295  12.453  20.310  0.00  0.00    +0.000 A 
ATOM      9  C   UNL     1      -4.620  11.979  19.178  0.00  0.00    +0.000 A 
ATOM     10  C   UNL     1      -3.140  11.941  19.118  0.00  0.00    +0.000 C 
ATOM     11  N   UNL     1      -2.466  12.235  20.168  0.00  0.00    +0.000 NA
ATOM     12  C   UNL     1      -1.013  12.211  20.226  0.00  0.00    +0.000 C 
ATOM     13  C   UNL     1      -0.292  11.750  18.962  0.00  0.00    +0.000 C 
ATOM     14  C   UNL     1      -1.155  11.819  17.708  0.00  0.00    +0.000 C 
ATOM     15  N   UNL     1      -2.571  11.581  17.906  0.00  0.00    +0.000 N 
ATOM     16  H   UNL     1      -5.176  10.932  16.079  0.00  0.00    +0.000 HD
ENDROOT
BRANCH  13  17
ATOM     17  C   UNL     1       0.414  10.413  19.147  0.00  0.00    +0.000 A 
ATOM     18  C   UNL     1       0.479   9.768  20.389  0.00  0.00    +0.000 A 
ATOM     19  C   UNL     1       1.201   8.579  20.532  0.00  0.00    +0.000 A 
ATOM     20  C   UNL     1       1.864   8.028  19.436  0.00  0.00    +0.000 A 
ATOM     21 CL   UNL     1       2.788   6.589  19.623  0.00  0.00    +0.000 Cl
ATOM     22  C   UNL     1       1.790   8.642  18.190  0.00  0.00    +0.000 A 
ATOM     23  C   UNL     1       1.068   9.826  18.046  0.00  0.00    +0.000 A 
ENDBRANCH  13  17
TORSDOF 1
ENDMDL
MODEL 8
REMARK VINA RESULT:      -7.0      8.018     10.156
REMARK  Name = 
REMARK  1 active torsions:
REMARK  status: ('A' for Active; 'I' for Inactive)
REMARK    1  A    between atoms: C_13  and  C_14
REMARK                            x       y       z     vdW  Elec       q    Type
REMARK                         _______ _______ _______ _____ _____    ______ ____
ROOT
ATOM      1  O   UNL     1      -2.794  11.064  15.700  0.00  0.00    +0.000 OA
ATOM      2  C   UNL     1      -3.286  11.251  16.813  0.00  0.00    +0.000 C 
ATOM      3  N   UNL     1      -4.636  11.109  16.968  0.00  0.00    +0.000 N 
ATOM      4  C   UNL     1      -5.324  11.480  18.120  0.00  0.00    +0.000 A 
ATOM      5  C   UNL     1      -6.718  11.413  18.151  0.00  0.00    +0.000 A 
ATOM      6  C   UNL     1      -7.407  11.869  19.278  0.00  0.00    +0.000 A 
ATOM      7  C   UNL     1      -6.703  12.388  20.366  0.00  0.00    +0.000 A 
ATOM      8  C   UNL     1      -5.308  12.428  20.339  0.00  0.00    +0.000 A 
ATOM      9  C   UNL     1      -4.617  11.962  19.213  0.00  0.00    +0.000 A 
ATOM     10  C   UNL     1      -3.137  11.991  19.146  0.00  0.00    +0.000 C 
ATOM     11  N   UNL     1      -2.472  12.337  20.185  0.00  0.00    +0.000 NA
ATOM     12  C   UNL     1      -1.020  12.380  20.236  0.00  0.00    +0.000 C 
ATOM     13  C   UNL     1      -0.285  11.926  18.976  0.00  0.00    +0.000 C 
ATOM     14  C   UNL     1      -1.156  11.930  17.726  0.00  0.00    +0.000 C 
ATOM     15  N   UNL     1      -2.559  11.631  17.937  0.00  0.00    +0.000 N 
ATOM     16  H   UNL     1      -5.140  10.827  16.139  0.00  0.00    +0.000 HD
ENDROOT
BRANCH  13  17
ATOM     17  C   UNL     1       0.483  10.627  19.184  0.00  0.00    +0.000 A 
ATOM     18  C   UNL     1       1.209  10.014  18.154  0.00  0.00    +0.000 A 
ATOM     19  C   UNL     1       1.838   8.785  18.366  0.00  0.00    +0.000 A 
ATOM     20  C   UNL     1       1.744   8.156  19.608  0.00  0.00    +0.000 A 
ATOM     21 CL   UNL     1       2.482   6.621  19.854  0.00  0.00    +0.000 Cl
ATOM     22  C   UNL     1       1.049   8.761  20.650  0.00  0.00    +0.000 A 
ATOM     23  C   UNL     1       0.423   9.990  20.439  0.00  0.00    +0.000 A 
ENDBRANCH  13  17
TORSDOF 1
ENDMDL
MODEL 9
REMARK VINA RESULT:      -6.9      7.616     10.339
REMARK  Name = 
REMARK  1 active torsions:
REMARK  status: ('A' for Active; 'I' for Inactive)
REMARK    1  A    between atoms: C_13  and  C_14
REMARK                            x       y       z     vdW  Elec       q    Type
REMARK                         _______ _______ _______ _____ _____    ______ ____
ROOT
ATOM      1  O   UNL     1      -0.280   9.438  22.884  0.00  0.00    +0.000 OA
ATOM      2  C   UNL     1       0.099   9.369  21.715  0.00  0.00    +0.000 C 
ATOM      3  N   UNL     1       0.793   8.263  21.311  0.00  0.00    +0.000 N 
ATOM      4  C   UNL     1       1.433   8.160  20.080  0.00  0.00    +0.000 A 
ATOM      5  C   UNL     1       2.221   7.043  19.795  0.00  0.00    +0.000 A 
ATOM      6  C   UNL     1       2.931   6.987  18.593  0.00  0.00    +0.000 A 
ATOM      7  C   UNL     1       2.852   8.042  17.684  0.00  0.00    +0.000 A 
ATOM      8  C   UNL     1       2.044   9.145  17.963  0.00  0.00    +0.000 A 
ATOM      9  C   UNL     1       1.324   9.198  19.163  0.00  0.00    +0.000 A 
ATOM     10  C   UNL     1       0.457  10.352  19.497  0.00  0.00    +0.000 C 
ATOM     11  N   UNL     1       0.268  11.264  18.617  0.00  0.00    +0.000 NA
ATOM     12  C   UNL     1      -0.578  12.427  18.831  0.00  0.00    +0.000 C 
ATOM     13  C   UNL     1      -1.307  12.497  20.172  0.00  0.00    +0.000 C 
ATOM     14  C   UNL     1      -0.703  11.598  21.243  0.00  0.00    +0.000 C 
ATOM     15  N   UNL     1      -0.105  10.366  20.765  0.00  0.00    +0.000 N 
ATOM     16  H   UNL     1       0.923   7.552  22.017  0.00  0.00    +0.000 HD
ENDROOT
BRANCH  13  17
ATOM     17  C   UNL     1      -2.815  12.347  20.024  0.00  0.00    +0.000 A 
ATOM     18  C   UNL     1      -3.406  11.850  18.854  0.00  0.00    +0.000 A 
ATOM     19  C   UNL     1      -4.797  11.797  18.732  0.00  0.00    +0.000 A 
ATOM     20  C   UNL     1      -5.608  12.242  19.776  0.00  0.00    +0.000 A 
ATOM     21 CL   UNL     1      -7.321  12.218  19.606  0.00  0.00    +0.000 Cl
ATOM     22  C   UNL     1      -5.040  12.716  20.954  0.00  0.00    +0.000 A 
ATOM     23  C   UNL     1      -3.651  12.766  21.077  0.00  0.00    +0.000 A 
ENDBRANCH  13  17
TORSDOF 1
ENDMDL
