MODEL 1
REMARK VINA RESULT:      -8.7      0.000      0.000
REMARK  Name = 
REMARK  6 active torsions:
REMARK  status: ('A' for Active; 'I' for Inactive)
REMARK    1  A    between atoms: C_1  and  O_2
REMARK    2  A    between atoms: O_2  and  C_3
REMARK    3  A    between atoms: C_6  and  O_7
REMARK    4  A    between atoms: O_7  and  C_8
REMARK    5  A    between atoms: N_16  and  C_17
REMARK    6  A    between atoms: C_17  and  C_18
REMARK                            x       y       z     vdW  Elec       q    Type
REMARK                         _______ _______ _______ _____ _____    ______ ____
ROOT
ATOM      1  C   UNL     1       6.966   5.561  16.491  0.00  0.00    +0.000 A 
ATOM      2  N   UNL     1       7.715   4.806  17.347  0.00  0.00    +0.000 NA
ATOM      3  C   UNL     1       7.190   4.488  18.543  0.00  0.00    +0.000 A 
ATOM      4  N   UNL     1       6.003   4.862  19.047  0.00  0.00    +0.000 NA
ATOM      5  C   UNL     1       5.336   5.653  18.190  0.00  0.00    +0.000 A 
ATOM      6  C   UNL     1       5.731   6.054  16.921  0.00  0.00    +0.000 A 
ATOM      7  N   UNL     1       4.770   6.866  16.352  0.00  0.00    +0.000 NA
ATOM      8  C   UNL     1       3.824   6.967  17.264  0.00  0.00    +0.000 A 
ATOM      9  N   UNL     1       4.114   6.237  18.385  0.00  0.00    +0.000 N 
ENDROOT
BRANCH   1  10
ATOM     10  O   UNL     1       7.435   5.799  15.201  0.00  0.00    +0.000 OA
BRANCH  10  14
ATOM     11  C   UNL     1       6.103   3.272  12.148  0.00  0.00    +0.000 A 
ATOM     12  C   UNL     1       5.385   3.345  13.339  0.00  0.00    +0.000 A 
ATOM     13  C   UNL     1       5.777   4.222  14.345  0.00  0.00    +0.000 A 
ATOM     14  C   UNL     1       6.948   4.976  14.205  0.00  0.00    +0.000 A 
ATOM     15  C   UNL     1       7.651   4.934  12.999  0.00  0.00    +0.000 A 
ATOM     16  C   UNL     1       7.229   4.080  11.971  0.00  0.00    +0.000 A 
BRANCH  11  18
ATOM     17  C   UNL     1       6.472   1.199  11.085  0.00  0.00    +0.000 C 
ATOM     18  O   UNL     1       5.644   2.338  11.263  0.00  0.00    +0.000 OA
ENDBRANCH  11  18
ENDBRANCH  10  14
ENDBRANCH   1  10
BRANCH   9  19
ATOM     19  C   UNL     1       3.357   6.224  19.621  0.00  0.00    +0.000 C 
BRANCH  19  20
ATOM     20  C   UNL     1       2.445   5.027  19.760  0.00  0.00    +0.000 A 
ATOM     21  C   UNL     1       1.899   4.392  18.634  0.00  0.00    +0.000 A 
ATOM     22  C   UNL     1       1.137   3.229  18.770  0.00  0.00    +0.000 A 
ATOM     23  C   UNL     1       0.913   2.681  20.031  0.00  0.00    +0.000 A 
ATOM     24  C   UNL     1       1.444   3.303  21.159  0.00  0.00    +0.000 A 
ATOM     25  C   UNL     1       2.204   4.468  21.025  0.00  0.00    +0.000 A 
ENDBRANCH  19  20
ENDBRANCH   9  19
TORSDOF 5
ENDMDL
MODEL 2
REMARK VINA RESULT:      -8.3      6.017      8.817
REMARK  Name = 
REMARK  6 active torsions:
REMARK  status: ('A' for Active; 'I' for Inactive)
REMARK    1  A    between atoms: C_1  and  O_2
REMARK    2  A    between atoms: O_2  and  C_3
REMARK    3  A    between atoms: C_6  and  O_7
REMARK    4  A    between atoms: O_7  and  C_8
REMARK    5  A    between atoms: N_16  and  C_17
REMARK    6  A    between atoms: C_17  and  C_18
REMARK                            x       y       z     vdW  Elec       q    Type
REMARK                         _______ _______ _______ _____ _____    ______ ____
ROOT
ATOM      1  C   UNL     1       0.418   9.993  19.391  0.00  0.00    +0.000 A 
ATOM      2  N   UNL     1      -0.026   9.777  20.664  0.00  0.00    +0.000 NA
ATOM      3  C   UNL     1       0.524   8.773  21.369  0.00  0.00    +0.000 A 
ATOM      4  N   UNL     1       1.454   7.894  20.962  0.00  0.00    +0.000 NA
ATOM      5  C   UNL     1       1.808   8.113  19.685  0.00  0.00    +0.000 A 
ATOM      6  C   UNL     1       1.349   9.112  18.836  0.00  0.00    +0.000 A 
ATOM      7  N   UNL     1       1.953   9.007  17.599  0.00  0.00    +0.000 NA
ATOM      8  C   UNL     1       2.746   7.959  17.693  0.00  0.00    +0.000 A 
ATOM      9  N   UNL     1       2.704   7.396  18.941  0.00  0.00    +0.000 N 
ENDROOT
BRANCH   1  10
ATOM     10  O   UNL     1      -0.047  11.100  18.685  0.00  0.00    +0.000 OA
BRANCH  10  14
ATOM     11  C   UNL     1      -4.106  10.974  17.693  0.00  0.00    +0.000 A 
ATOM     12  C   UNL     1      -3.662  11.886  18.648  0.00  0.00    +0.000 A 
ATOM     13  C   UNL     1      -2.308  11.985  18.949  0.00  0.00    +0.000 A 
ATOM     14  C   UNL     1      -1.389  11.108  18.362  0.00  0.00    +0.000 A 
ATOM     15  C   UNL     1      -1.824  10.217  17.379  0.00  0.00    +0.000 A 
ATOM     16  C   UNL     1      -3.184  10.149  17.045  0.00  0.00    +0.000 A 
BRANCH  11  18
ATOM     17  C   UNL     1      -6.222  10.689  18.696  0.00  0.00    +0.000 C 
ATOM     18  O   UNL     1      -5.462  10.942  17.524  0.00  0.00    +0.000 OA
ENDBRANCH  11  18
ENDBRANCH  10  14
ENDBRANCH   1  10
BRANCH   9  19
ATOM     19  C   UNL     1       3.351   6.165  19.351  0.00  0.00    +0.000 C 
BRANCH  19  20
ATOM     20  C   UNL     1       2.417   4.979  19.407  0.00  0.00    +0.000 A 
ATOM     21  C   UNL     1       2.003   4.322  18.238  0.00  0.00    +0.000 A 
ATOM     22  C   UNL     1       1.217   3.168  18.308  0.00  0.00    +0.000 A 
ATOM     23  C   UNL     1       0.840   2.652  19.546  0.00  0.00    +0.000 A 
ATOM     24  C   UNL     1       1.239   3.296  20.714  0.00  0.00    +0.000 A 
ATOM     25  C   UNL     1       2.021   4.452  20.646  0.00  0.00    +0.000 A 
ENDBRANCH  19  20
ENDBRANCH   9  19
TORSDOF 5
ENDMDL
MODEL 3
REMARK VINA RESULT:      -8.3      6.241      9.080
REMARK  Name = 
REMARK  6 active torsions:
REMARK  status: ('A' for Active; 'I' for Inactive)
REMARK    1  A    between atoms: C_1  and  O_2
REMARK    2  A    between atoms: O_2  and  C_3
REMARK    3  A    between atoms: C_6  and  O_7
REMARK    4  A    between atoms: O_7  and  C_8
REMARK    5  A    between atoms: N_16  and  C_17
REMARK    6  A    between atoms: C_17  and  C_18
REMARK                            x       y       z     vdW  Elec       q    Type
REMARK                         _______ _______ _______ _____ _____    ______ ____
ROOT
ATOM      1  C   UNL     1       0.235  10.132  19.514  0.00  0.00    +0.000 A 
ATOM      2  N   UNL     1      -0.124   9.909  20.813  0.00  0.00    +0.000 NA
ATOM      3  C   UNL     1       0.493   8.920  21.484  0.00  0.00    +0.000 A 
ATOM      4  N   UNL     1       1.415   8.062  21.021  0.00  0.00    +0.000 NA
ATOM      5  C   UNL     1       1.685   8.286  19.724  0.00  0.00    +0.000 A 
ATOM      6  C   UNL     1       1.150   9.271  18.904  0.00  0.00    +0.000 A 
ATOM      7  N   UNL     1       1.679   9.177  17.632  0.00  0.00    +0.000 NA
ATOM      8  C   UNL     1       2.500   8.148  17.678  0.00  0.00    +0.000 A 
ATOM      9  N   UNL     1       2.549   7.588  18.926  0.00  0.00    +0.000 N 
ENDROOT
BRANCH   1  10
ATOM     10  O   UNL     1      -0.298  11.227  18.837  0.00  0.00    +0.000 OA
BRANCH  10  14
ATOM     11  C   UNL     1      -4.398  11.254  18.024  0.00  0.00    +0.000 A 
ATOM     12  C   UNL     1      -3.581  10.322  17.391  0.00  0.00    +0.000 A 
ATOM     13  C   UNL     1      -2.224  10.256  17.691  0.00  0.00    +0.000 A 
ATOM     14  C   UNL     1      -1.651  11.186  18.566  0.00  0.00    +0.000 A 
ATOM     15  C   UNL     1      -2.472  12.099  19.231  0.00  0.00    +0.000 A 
ATOM     16  C   UNL     1      -3.847  12.133  18.959  0.00  0.00    +0.000 A 
BRANCH  11  18
ATOM     17  C   UNL     1      -6.634  10.684  18.515  0.00  0.00    +0.000 C 
ATOM     18  O   UNL     1      -5.699  11.247  17.607  0.00  0.00    +0.000 OA
ENDBRANCH  11  18
ENDBRANCH  10  14
ENDBRANCH   1  10
BRANCH   9  19
ATOM     19  C   UNL     1       3.249   6.373  19.296  0.00  0.00    +0.000 C 
BRANCH  19  20
ATOM     20  C   UNL     1       2.358   5.154  19.350  0.00  0.00    +0.000 A 
ATOM     21  C   UNL     1       2.005   4.457  18.183  0.00  0.00    +0.000 A 
ATOM     22  C   UNL     1       1.262   3.276  18.256  0.00  0.00    +0.000 A 
ATOM     23  C   UNL     1       0.867   2.771  19.492  0.00  0.00    +0.000 A 
ATOM     24  C   UNL     1       1.207   3.453  20.658  0.00  0.00    +0.000 A 
ATOM     25  C   UNL     1       1.946   4.636  20.588  0.00  0.00    +0.000 A 
ENDBRANCH  19  20
ENDBRANCH   9  19
TORSDOF 5
ENDMDL
MODEL 4
REMARK VINA RESULT:      -8.3      6.026      8.839
REMARK  Name = 
REMARK  6 active torsions:
REMARK  status: ('A' for Active; 'I' for Inactive)
REMARK    1  A    between atoms: C_1  and  O_2
REMARK    2  A    between atoms: O_2  and  C_3
REMARK    3  A    between atoms: C_6  and  O_7
REMARK    4  A    between atoms: O_7  and  C_8
REMARK    5  A    between atoms: N_16  and  C_17
REMARK    6  A    between atoms: C_17  and  C_18
REMARK                            x       y       z     vdW  Elec       q    Type
REMARK                         _______ _______ _______ _____ _____    ______ ____
ROOT
ATOM      1  C   UNL     1       0.488   9.879  19.290  0.00  0.00    +0.000 A 
ATOM      2  N   UNL     1       0.025   9.694  20.561  0.00  0.00    +0.000 NA
ATOM      3  C   UNL     1       0.575   8.719  21.305  0.00  0.00    +0.000 A 
ATOM      4  N   UNL     1       1.524   7.841  20.941  0.00  0.00    +0.000 NA
ATOM      5  C   UNL     1       1.898   8.027  19.664  0.00  0.00    +0.000 A 
ATOM      6  C   UNL     1       1.440   8.994  18.777  0.00  0.00    +0.000 A 
ATOM      7  N   UNL     1       2.068   8.860  17.555  0.00  0.00    +0.000 NA
ATOM      8  C   UNL     1       2.873   7.826  17.694  0.00  0.00    +0.000 A 
ATOM      9  N   UNL     1       2.816   7.301  18.957  0.00  0.00    +0.000 N 
ENDROOT
BRANCH   1  10
ATOM     10  O   UNL     1       0.022  10.958  18.543  0.00  0.00    +0.000 OA
BRANCH  10  14
ATOM     11  C   UNL     1      -4.090  10.929  17.791  0.00  0.00    +0.000 A 
ATOM     12  C   UNL     1      -3.564  11.858  18.685  0.00  0.00    +0.000 A 
ATOM     13  C   UNL     1      -2.192  11.924  18.905  0.00  0.00    +0.000 A 
ATOM     14  C   UNL     1      -1.336  10.998  18.298  0.00  0.00    +0.000 A 
ATOM     15  C   UNL     1      -1.855  10.088  17.374  0.00  0.00    +0.000 A 
ATOM     16  C   UNL     1      -3.233  10.054  17.122  0.00  0.00    +0.000 A 
BRANCH  11  18
ATOM     17  C   UNL     1      -6.045  12.190  17.400  0.00  0.00    +0.000 C 
ATOM     18  O   UNL     1      -5.454  10.935  17.701  0.00  0.00    +0.000 OA
ENDBRANCH  11  18
ENDBRANCH  10  14
ENDBRANCH   1  10
BRANCH   9  19
ATOM     19  C   UNL     1       3.472   6.091  19.414  0.00  0.00    +0.000 C 
BRANCH  19  20
ATOM     20  C   UNL     1       2.566   4.882  19.436  0.00  0.00    +0.000 A 
ATOM     21  C   UNL     1       2.042   4.386  20.640  0.00  0.00    +0.000 A 
ATOM     22  C   UNL     1       1.129   3.328  20.638  0.00  0.00    +0.000 A 
ATOM     23  C   UNL     1       0.722   2.756  19.436  0.00  0.00    +0.000 A 
ATOM     24  C   UNL     1       1.235   3.235  18.234  0.00  0.00    +0.000 A 
ATOM     25  C   UNL     1       2.152   4.290  18.233  0.00  0.00    +0.000 A 
ENDBRANCH  19  20
ENDBRANCH   9  19
TORSDOF 5
ENDMDL
MODEL 5
REMARK VINA RESULT:      -8.2      0.249      1.379
REMARK  Name = 
REMARK  6 active torsions:
REMARK  status: ('A' for Active; 'I' for Inactive)
REMARK    1  A    between atoms: C_1  and  O_2
REMARK    2  A    between atoms: O_2  and  C_3
REMARK    3  A    between atoms: C_6  and  O_7
REMARK    4  A    between atoms: O_7  and  C_8
REMARK    5  A    between atoms: N_16  and  C_17
REMARK    6  A    between atoms: C_17  and  C_18
REMARK                            x       y       z     vdW  Elec       q    Type
REMARK                         _______ _______ _______ _____ _____    ______ ____
ROOT
ATOM      1  C   UNL     1       6.968   5.679  16.617  0.00  0.00    +0.000 A 
ATOM      2  N   UNL     1       7.664   4.981  17.561  0.00  0.00    +0.000 NA
ATOM      3  C   UNL     1       7.052   4.696  18.724  0.00  0.00    +0.000 A 
ATOM      4  N   UNL     1       5.819   5.054  19.114  0.00  0.00    +0.000 NA
ATOM      5  C   UNL     1       5.203   5.791  18.174  0.00  0.00    +0.000 A 
ATOM      6  C   UNL     1       5.690   6.153  16.926  0.00  0.00    +0.000 A 
ATOM      7  N   UNL     1       4.758   6.913  16.248  0.00  0.00    +0.000 NA
ATOM      8  C   UNL     1       3.738   7.022  17.075  0.00  0.00    +0.000 A 
ATOM      9  N   UNL     1       3.955   6.346  18.245  0.00  0.00    +0.000 N 
ENDROOT
BRANCH   1  10
ATOM     10  O   UNL     1       7.534   5.880  15.360  0.00  0.00    +0.000 OA
BRANCH  10  14
ATOM     11  C   UNL     1       6.120   3.338  12.358  0.00  0.00    +0.000 A 
ATOM     12  C   UNL     1       7.150   4.231  12.071  0.00  0.00    +0.000 A 
ATOM     13  C   UNL     1       7.675   5.043  13.070  0.00  0.00    +0.000 A 
ATOM     14  C   UNL     1       7.114   5.037  14.352  0.00  0.00    +0.000 A 
ATOM     15  C   UNL     1       6.106   4.118  14.654  0.00  0.00    +0.000 A 
ATOM     16  C   UNL     1       5.608   3.269  13.656  0.00  0.00    +0.000 A 
BRANCH  11  18
ATOM     17  C   UNL     1       6.067   1.273  11.218  0.00  0.00    +0.000 C 
ATOM     18  O   UNL     1       5.662   2.632  11.282  0.00  0.00    +0.000 OA
ENDBRANCH  11  18
ENDBRANCH  10  14
ENDBRANCH   1  10
BRANCH   9  19
ATOM     19  C   UNL     1       3.100   6.359  19.416  0.00  0.00    +0.000 C 
BRANCH  19  20
ATOM     20  C   UNL     1       2.423   5.036  19.687  0.00  0.00    +0.000 A 
ATOM     21  C   UNL     1       2.323   4.522  20.990  0.00  0.00    +0.000 A 
ATOM     22  C   UNL     1       1.610   3.347  21.240  0.00  0.00    +0.000 A 
ATOM     23  C   UNL     1       0.983   2.671  20.195  0.00  0.00    +0.000 A 
ATOM     24  C   UNL     1       1.077   3.167  18.897  0.00  0.00    +0.000 A 
ATOM     25  C   UNL     1       1.793   4.340  18.644  0.00  0.00    +0.000 A 
ENDBRANCH  19  20
ENDBRANCH   9  19
TORSDOF 5
ENDMDL
MODEL 6
REMARK VINA RESULT:      -8.1      6.385      9.228
REMARK  Name = 
REMARK  6 active torsions:
REMARK  status: ('A' for Active; 'I' for Inactive)
REMARK    1  A    between atoms: C_1  and  O_2
REMARK    2  A    between atoms: O_2  and  C_3
REMARK    3  A    between atoms: C_6  and  O_7
REMARK    4  A    between atoms: O_7  and  C_8
REMARK    5  A    between atoms: N_16  and  C_17
REMARK    6  A    between atoms: C_17  and  C_18
REMARK                            x       y       z     vdW  Elec       q    Type
REMARK                         _______ _______ _______ _____ _____    ______ ____
ROOT
ATOM      1  C   UNL     1       0.131  10.181  19.429  0.00  0.00    +0.000 A 
ATOM      2  N   UNL     1      -0.207  10.017  20.742  0.00  0.00    +0.000 NA
ATOM      3  C   UNL     1       0.446   9.083  21.456  0.00  0.00    +0.000 A 
ATOM      4  N   UNL     1       1.390   8.229  21.027  0.00  0.00    +0.000 NA
ATOM      5  C   UNL     1       1.639   8.393  19.717  0.00  0.00    +0.000 A 
ATOM      6  C   UNL     1       1.066   9.317  18.853  0.00  0.00    +0.000 A 
ATOM      7  N   UNL     1       1.584   9.171  17.582  0.00  0.00    +0.000 NA
ATOM      8  C   UNL     1       2.436   8.171  17.671  0.00  0.00    +0.000 A 
ATOM      9  N   UNL     1       2.515   7.679  18.947  0.00  0.00    +0.000 N 
ENDROOT
BRANCH   1  10
ATOM     10  O   UNL     1      -0.441  11.222  18.702  0.00  0.00    +0.000 OA
BRANCH  10  14
ATOM     11  C   UNL     1      -4.575  11.161  18.081  0.00  0.00    +0.000 A 
ATOM     12  C   UNL     1      -3.767  10.256  17.398  0.00  0.00    +0.000 A 
ATOM     13  C   UNL     1      -2.397  10.219  17.634  0.00  0.00    +0.000 A 
ATOM     14  C   UNL     1      -1.804  11.152  18.493  0.00  0.00    +0.000 A 
ATOM     15  C   UNL     1      -2.615  12.038  19.207  0.00  0.00    +0.000 A 
ATOM     16  C   UNL     1      -4.001  12.043  18.999  0.00  0.00    +0.000 A 
BRANCH  11  18
ATOM     17  C   UNL     1      -6.482  12.385  17.424  0.00  0.00    +0.000 C 
ATOM     18  O   UNL     1      -5.894  11.128  17.724  0.00  0.00    +0.000 OA
ENDBRANCH  11  18
ENDBRANCH  10  14
ENDBRANCH   1  10
BRANCH   9  19
ATOM     19  C   UNL     1       3.255   6.507  19.371  0.00  0.00    +0.000 C 
BRANCH  19  20
ATOM     20  C   UNL     1       2.437   5.237  19.361  0.00  0.00    +0.000 A 
ATOM     21  C   UNL     1       1.829   4.752  20.530  0.00  0.00    +0.000 A 
ATOM     22  C   UNL     1       0.995   3.631  20.488  0.00  0.00    +0.000 A 
ATOM     23  C   UNL     1       0.752   2.984  19.279  0.00  0.00    +0.000 A 
ATOM     24  C   UNL     1       1.351   3.451  18.112  0.00  0.00    +0.000 A 
ATOM     25  C   UNL     1       2.189   4.569  18.152  0.00  0.00    +0.000 A 
ENDBRANCH  19  20
ENDBRANCH   9  19
TORSDOF 5
ENDMDL
MODEL 7
REMARK VINA RESULT:      -7.7      0.917      1.436
REMARK  Name = 
REMARK  6 active torsions:
REMARK  status: ('A' for Active; 'I' for Inactive)
REMARK    1  A    between atoms: C_1  and  O_2
REMARK    2  A    between atoms: O_2  and  C_3
REMARK    3  A    between atoms: C_6  and  O_7
REMARK    4  A    between atoms: O_7  and  C_8
REMARK    5  A    between atoms: N_16  and  C_17
REMARK    6  A    between atoms: C_17  and  C_18
REMARK                            x       y       z     vdW  Elec       q    Type
REMARK                         _______ _______ _______ _____ _____    ______ ____
ROOT
ATOM      1  C   UNL     1       7.139   5.432  16.221  0.00  0.00    +0.000 A 
ATOM      2  N   UNL     1       7.999   4.708  16.995  0.00  0.00    +0.000 NA
ATOM      3  C   UNL     1       7.614   4.383  18.242  0.00  0.00    +0.000 A 
ATOM      4  N   UNL     1       6.477   4.724  18.868  0.00  0.00    +0.000 NA
ATOM      5  C   UNL     1       5.697   5.487  18.084  0.00  0.00    +0.000 A 
ATOM      6  C   UNL     1       5.943   5.891  16.778  0.00  0.00    +0.000 A 
ATOM      7  N   UNL     1       4.902   6.668  16.311  0.00  0.00    +0.000 NA
ATOM      8  C   UNL     1       4.055   6.747  17.318  0.00  0.00    +0.000 A 
ATOM      9  N   UNL     1       4.485   6.035  18.405  0.00  0.00    +0.000 N 
ENDROOT
BRANCH   1  10
ATOM     10  O   UNL     1       7.461   5.676  14.888  0.00  0.00    +0.000 OA
BRANCH  10  14
ATOM     11  C   UNL     1       5.535   3.234  12.094  0.00  0.00    +0.000 A 
ATOM     12  C   UNL     1       6.750   3.828  11.761  0.00  0.00    +0.000 A 
ATOM     13  C   UNL     1       7.436   4.596  12.696  0.00  0.00    +0.000 A 
ATOM     14  C   UNL     1       6.870   4.852  13.950  0.00  0.00    +0.000 A 
ATOM     15  C   UNL     1       5.670   4.229  14.301  0.00  0.00    +0.000 A 
ATOM     16  C   UNL     1       5.002   3.420  13.371  0.00  0.00    +0.000 A 
BRANCH  11  18
ATOM     17  C   UNL     1       3.653   3.006  10.689  0.00  0.00    +0.000 C 
ATOM     18  O   UNL     1       4.941   2.546  11.073  0.00  0.00    +0.000 OA
ENDBRANCH  11  18
ENDBRANCH  10  14
ENDBRANCH   1  10
BRANCH   9  19
ATOM     19  C   UNL     1       3.865   6.007  19.714  0.00  0.00    +0.000 C 
BRANCH  19  20
ATOM     20  C   UNL     1       2.943   4.828  19.924  0.00  0.00    +0.000 A 
ATOM     21  C   UNL     1       3.441   3.518  19.995  0.00  0.00    +0.000 A 
ATOM     22  C   UNL     1       2.592   2.447  20.286  0.00  0.00    +0.000 A 
ATOM     23  C   UNL     1       1.237   2.670  20.516  0.00  0.00    +0.000 A 
ATOM     24  C   UNL     1       0.727   3.964  20.445  0.00  0.00    +0.000 A 
ATOM     25  C   UNL     1       1.574   5.036  20.150  0.00  0.00    +0.000 A 
ENDBRANCH  19  20
ENDBRANCH   9  19
TORSDOF 5
ENDMDL
MODEL 8
REMARK VINA RESULT:      -7.5      5.605      8.768
REMARK  Name = 
REMARK  6 active torsions:
REMARK  status: ('A' for Active; 'I' for Inactive)
REMARK    1  A    between atoms: C_1  and  O_2
REMARK    2  A    between atoms: O_2  and  C_3
REMARK    3  A    between atoms: C_6  and  O_7
REMARK    4  A    between atoms: O_7  and  C_8
REMARK    5  A    between atoms: N_16  and  C_17
REMARK    6  A    between atoms: C_17  and  C_18
REMARK                            x       y       z     vdW  Elec       q    Type
REMARK                         _______ _______ _______ _____ _____    ______ ____
ROOT
ATOM      1  C   UNL     1       0.519  10.113  19.224  0.00  0.00    +0.000 A 
ATOM      2  N   UNL     1       0.042   9.991  20.498  0.00  0.00    +0.000 NA
ATOM      3  C   UNL     1       0.536   9.009  21.272  0.00  0.00    +0.000 A 
ATOM      4  N   UNL     1       1.435   8.070  20.938  0.00  0.00    +0.000 NA
ATOM      5  C   UNL     1       1.823   8.198  19.658  0.00  0.00    +0.000 A 
ATOM      6  C   UNL     1       1.423   9.162  18.742  0.00  0.00    +0.000 A 
ATOM      7  N   UNL     1       2.046   8.959  17.527  0.00  0.00    +0.000 NA
ATOM      8  C   UNL     1       2.791   7.887  17.699  0.00  0.00    +0.000 A 
ATOM      9  N   UNL     1       2.702   7.402  18.976  0.00  0.00    +0.000 N 
ENDROOT
BRANCH   1  10
ATOM     10  O   UNL     1       0.116  11.194  18.444  0.00  0.00    +0.000 OA
BRANCH  10  14
ATOM     11  C   UNL     1       2.106  14.806  19.133  0.00  0.00    +0.000 A 
ATOM     12  C   UNL     1       2.815  13.718  18.631  0.00  0.00    +0.000 A 
ATOM     13  C   UNL     1       2.162  12.526  18.339  0.00  0.00    +0.000 A 
ATOM     14  C   UNL     1       0.801  12.379  18.631  0.00  0.00    +0.000 A 
ATOM     15  C   UNL     1       0.077  13.478  19.100  0.00  0.00    +0.000 A 
ATOM     16  C   UNL     1       0.731  14.692  19.353  0.00  0.00    +0.000 A 
BRANCH  11  18
ATOM     17  C   UNL     1       3.440  16.567  18.305  0.00  0.00    +0.000 C 
ATOM     18  O   UNL     1       2.871  15.901  19.422  0.00  0.00    +0.000 OA
ENDBRANCH  11  18
ENDBRANCH  10  14
ENDBRANCH   1  10
BRANCH   9  19
ATOM     19  C   UNL     1       3.288   6.171  19.471  0.00  0.00    +0.000 C 
BRANCH  19  20
ATOM     20  C   UNL     1       2.347   4.989  19.422  0.00  0.00    +0.000 A 
ATOM     21  C   UNL     1       2.059   4.338  18.212  0.00  0.00    +0.000 A 
ATOM     22  C   UNL     1       1.266   3.187  18.194  0.00  0.00    +0.000 A 
ATOM     23  C   UNL     1       0.755   2.669  19.381  0.00  0.00    +0.000 A 
ATOM     24  C   UNL     1       1.029   3.307  20.588  0.00  0.00    +0.000 A 
ATOM     25  C   UNL     1       1.818   4.460  20.609  0.00  0.00    +0.000 A 
ENDBRANCH  19  20
ENDBRANCH   9  19
TORSDOF 5
ENDMDL
MODEL 9
REMARK VINA RESULT:      -7.5      5.855      8.436
REMARK  Name = 
REMARK  6 active torsions:
REMARK  status: ('A' for Active; 'I' for Inactive)
REMARK    1  A    between atoms: C_1  and  O_2
REMARK    2  A    between atoms: O_2  and  C_3
REMARK    3  A    between atoms: C_6  and  O_7
REMARK    4  A    between atoms: O_7  and  C_8
REMARK    5  A    between atoms: N_16  and  C_17
REMARK    6  A    between atoms: C_17  and  C_18
REMARK                            x       y       z     vdW  Elec       q    Type
REMARK                         _______ _______ _______ _____ _____    ______ ____
ROOT
ATOM      1  C   UNL     1      -0.143  10.266  20.130  0.00  0.00    +0.000 A 
ATOM      2  N   UNL     1      -0.341   9.990  21.453  0.00  0.00    +0.000 NA
ATOM      3  C   UNL     1       0.395   9.019  22.019  0.00  0.00    +0.000 A 
ATOM      4  N   UNL     1       1.301   8.222  21.430  0.00  0.00    +0.000 NA
ATOM      5  C   UNL     1       1.411   8.494  20.118  0.00  0.00    +0.000 A 
ATOM      6  C   UNL     1       0.739   9.470  19.394  0.00  0.00    +0.000 A 
ATOM      7  N   UNL     1       1.124   9.436  18.069  0.00  0.00    +0.000 NA
ATOM      8  C   UNL     1       1.996   8.451  17.991  0.00  0.00    +0.000 A 
ATOM      9  N   UNL     1       2.213   7.863  19.208  0.00  0.00    +0.000 N 
ENDROOT
BRANCH   1  10
ATOM     10  O   UNL     1      -0.802  11.347  19.551  0.00  0.00    +0.000 OA
BRANCH  10  14
ATOM     11  C   UNL     1      -3.330  10.471  16.339  0.00  0.00    +0.000 A 
ATOM     12  C   UNL     1      -2.453  11.548  16.246  0.00  0.00    +0.000 A 
ATOM     13  C   UNL     1      -1.562  11.821  17.279  0.00  0.00    +0.000 A 
ATOM     14  C   UNL     1      -1.600  11.071  18.459  0.00  0.00    +0.000 A 
ATOM     15  C   UNL     1      -2.453   9.968  18.543  0.00  0.00    +0.000 A 
ATOM     16  C   UNL     1      -3.319   9.669  17.482  0.00  0.00    +0.000 A 
BRANCH  11  18
ATOM     17  C   UNL     1      -3.574  10.080  14.025  0.00  0.00    +0.000 C 
ATOM     18  O   UNL     1      -4.184  10.339  15.281  0.00  0.00    +0.000 OA
ENDBRANCH  11  18
ENDBRANCH  10  14
ENDBRANCH   1  10
BRANCH   9  19
ATOM     19  C   UNL     1       3.009   6.678  19.459  0.00  0.00    +0.000 C 
BRANCH  19  20
ATOM     20  C   UNL     1       2.219   5.391  19.392  0.00  0.00    +0.000 A 
ATOM     21  C   UNL     1       2.033   4.713  18.178  0.00  0.00    +0.000 A 
ATOM     22  C   UNL     1       1.384   3.475  18.144  0.00  0.00    +0.000 A 
ATOM     23  C   UNL     1       0.918   2.896  19.322  0.00  0.00    +0.000 A 
ATOM     24  C   UNL     1       1.092   3.560  20.534  0.00  0.00    +0.000 A 
ATOM     25  C   UNL     1       1.737   4.799  20.570  0.00  0.00    +0.000 A 
ENDBRANCH  19  20
ENDBRANCH   9  19
TORSDOF 5
ENDMDL
