MODEL 1
REMARK VINA RESULT:      -7.8      0.000      0.000
REMARK  Name = 
REMARK  4 active torsions:
REMARK  status: ('A' for Active; 'I' for Inactive)
REMARK    1  A    between atoms: C_4  and  C_5
REMARK    2  A    between atoms: C_5  and  N_6
REMARK    3  A    between atoms: N_6  and  C_7
REMARK    4  A    between atoms: N_15  and  C_16
REMARK                            x       y       z     vdW  Elec       q    Type
REMARK                         _______ _______ _______ _____ _____    ______ ____
ROOT
ATOM      1  C   UNL     1       6.699   6.794  16.809  0.00  0.00    +0.000 A 
ATOM      2  N   UNL     1       7.459   5.949  16.059  0.00  0.00    +0.000 NA
ATOM      3  C   UNL     1       7.031   4.688  15.826  0.00  0.00    +0.000 A 
ATOM      4  C   UNL     1       5.831   4.146  16.270  0.00  0.00    +0.000 A 
ATOM      5  C   UNL     1       5.023   5.027  16.985  0.00  0.00    +0.000 A 
ATOM      6  C   UNL     1       5.433   6.329  17.264  0.00  0.00    +0.000 A 
ATOM      7  N   UNL     1       4.468   7.001  17.994  0.00  0.00    +0.000 NA
ATOM      8  C   UNL     1       3.498   6.137  18.151  0.00  0.00    +0.000 A 
ATOM      9  N   UNL     1       3.775   4.933  17.564  0.00  0.00    +0.000 N 
ENDROOT
BRANCH   9  10
ATOM     10  C   UNL     1       2.890   3.784  17.549  0.00  0.00    +0.000 C 
ATOM     11  C   UNL     1       3.364   2.624  18.425  0.00  0.00    +0.000 C 
ATOM     12  C   UNL     1       2.106   1.806  18.689  0.00  0.00    +0.000 C 
ATOM     13  C   UNL     1       0.929   2.769  18.574  0.00  0.00    +0.000 C 
ATOM     14  C   UNL     1       1.480   4.093  18.057  0.00  0.00    +0.000 C 
ENDBRANCH   9  10
BRANCH   1  15
ATOM     15  N   UNL     1       7.139   8.080  17.135  0.00  0.00    +0.000 N 
ATOM     16  H   UNL     1       7.362   8.563  16.269  0.00  0.00    +0.000 HD
BRANCH  15  17
ATOM     17  C   UNL     1       8.176   8.149  18.150  0.00  0.00    +0.000 C 
BRANCH  17  21
ATOM     18  C   UNL     1       9.335  12.257  18.894  0.00  0.00    +0.000 A 
ATOM     19  C   UNL     1       9.741  11.241  19.757  0.00  0.00    +0.000 A 
ATOM     20  C   UNL     1       9.377   9.916  19.495  0.00  0.00    +0.000 A 
ATOM     21  C   UNL     1       8.588   9.590  18.388  0.00  0.00    +0.000 A 
ATOM     22  C   UNL     1       8.206  10.622  17.512  0.00  0.00    +0.000 A 
ATOM     23  C   UNL     1       8.582  11.952  17.769  0.00  0.00    +0.000 A 
ENDBRANCH  17  21
ENDBRANCH  15  17
ENDBRANCH   1  15
TORSDOF 4
ENDMDL
MODEL 2
REMARK VINA RESULT:      -7.7      0.140      1.036
REMARK  Name = 
REMARK  4 active torsions:
REMARK  status: ('A' for Active; 'I' for Inactive)
REMARK    1  A    between atoms: C_4  and  C_5
REMARK    2  A    between atoms: C_5  and  N_6
REMARK    3  A    between atoms: N_6  and  C_7
REMARK    4  A    between atoms: N_15  and  C_16
REMARK                            x       y       z     vdW  Elec       q    Type
REMARK                         _______ _______ _______ _____ _____    ______ ____
ROOT
ATOM      1  C   UNL     1       6.844   6.758  16.722  0.00  0.00    +0.000 A 
ATOM      2  N   UNL     1       7.594   5.877  16.004  0.00  0.00    +0.000 NA
ATOM      3  C   UNL     1       7.141   4.620  15.801  0.00  0.00    +0.000 A 
ATOM      4  C   UNL     1       5.925   4.116  16.247  0.00  0.00    +0.000 A 
ATOM      5  C   UNL     1       5.130   5.033  16.929  0.00  0.00    +0.000 A 
ATOM      6  C   UNL     1       5.565   6.333  17.177  0.00  0.00    +0.000 A 
ATOM      7  N   UNL     1       4.606   7.045  17.878  0.00  0.00    +0.000 NA
ATOM      8  C   UNL     1       3.617   6.206  18.048  0.00  0.00    +0.000 A 
ATOM      9  N   UNL     1       3.875   4.981  17.498  0.00  0.00    +0.000 N 
ENDROOT
BRANCH   9  10
ATOM     10  C   UNL     1       2.965   3.851  17.504  0.00  0.00    +0.000 C 
ATOM     11  C   UNL     1       3.379   2.727  18.455  0.00  0.00    +0.000 C 
ATOM     12  C   UNL     1       2.094   1.948  18.709  0.00  0.00    +0.000 C 
ATOM     13  C   UNL     1       0.944   2.928  18.501  0.00  0.00    +0.000 C 
ATOM     14  C   UNL     1       1.544   4.213  17.942  0.00  0.00    +0.000 C 
ENDBRANCH   9  10
BRANCH   1  15
ATOM     15  N   UNL     1       7.309   8.043  17.018  0.00  0.00    +0.000 N 
ATOM     16  H   UNL     1       7.718   8.430  16.171  0.00  0.00    +0.000 HD
BRANCH  15  17
ATOM     17  C   UNL     1       8.147   8.150  18.198  0.00  0.00    +0.000 C 
BRANCH  17  21
ATOM     18  C   UNL     1       9.398  12.264  18.740  0.00  0.00    +0.000 A 
ATOM     19  C   UNL     1       8.548  11.916  17.693  0.00  0.00    +0.000 A 
ATOM     20  C   UNL     1       8.135  10.588  17.540  0.00  0.00    +0.000 A 
ATOM     21  C   UNL     1       8.581   9.589  18.411  0.00  0.00    +0.000 A 
ATOM     22  C   UNL     1       9.419   9.958  19.479  0.00  0.00    +0.000 A 
ATOM     23  C   UNL     1       9.824  11.295  19.639  0.00  0.00    +0.000 A 
ENDBRANCH  17  21
ENDBRANCH  15  17
ENDBRANCH   1  15
TORSDOF 4
ENDMDL
MODEL 3
REMARK VINA RESULT:      -7.7      3.400      6.067
REMARK  Name = 
REMARK  4 active torsions:
REMARK  status: ('A' for Active; 'I' for Inactive)
REMARK    1  A    between atoms: C_4  and  C_5
REMARK    2  A    between atoms: C_5  and  N_6
REMARK    3  A    between atoms: N_6  and  C_7
REMARK    4  A    between atoms: N_15  and  C_16
REMARK                            x       y       z     vdW  Elec       q    Type
REMARK                         _______ _______ _______ _____ _____    ______ ____
ROOT
ATOM      1  C   UNL     1       7.012   4.614  16.824  0.00  0.00    +0.000 A 
ATOM      2  N   UNL     1       7.776   5.328  17.696  0.00  0.00    +0.000 NA
ATOM      3  C   UNL     1       7.263   5.699  18.890  0.00  0.00    +0.000 A 
ATOM      4  C   UNL     1       5.988   5.395  19.352  0.00  0.00    +0.000 A 
ATOM      5  C   UNL     1       5.226   4.613  18.488  0.00  0.00    +0.000 A 
ATOM      6  C   UNL     1       5.709   4.224  17.240  0.00  0.00    +0.000 A 
ATOM      7  N   UNL     1       4.767   3.467  16.565  0.00  0.00    +0.000 NA
ATOM      8  C   UNL     1       3.743   3.394  17.377  0.00  0.00    +0.000 A 
ATOM      9  N   UNL     1       3.963   4.064  18.549  0.00  0.00    +0.000 N 
ENDROOT
BRANCH   9  10
ATOM     10  C   UNL     1       3.027   4.148  19.655  0.00  0.00    +0.000 C 
ATOM     11  C   UNL     1       1.563   4.236  19.222  0.00  0.00    +0.000 C 
ATOM     12  C   UNL     1       0.775   3.782  20.445  0.00  0.00    +0.000 C 
ATOM     13  C   UNL     1       1.698   2.863  21.239  0.00  0.00    +0.000 C 
ATOM     14  C   UNL     1       3.075   2.936  20.589  0.00  0.00    +0.000 C 
ENDBRANCH   9  10
BRANCH   1  15
ATOM     15  N   UNL     1       7.479   4.275  15.550  0.00  0.00    +0.000 N 
ATOM     16  H   UNL     1       8.494   4.227  15.592  0.00  0.00    +0.000 HD
BRANCH  15  17
ATOM     17  C   UNL     1       6.957   5.075  14.457  0.00  0.00    +0.000 C 
BRANCH  17  21
ATOM     18  C   UNL     1       5.511   2.548  11.248  0.00  0.00    +0.000 A 
ATOM     19  C   UNL     1       6.878   2.749  11.428  0.00  0.00    +0.000 A 
ATOM     20  C   UNL     1       7.333   3.551  12.479  0.00  0.00    +0.000 A 
ATOM     21  C   UNL     1       6.436   4.180  13.348  0.00  0.00    +0.000 A 
ATOM     22  C   UNL     1       5.059   3.948  13.171  0.00  0.00    +0.000 A 
ATOM     23  C   UNL     1       4.603   3.132  12.121  0.00  0.00    +0.000 A 
ENDBRANCH  17  21
ENDBRANCH  15  17
ENDBRANCH   1  15
TORSDOF 4
ENDMDL
MODEL 4
REMARK VINA RESULT:      -7.6      3.336      6.085
REMARK  Name = 
REMARK  4 active torsions:
REMARK  status: ('A' for Active; 'I' for Inactive)
REMARK    1  A    between atoms: C_4  and  C_5
REMARK    2  A    between atoms: C_5  and  N_6
REMARK    3  A    between atoms: N_6  and  C_7
REMARK    4  A    between atoms: N_15  and  C_16
REMARK                            x       y       z     vdW  Elec       q    Type
REMARK                         _______ _______ _______ _____ _____    ______ ____
ROOT
ATOM      1  C   UNL     1       7.080   4.738  16.765  0.00  0.00    +0.000 A 
ATOM      2  N   UNL     1       7.807   5.506  17.621  0.00  0.00    +0.000 NA
ATOM      3  C   UNL     1       7.305   5.818  18.837  0.00  0.00    +0.000 A 
ATOM      4  C   UNL     1       6.078   5.398  19.336  0.00  0.00    +0.000 A 
ATOM      5  C   UNL     1       5.358   4.562  18.487  0.00  0.00    +0.000 A 
ATOM      6  C   UNL     1       5.830   4.229  17.219  0.00  0.00    +0.000 A 
ATOM      7  N   UNL     1       4.936   3.399  16.565  0.00  0.00    +0.000 NA
ATOM      8  C   UNL     1       3.951   3.228  17.409  0.00  0.00    +0.000 A 
ATOM      9  N   UNL     1       4.151   3.902  18.583  0.00  0.00    +0.000 N 
ENDROOT
BRANCH   9  10
ATOM     10  C   UNL     1       3.249   3.892  19.719  0.00  0.00    +0.000 C 
ATOM     11  C   UNL     1       2.188   4.992  19.680  0.00  0.00    +0.000 C 
ATOM     12  C   UNL     1       1.085   4.492  20.603  0.00  0.00    +0.000 C 
ATOM     13  C   UNL     1       1.179   2.969  20.609  0.00  0.00    +0.000 C 
ATOM     14  C   UNL     1       2.447   2.594  19.851  0.00  0.00    +0.000 C 
ENDBRANCH   9  10
BRANCH   1  15
ATOM     15  N   UNL     1       7.531   4.454  15.472  0.00  0.00    +0.000 N 
ATOM     16  H   UNL     1       8.545   4.522  15.474  0.00  0.00    +0.000 HD
BRANCH  15  17
ATOM     17  C   UNL     1       6.877   5.190  14.405  0.00  0.00    +0.000 C 
BRANCH  17  21
ATOM     18  C   UNL     1       5.514   2.454  11.333  0.00  0.00    +0.000 A 
ATOM     19  C   UNL     1       4.596   3.141  12.125  0.00  0.00    +0.000 A 
ATOM     20  C   UNL     1       5.048   4.036  13.100  0.00  0.00    +0.000 A 
ATOM     21  C   UNL     1       6.415   4.240  13.314  0.00  0.00    +0.000 A 
ATOM     22  C   UNL     1       7.330   3.559  12.492  0.00  0.00    +0.000 A 
ATOM     23  C   UNL     1       6.875   2.668  11.503  0.00  0.00    +0.000 A 
ENDBRANCH  17  21
ENDBRANCH  15  17
ENDBRANCH   1  15
TORSDOF 4
ENDMDL
MODEL 5
REMARK VINA RESULT:      -7.6      3.145      6.324
REMARK  Name = 
REMARK  4 active torsions:
REMARK  status: ('A' for Active; 'I' for Inactive)
REMARK    1  A    between atoms: C_4  and  C_5
REMARK    2  A    between atoms: C_5  and  N_6
REMARK    3  A    between atoms: N_6  and  C_7
REMARK    4  A    between atoms: N_15  and  C_16
REMARK                            x       y       z     vdW  Elec       q    Type
REMARK                         _______ _______ _______ _____ _____    ______ ____
ROOT
ATOM      1  C   UNL     1       6.390   5.513  15.889  0.00  0.00    +0.000 A 
ATOM      2  N   UNL     1       7.405   6.111  16.572  0.00  0.00    +0.000 NA
ATOM      3  C   UNL     1       7.383   6.137  17.923  0.00  0.00    +0.000 A 
ATOM      4  C   UNL     1       6.400   5.570  18.726  0.00  0.00    +0.000 A 
ATOM      5  C   UNL     1       5.392   4.905  18.033  0.00  0.00    +0.000 A 
ATOM      6  C   UNL     1       5.366   4.870  16.640  0.00  0.00    +0.000 A 
ATOM      7  N   UNL     1       4.265   4.163  16.188  0.00  0.00    +0.000 NA
ATOM      8  C   UNL     1       3.642   3.776  17.272  0.00  0.00    +0.000 A 
ATOM      9  N   UNL     1       4.274   4.192  18.411  0.00  0.00    +0.000 N 
ENDROOT
BRANCH   9  10
ATOM     10  C   UNL     1       3.839   3.904  19.764  0.00  0.00    +0.000 C 
ATOM     11  C   UNL     1       2.749   4.844  20.280  0.00  0.00    +0.000 C 
ATOM     12  C   UNL     1       2.089   4.076  21.418  0.00  0.00    +0.000 C 
ATOM     13  C   UNL     1       2.300   2.595  21.124  0.00  0.00    +0.000 C 
ATOM     14  C   UNL     1       3.242   2.504  19.929  0.00  0.00    +0.000 C 
ENDBRANCH   9  10
BRANCH   1  15
ATOM     15  N   UNL     1       6.337   5.530  14.492  0.00  0.00    +0.000 N 
ATOM     16  H   UNL     1       5.358   5.511  14.216  0.00  0.00    +0.000 HD
BRANCH  15  17
ATOM     17  C   UNL     1       7.173   4.551  13.821  0.00  0.00    +0.000 C 
BRANCH  17  21
ATOM     18  C   UNL     1       4.873   2.233  10.973  0.00  0.00    +0.000 A 
ATOM     19  C   UNL     1       6.223   1.958  11.182  0.00  0.00    +0.000 A 
ATOM     20  C   UNL     1       6.950   2.700  12.118  0.00  0.00    +0.000 A 
ATOM     21  C   UNL     1       6.351   3.737  12.839  0.00  0.00    +0.000 A 
ATOM     22  C   UNL     1       4.981   3.988  12.637  0.00  0.00    +0.000 A 
ATOM     23  C   UNL     1       4.248   3.233  11.704  0.00  0.00    +0.000 A 
ENDBRANCH  17  21
ENDBRANCH  15  17
ENDBRANCH   1  15
TORSDOF 4
ENDMDL
MODEL 6
REMARK VINA RESULT:      -7.6      3.134      6.347
REMARK  Name = 
REMARK  4 active torsions:
REMARK  status: ('A' for Active; 'I' for Inactive)
REMARK    1  A    between atoms: C_4  and  C_5
REMARK    2  A    between atoms: C_5  and  N_6
REMARK    3  A    between atoms: N_6  and  C_7
REMARK    4  A    between atoms: N_15  and  C_16
REMARK                            x       y       z     vdW  Elec       q    Type
REMARK                         _______ _______ _______ _____ _____    ______ ____
ROOT
ATOM      1  C   UNL     1       6.410   5.519  15.933  0.00  0.00    +0.000 A 
ATOM      2  N   UNL     1       7.431   6.122  16.603  0.00  0.00    +0.000 NA
ATOM      3  C   UNL     1       7.402   6.189  17.953  0.00  0.00    +0.000 A 
ATOM      4  C   UNL     1       6.407   5.660  18.767  0.00  0.00    +0.000 A 
ATOM      5  C   UNL     1       5.394   4.989  18.089  0.00  0.00    +0.000 A 
ATOM      6  C   UNL     1       5.374   4.913  16.697  0.00  0.00    +0.000 A 
ATOM      7  N   UNL     1       4.266   4.208  16.260  0.00  0.00    +0.000 NA
ATOM      8  C   UNL     1       3.631   3.862  17.351  0.00  0.00    +0.000 A 
ATOM      9  N   UNL     1       4.263   4.303  18.481  0.00  0.00    +0.000 N 
ENDROOT
BRANCH   9  10
ATOM     10  C   UNL     1       3.817   4.061  19.840  0.00  0.00    +0.000 C 
ATOM     11  C   UNL     1       2.424   4.613  20.144  0.00  0.00    +0.000 C 
ATOM     12  C   UNL     1       1.954   3.819  21.356  0.00  0.00    +0.000 C 
ATOM     13  C   UNL     1       2.690   2.484  21.314  0.00  0.00    +0.000 C 
ATOM     14  C   UNL     1       3.723   2.575  20.196  0.00  0.00    +0.000 C 
ENDBRANCH   9  10
BRANCH   1  15
ATOM     15  N   UNL     1       6.365   5.495  14.536  0.00  0.00    +0.000 N 
ATOM     16  H   UNL     1       5.388   5.485  14.255  0.00  0.00    +0.000 HD
BRANCH  15  17
ATOM     17  C   UNL     1       7.188   4.483  13.899  0.00  0.00    +0.000 C 
BRANCH  17  21
ATOM     18  C   UNL     1       4.831   2.277  11.009  0.00  0.00    +0.000 A 
ATOM     19  C   UNL     1       4.239   3.258  11.802  0.00  0.00    +0.000 A 
ATOM     20  C   UNL     1       5.014   3.977  12.718  0.00  0.00    +0.000 A 
ATOM     21  C   UNL     1       6.379   3.713  12.871  0.00  0.00    +0.000 A 
ATOM     22  C   UNL     1       6.969   2.738  12.047  0.00  0.00    +0.000 A 
ATOM     23  C   UNL     1       6.192   2.024  11.118  0.00  0.00    +0.000 A 
ENDBRANCH  17  21
ENDBRANCH  15  17
ENDBRANCH   1  15
TORSDOF 4
ENDMDL
MODEL 7
REMARK VINA RESULT:      -7.5      2.834      6.407
REMARK  Name = 
REMARK  4 active torsions:
REMARK  status: ('A' for Active; 'I' for Inactive)
REMARK    1  A    between atoms: C_4  and  C_5
REMARK    2  A    between atoms: C_5  and  N_6
REMARK    3  A    between atoms: N_6  and  C_7
REMARK    4  A    between atoms: N_15  and  C_16
REMARK                            x       y       z     vdW  Elec       q    Type
REMARK                         _______ _______ _______ _____ _____    ______ ____
ROOT
ATOM      1  C   UNL     1       6.770   5.253  15.788  0.00  0.00    +0.000 A 
ATOM      2  N   UNL     1       7.258   6.431  16.263  0.00  0.00    +0.000 NA
ATOM      3  C   UNL     1       6.572   7.110  17.209  0.00  0.00    +0.000 A 
ATOM      4  C   UNL     1       5.379   6.701  17.793  0.00  0.00    +0.000 A 
ATOM      5  C   UNL     1       4.909   5.466  17.354  0.00  0.00    +0.000 A 
ATOM      6  C   UNL     1       5.574   4.742  16.366  0.00  0.00    +0.000 A 
ATOM      7  N   UNL     1       4.908   3.559  16.094  0.00  0.00    +0.000 NA
ATOM      8  C   UNL     1       3.872   3.560  16.892  0.00  0.00    +0.000 A 
ATOM      9  N   UNL     1       3.821   4.681  17.674  0.00  0.00    +0.000 N 
ENDROOT
BRANCH   9  10
ATOM     10  C   UNL     1       2.805   4.962  18.672  0.00  0.00    +0.000 C 
ATOM     11  C   UNL     1       1.610   4.010  18.625  0.00  0.00    +0.000 C 
ATOM     12  C   UNL     1       0.980   4.121  20.008  0.00  0.00    +0.000 C 
ATOM     13  C   UNL     1       2.094   4.539  20.961  0.00  0.00    +0.000 C 
ATOM     14  C   UNL     1       3.318   4.859  20.110  0.00  0.00    +0.000 C 
ENDBRANCH   9  10
BRANCH   1  15
ATOM     15  N   UNL     1       7.409   4.558  14.757  0.00  0.00    +0.000 N 
ATOM     16  H   UNL     1       8.402   4.519  14.976  0.00  0.00    +0.000 HD
BRANCH  15  17
ATOM     17  C   UNL     1       7.104   5.011  13.412  0.00  0.00    +0.000 C 
BRANCH  17  21
ATOM     18  C   UNL     1       5.732   1.675  11.010  0.00  0.00    +0.000 A 
ATOM     19  C   UNL     1       4.817   2.535  11.614  0.00  0.00    +0.000 A 
ATOM     20  C   UNL     1       5.272   3.619  12.370  0.00  0.00    +0.000 A 
ATOM     21  C   UNL     1       6.639   3.848  12.554  0.00  0.00    +0.000 A 
ATOM     22  C   UNL     1       7.553   2.987  11.919  0.00  0.00    +0.000 A 
ATOM     23  C   UNL     1       7.094   1.905  11.148  0.00  0.00    +0.000 A 
ENDBRANCH  17  21
ENDBRANCH  15  17
ENDBRANCH   1  15
TORSDOF 4
ENDMDL
MODEL 8
REMARK VINA RESULT:      -7.4      2.910      6.228
REMARK  Name = 
REMARK  4 active torsions:
REMARK  status: ('A' for Active; 'I' for Inactive)
REMARK    1  A    between atoms: C_4  and  C_5
REMARK    2  A    between atoms: C_5  and  N_6
REMARK    3  A    between atoms: N_6  and  C_7
REMARK    4  A    between atoms: N_15  and  C_16
REMARK                            x       y       z     vdW  Elec       q    Type
REMARK                         _______ _______ _______ _____ _____    ______ ____
ROOT
ATOM      1  C   UNL     1       6.644   5.285  15.958  0.00  0.00    +0.000 A 
ATOM      2  N   UNL     1       6.952   6.559  16.325  0.00  0.00    +0.000 NA
ATOM      3  C   UNL     1       6.148   7.224  17.184  0.00  0.00    +0.000 A 
ATOM      4  C   UNL     1       5.001   6.712  17.779  0.00  0.00    +0.000 A 
ATOM      5  C   UNL     1       4.717   5.388  17.454  0.00  0.00    +0.000 A 
ATOM      6  C   UNL     1       5.508   4.672  16.558  0.00  0.00    +0.000 A 
ATOM      7  N   UNL     1       5.018   3.388  16.389  0.00  0.00    +0.000 NA
ATOM      8  C   UNL     1       3.963   3.323  17.161  0.00  0.00    +0.000 A 
ATOM      9  N   UNL     1       3.734   4.496  17.826  0.00  0.00    +0.000 N 
ENDROOT
BRANCH   9  10
ATOM     10  C   UNL     1       2.655   4.728  18.768  0.00  0.00    +0.000 C 
ATOM     11  C   UNL     1       1.516   3.713  18.670  0.00  0.00    +0.000 C 
ATOM     12  C   UNL     1       0.811   3.798  20.018  0.00  0.00    +0.000 C 
ATOM     13  C   UNL     1       1.851   4.282  21.023  0.00  0.00    +0.000 C 
ATOM     14  C   UNL     1       3.098   4.662  20.232  0.00  0.00    +0.000 C 
ENDBRANCH   9  10
BRANCH   1  15
ATOM     15  N   UNL     1       7.407   4.589  15.016  0.00  0.00    +0.000 N 
ATOM     16  H   UNL     1       8.361   4.536  15.365  0.00  0.00    +0.000 HD
BRANCH  15  17
ATOM     17  C   UNL     1       7.289   5.056  13.646  0.00  0.00    +0.000 C 
BRANCH  17  21
ATOM     18  C   UNL     1       5.331   2.098  11.158  0.00  0.00    +0.000 A 
ATOM     19  C   UNL     1       6.720   2.122  11.266  0.00  0.00    +0.000 A 
ATOM     20  C   UNL     1       7.339   3.069  12.088  0.00  0.00    +0.000 A 
ATOM     21  C   UNL     1       6.588   4.016  12.791  0.00  0.00    +0.000 A 
ATOM     22  C   UNL     1       5.186   3.965  12.693  0.00  0.00    +0.000 A 
ATOM     23  C   UNL     1       4.563   3.005  11.876  0.00  0.00    +0.000 A 
ENDBRANCH  17  21
ENDBRANCH  15  17
ENDBRANCH   1  15
TORSDOF 4
ENDMDL
MODEL 9
REMARK VINA RESULT:      -7.4      1.035      1.073
REMARK  Name = 
REMARK  4 active torsions:
REMARK  status: ('A' for Active; 'I' for Inactive)
REMARK    1  A    between atoms: C_4  and  C_5
REMARK    2  A    between atoms: C_5  and  N_6
REMARK    3  A    between atoms: N_6  and  C_7
REMARK    4  A    between atoms: N_15  and  C_16
REMARK                            x       y       z     vdW  Elec       q    Type
REMARK                         _______ _______ _______ _____ _____    ______ ____
ROOT
ATOM      1  C   UNL     1       7.282   6.524  17.378  0.00  0.00    +0.000 A 
ATOM      2  N   UNL     1       7.602   6.166  16.104  0.00  0.00    +0.000 NA
ATOM      3  C   UNL     1       6.936   5.154  15.503  0.00  0.00    +0.000 A 
ATOM      4  C   UNL     1       5.896   4.424  16.066  0.00  0.00    +0.000 A 
ATOM      5  C   UNL     1       5.526   4.828  17.346  0.00  0.00    +0.000 A 
ATOM      6  C   UNL     1       6.198   5.853  18.010  0.00  0.00    +0.000 A 
ATOM      7  N   UNL     1       5.655   6.062  19.266  0.00  0.00    +0.000 NA
ATOM      8  C   UNL     1       4.681   5.193  19.364  0.00  0.00    +0.000 A 
ATOM      9  N   UNL     1       4.556   4.425  18.240  0.00  0.00    +0.000 N 
ENDROOT
BRANCH   9  10
ATOM     10  C   UNL     1       3.558   3.391  18.037  0.00  0.00    +0.000 C 
ATOM     11  C   UNL     1       3.500   2.357  19.162  0.00  0.00    +0.000 C 
ATOM     12  C   UNL     1       2.114   1.735  19.037  0.00  0.00    +0.000 C 
ATOM     13  C   UNL     1       1.225   2.783  18.376  0.00  0.00    +0.000 C 
ATOM     14  C   UNL     1       2.129   3.932  17.943  0.00  0.00    +0.000 C 
ENDBRANCH   9  10
BRANCH   1  15
ATOM     15  N   UNL     1       7.996   7.514  18.061  0.00  0.00    +0.000 N 
ATOM     16  H   UNL     1       7.854   7.369  19.058  0.00  0.00    +0.000 HD
BRANCH  15  17
ATOM     17  C   UNL     1       7.768   8.875  17.610  0.00  0.00    +0.000 C 
BRANCH  17  21
ATOM     18  C   UNL     1      10.507  11.597  19.575  0.00  0.00    +0.000 A 
ATOM     19  C   UNL     1       9.826  10.629  20.308  0.00  0.00    +0.000 A 
ATOM     20  C   UNL     1       8.959   9.743  19.660  0.00  0.00    +0.000 A 
ATOM     21  C   UNL     1       8.743   9.825  18.281  0.00  0.00    +0.000 A 
ATOM     22  C   UNL     1       9.456  10.791  17.548  0.00  0.00    +0.000 A 
ATOM     23  C   UNL     1      10.336  11.673  18.199  0.00  0.00    +0.000 A 
ENDBRANCH  17  21
ENDBRANCH  15  17
ENDBRANCH   1  15
TORSDOF 4
ENDMDL
