MODEL 1
REMARK VINA RESULT:      -8.2      0.000      0.000
REMARK  Name = 
REMARK  3 active torsions:
REMARK  status: ('A' for Active; 'I' for Inactive)
REMARK    1  A    between atoms: C_4  and  C_5
REMARK    2  A    between atoms: C_5  and  C_6
REMARK    3  A    between atoms: C_9  and  C_10
REMARK                            x       y       z     vdW  Elec       q    Type
REMARK                         _______ _______ _______ _____ _____    ______ ____
ROOT
ATOM      1  C   UNL     1       6.119   4.896  18.060  0.00  0.00    +0.000 A 
ATOM      2  N   UNL     1       7.391   4.487  18.167  0.00  0.00    +0.000 NA
ATOM      3  O   UNL     1       7.813   4.397  16.834  0.00  0.00    +0.000 OA
ATOM      4  C   UNL     1       6.740   4.743  16.060  0.00  0.00    +0.000 A 
ATOM      5  N   UNL     1       5.673   5.061  16.768  0.00  0.00    +0.000 NA
ENDROOT
BRANCH   4   6
ATOM      6  C   UNL     1       6.911   4.670  14.612  0.00  0.00    +0.000 A 
ATOM      7  C   UNL     1       6.170   3.759  13.862  0.00  0.00    +0.000 A 
ATOM      8  C   UNL     1       6.386   3.684  12.489  0.00  0.00    +0.000 A 
ATOM      9  C   UNL     1       7.331   4.517  11.904  0.00  0.00    +0.000 A 
ATOM     10  C   UNL     1       8.023   5.397  12.719  0.00  0.00    +0.000 A 
ATOM     11  N   UNL     1       7.835   5.493  14.054  0.00  0.00    +0.000 NA
ENDBRANCH   4   6
BRANCH   1  12
ATOM     12  C   UNL     1       5.212   5.004  19.230  0.00  0.00    +0.000 C 
BRANCH  12  16
ATOM     13  C   UNL     1       1.727   2.634  18.293  0.00  0.00    +0.000 A 
ATOM     14  C   UNL     1       1.637   4.024  18.325  0.00  0.00    +0.000 A 
ATOM     15  C   UNL     1       2.759   4.792  18.644  0.00  0.00    +0.000 A 
ATOM     16  C   UNL     1       3.986   4.175  18.932  0.00  0.00    +0.000 A 
ATOM     17  C   UNL     1       4.061   2.774  18.908  0.00  0.00    +0.000 A 
ATOM     18  C   UNL     1       2.938   2.009  18.588  0.00  0.00    +0.000 A 
ENDBRANCH  12  16
ENDBRANCH   1  12
TORSDOF 3
ENDMDL
MODEL 2
REMARK VINA RESULT:      -8.1      0.229      1.156
REMARK  Name = 
REMARK  3 active torsions:
REMARK  status: ('A' for Active; 'I' for Inactive)
REMARK    1  A    between atoms: C_4  and  C_5
REMARK    2  A    between atoms: C_5  and  C_6
REMARK    3  A    between atoms: C_9  and  C_10
REMARK                            x       y       z     vdW  Elec       q    Type
REMARK                         _______ _______ _______ _____ _____    ______ ____
ROOT
ATOM      1  C   UNL     1       5.855   5.037  18.004  0.00  0.00    +0.000 A 
ATOM      2  N   UNL     1       7.120   4.626  18.178  0.00  0.00    +0.000 NA
ATOM      3  O   UNL     1       7.598   4.496  16.869  0.00  0.00    +0.000 OA
ATOM      4  C   UNL     1       6.562   4.822  16.039  0.00  0.00    +0.000 A 
ATOM      5  N   UNL     1       5.466   5.165  16.690  0.00  0.00    +0.000 NA
ENDROOT
BRANCH   4   6
ATOM      6  C   UNL     1       6.795   4.706  14.602  0.00  0.00    +0.000 A 
ATOM      7  C   UNL     1       6.063   3.795  13.843  0.00  0.00    +0.000 A 
ATOM      8  C   UNL     1       6.337   3.678  12.483  0.00  0.00    +0.000 A 
ATOM      9  C   UNL     1       7.331   4.469  11.920  0.00  0.00    +0.000 A 
ATOM     10  C   UNL     1       8.009   5.353  12.743  0.00  0.00    +0.000 A 
ATOM     11  N   UNL     1       7.765   5.489  14.065  0.00  0.00    +0.000 NA
ENDBRANCH   4   6
BRANCH   1  12
ATOM     12  C   UNL     1       4.898   5.182  19.130  0.00  0.00    +0.000 C 
BRANCH  12  16
ATOM     13  C   UNL     1       1.591   2.484  18.487  0.00  0.00    +0.000 A 
ATOM     14  C   UNL     1       2.844   1.981  18.833  0.00  0.00    +0.000 A 
ATOM     15  C   UNL     1       3.918   2.851  19.025  0.00  0.00    +0.000 A 
ATOM     16  C   UNL     1       3.750   4.237  18.876  0.00  0.00    +0.000 A 
ATOM     17  C   UNL     1       2.487   4.729  18.516  0.00  0.00    +0.000 A 
ATOM     18  C   UNL     1       1.413   3.857  18.325  0.00  0.00    +0.000 A 
ENDBRANCH  12  16
ENDBRANCH   1  12
TORSDOF 3
ENDMDL
MODEL 3
REMARK VINA RESULT:      -7.6      1.323      1.548
REMARK  Name = 
REMARK  3 active torsions:
REMARK  status: ('A' for Active; 'I' for Inactive)
REMARK    1  A    between atoms: C_4  and  C_5
REMARK    2  A    between atoms: C_5  and  C_6
REMARK    3  A    between atoms: C_9  and  C_10
REMARK                            x       y       z     vdW  Elec       q    Type
REMARK                         _______ _______ _______ _____ _____    ______ ____
ROOT
ATOM      1  C   UNL     1       4.717   5.599  17.668  0.00  0.00    +0.000 A 
ATOM      2  N   UNL     1       5.530   4.627  18.106  0.00  0.00    +0.000 NA
ATOM      3  O   UNL     1       6.223   4.243  16.952  0.00  0.00    +0.000 OA
ATOM      4  C   UNL     1       5.737   5.011  15.930  0.00  0.00    +0.000 A 
ATOM      5  N   UNL     1       4.809   5.863  16.320  0.00  0.00    +0.000 NA
ENDROOT
BRANCH   4   6
ATOM      6  C   UNL     1       6.266   4.755  14.593  0.00  0.00    +0.000 A 
ATOM      7  C   UNL     1       5.632   3.845  13.749  0.00  0.00    +0.000 A 
ATOM      8  C   UNL     1       6.184   3.592  12.496  0.00  0.00    +0.000 A 
ATOM      9  C   UNL     1       7.349   4.250  12.122  0.00  0.00    +0.000 A 
ATOM     10  C   UNL     1       7.914   5.142  13.017  0.00  0.00    +0.000 A 
ATOM     11  N   UNL     1       7.402   5.409  14.239  0.00  0.00    +0.000 NA
ENDBRANCH   4   6
BRANCH   1  12
ATOM     12  C   UNL     1       3.681   6.225  18.528  0.00  0.00    +0.000 C 
BRANCH  12  16
ATOM     13  C   UNL     1       0.891   3.168  19.753  0.00  0.00    +0.000 A 
ATOM     14  C   UNL     1       1.513   3.967  20.710  0.00  0.00    +0.000 A 
ATOM     15  C   UNL     1       2.428   4.945  20.317  0.00  0.00    +0.000 A 
ATOM     16  C   UNL     1       2.729   5.136  18.959  0.00  0.00    +0.000 A 
ATOM     17  C   UNL     1       2.104   4.317  18.006  0.00  0.00    +0.000 A 
ATOM     18  C   UNL     1       1.188   3.340  18.402  0.00  0.00    +0.000 A 
ENDBRANCH  12  16
ENDBRANCH   1  12
TORSDOF 3
ENDMDL
MODEL 4
REMARK VINA RESULT:      -7.4      0.695      1.610
REMARK  Name = 
REMARK  3 active torsions:
REMARK  status: ('A' for Active; 'I' for Inactive)
REMARK    1  A    between atoms: C_4  and  C_5
REMARK    2  A    between atoms: C_5  and  C_6
REMARK    3  A    between atoms: C_9  and  C_10
REMARK                            x       y       z     vdW  Elec       q    Type
REMARK                         _______ _______ _______ _____ _____    ______ ____
ROOT
ATOM      1  C   UNL     1       6.073   4.865  17.976  0.00  0.00    +0.000 A 
ATOM      2  N   UNL     1       7.367   4.535  18.092  0.00  0.00    +0.000 NA
ATOM      3  O   UNL     1       7.786   4.406  16.762  0.00  0.00    +0.000 OA
ATOM      4  C   UNL     1       6.691   4.652  15.980  0.00  0.00    +0.000 A 
ATOM      5  N   UNL     1       5.611   4.942  16.681  0.00  0.00    +0.000 NA
ENDROOT
BRANCH   4   6
ATOM      6  C   UNL     1       6.858   4.521  14.536  0.00  0.00    +0.000 A 
ATOM      7  C   UNL     1       7.727   5.366  13.850  0.00  0.00    +0.000 A 
ATOM      8  C   UNL     1       7.834   5.243  12.467  0.00  0.00    +0.000 A 
ATOM      9  C   UNL     1       7.072   4.285  11.810  0.00  0.00    +0.000 A 
ATOM     10  C   UNL     1       6.234   3.482  12.566  0.00  0.00    +0.000 A 
ATOM     11  N   UNL     1       6.111   3.577  13.908  0.00  0.00    +0.000 NA
ENDBRANCH   4   6
BRANCH   1  12
ATOM     12  C   UNL     1       5.167   4.975  19.147  0.00  0.00    +0.000 C 
BRANCH  12  16
ATOM     13  C   UNL     1       1.622   2.636  18.377  0.00  0.00    +0.000 A 
ATOM     14  C   UNL     1       2.821   2.001  18.694  0.00  0.00    +0.000 A 
ATOM     15  C   UNL     1       3.973   2.755  18.927  0.00  0.00    +0.000 A 
ATOM     16  C   UNL     1       3.936   4.156  18.848  0.00  0.00    +0.000 A 
ATOM     17  C   UNL     1       2.725   4.783  18.517  0.00  0.00    +0.000 A 
ATOM     18  C   UNL     1       1.575   4.026  18.285  0.00  0.00    +0.000 A 
ENDBRANCH  12  16
ENDBRANCH   1  12
TORSDOF 3
ENDMDL
MODEL 5
REMARK VINA RESULT:      -7.4      1.301      1.752
REMARK  Name = 
REMARK  3 active torsions:
REMARK  status: ('A' for Active; 'I' for Inactive)
REMARK    1  A    between atoms: C_4  and  C_5
REMARK    2  A    between atoms: C_5  and  C_6
REMARK    3  A    between atoms: C_9  and  C_10
REMARK                            x       y       z     vdW  Elec       q    Type
REMARK                         _______ _______ _______ _____ _____    ______ ____
ROOT
ATOM      1  C   UNL     1       5.128   4.959  17.871  0.00  0.00    +0.000 A 
ATOM      2  N   UNL     1       4.907   6.227  17.493  0.00  0.00    +0.000 NA
ATOM      3  O   UNL     1       5.302   6.234  16.150  0.00  0.00    +0.000 OA
ATOM      4  C   UNL     1       5.741   4.972  15.863  0.00  0.00    +0.000 A 
ATOM      5  N   UNL     1       5.653   4.149  16.890  0.00  0.00    +0.000 NA
ENDROOT
BRANCH   4   6
ATOM      6  C   UNL     1       6.268   4.737  14.522  0.00  0.00    +0.000 A 
ATOM      7  C   UNL     1       5.651   3.818  13.676  0.00  0.00    +0.000 A 
ATOM      8  C   UNL     1       6.201   3.585  12.418  0.00  0.00    +0.000 A 
ATOM      9  C   UNL     1       7.349   4.272  12.042  0.00  0.00    +0.000 A 
ATOM     10  C   UNL     1       7.899   5.170  12.940  0.00  0.00    +0.000 A 
ATOM     11  N   UNL     1       7.387   5.418  14.166  0.00  0.00    +0.000 NA
ENDBRANCH   4   6
BRANCH   1  12
ATOM     12  C   UNL     1       4.978   4.506  19.277  0.00  0.00    +0.000 C 
BRANCH  12  16
ATOM     13  C   UNL     1       0.882   3.297  19.907  0.00  0.00    +0.000 A 
ATOM     14  C   UNL     1       1.717   2.533  19.095  0.00  0.00    +0.000 A 
ATOM     15  C   UNL     1       3.037   2.931  18.876  0.00  0.00    +0.000 A 
ATOM     16  C   UNL     1       3.538   4.099  19.472  0.00  0.00    +0.000 A 
ATOM     17  C   UNL     1       2.683   4.866  20.279  0.00  0.00    +0.000 A 
ATOM     18  C   UNL     1       1.364   4.465  20.496  0.00  0.00    +0.000 A 
ENDBRANCH  12  16
ENDBRANCH   1  12
TORSDOF 3
ENDMDL
MODEL 6
REMARK VINA RESULT:      -7.3      1.432      1.704
REMARK  Name = 
REMARK  3 active torsions:
REMARK  status: ('A' for Active; 'I' for Inactive)
REMARK    1  A    between atoms: C_4  and  C_5
REMARK    2  A    between atoms: C_5  and  C_6
REMARK    3  A    between atoms: C_9  and  C_10
REMARK                            x       y       z     vdW  Elec       q    Type
REMARK                         _______ _______ _______ _____ _____    ______ ____
ROOT
ATOM      1  C   UNL     1       4.545   5.940  17.883  0.00  0.00    +0.000 A 
ATOM      2  N   UNL     1       5.581   5.268  18.405  0.00  0.00    +0.000 NA
ATOM      3  O   UNL     1       6.294   4.848  17.275  0.00  0.00    +0.000 OA
ATOM      4  C   UNL     1       5.599   5.294  16.185  0.00  0.00    +0.000 A 
ATOM      5  N   UNL     1       4.515   5.974  16.507  0.00  0.00    +0.000 NA
ENDROOT
BRANCH   4   6
ATOM      6  C   UNL     1       6.114   4.929  14.869  0.00  0.00    +0.000 A 
ATOM      7  C   UNL     1       5.397   4.059  14.051  0.00  0.00    +0.000 A 
ATOM      8  C   UNL     1       5.935   3.697  12.819  0.00  0.00    +0.000 A 
ATOM      9  C   UNL     1       7.169   4.210  12.439  0.00  0.00    +0.000 A 
ATOM     10  C   UNL     1       7.816   5.071  13.309  0.00  0.00    +0.000 A 
ATOM     11  N   UNL     1       7.319   5.442  14.510  0.00  0.00    +0.000 NA
ENDBRANCH   4   6
BRANCH   1  12
ATOM     12  C   UNL     1       3.430   6.463  18.712  0.00  0.00    +0.000 C 
BRANCH  12  16
ATOM     13  C   UNL     1       0.999   3.064  19.795  0.00  0.00    +0.000 A 
ATOM     14  C   UNL     1       1.307   3.303  18.458  0.00  0.00    +0.000 A 
ATOM     15  C   UNL     1       2.079   4.411  18.104  0.00  0.00    +0.000 A 
ATOM     16  C   UNL     1       2.555   5.292  19.088  0.00  0.00    +0.000 A 
ATOM     17  C   UNL     1       2.229   5.046  20.430  0.00  0.00    +0.000 A 
ATOM     18  C   UNL     1       1.457   3.937  20.781  0.00  0.00    +0.000 A 
ENDBRANCH  12  16
ENDBRANCH   1  12
TORSDOF 3
ENDMDL
MODEL 7
REMARK VINA RESULT:      -7.3      0.716      1.151
REMARK  Name = 
REMARK  3 active torsions:
REMARK  status: ('A' for Active; 'I' for Inactive)
REMARK    1  A    between atoms: C_4  and  C_5
REMARK    2  A    between atoms: C_5  and  C_6
REMARK    3  A    between atoms: C_9  and  C_10
REMARK                            x       y       z     vdW  Elec       q    Type
REMARK                         _______ _______ _______ _____ _____    ______ ____
ROOT
ATOM      1  C   UNL     1       5.975   4.956  17.990  0.00  0.00    +0.000 A 
ATOM      2  N   UNL     1       7.269   4.636  18.126  0.00  0.00    +0.000 NA
ATOM      3  O   UNL     1       7.703   4.480  16.804  0.00  0.00    +0.000 OA
ATOM      4  C   UNL     1       6.614   4.703  16.006  0.00  0.00    +0.000 A 
ATOM      5  N   UNL     1       5.526   5.001  16.690  0.00  0.00    +0.000 NA
ENDROOT
BRANCH   4   6
ATOM      6  C   UNL     1       6.797   4.541  14.567  0.00  0.00    +0.000 A 
ATOM      7  C   UNL     1       7.725   5.325  13.884  0.00  0.00    +0.000 A 
ATOM      8  C   UNL     1       7.846   5.175  12.505  0.00  0.00    +0.000 A 
ATOM      9  C   UNL     1       7.042   4.252  11.848  0.00  0.00    +0.000 A 
ATOM     10  C   UNL     1       6.147   3.510  12.601  0.00  0.00    +0.000 A 
ATOM     11  N   UNL     1       6.007   3.632  13.940  0.00  0.00    +0.000 NA
ENDBRANCH   4   6
BRANCH   1  12
ATOM     12  C   UNL     1       5.056   5.087  19.149  0.00  0.00    +0.000 C 
BRANCH  12  16
ATOM     13  C   UNL     1       1.783   2.367  18.425  0.00  0.00    +0.000 A 
ATOM     14  C   UNL     1       1.584   3.741  18.317  0.00  0.00    +0.000 A 
ATOM     15  C   UNL     1       2.637   4.623  18.566  0.00  0.00    +0.000 A 
ATOM     16  C   UNL     1       3.904   4.138  18.926  0.00  0.00    +0.000 A 
ATOM     17  C   UNL     1       4.089   2.752  19.042  0.00  0.00    +0.000 A 
ATOM     18  C   UNL     1       3.034   1.872  18.791  0.00  0.00    +0.000 A 
ENDBRANCH  12  16
ENDBRANCH   1  12
TORSDOF 3
ENDMDL
MODEL 8
REMARK VINA RESULT:      -7.3      1.362      1.549
REMARK  Name = 
REMARK  3 active torsions:
REMARK  status: ('A' for Active; 'I' for Inactive)
REMARK    1  A    between atoms: C_4  and  C_5
REMARK    2  A    between atoms: C_5  and  C_6
REMARK    3  A    between atoms: C_9  and  C_10
REMARK                            x       y       z     vdW  Elec       q    Type
REMARK                         _______ _______ _______ _____ _____    ______ ____
ROOT
ATOM      1  C   UNL     1       5.014   5.230  17.892  0.00  0.00    +0.000 A 
ATOM      2  N   UNL     1       4.692   6.438  17.407  0.00  0.00    +0.000 NA
ATOM      3  O   UNL     1       5.102   6.367  16.070  0.00  0.00    +0.000 OA
ATOM      4  C   UNL     1       5.650   5.127  15.893  0.00  0.00    +0.000 A 
ATOM      5  N   UNL     1       5.617   4.388  16.985  0.00  0.00    +0.000 NA
ENDROOT
BRANCH   4   6
ATOM      6  C   UNL     1       6.211   4.826  14.580  0.00  0.00    +0.000 A 
ATOM      7  C   UNL     1       5.613   3.870  13.762  0.00  0.00    +0.000 A 
ATOM      8  C   UNL     1       6.196   3.575  12.532  0.00  0.00    +0.000 A 
ATOM      9  C   UNL     1       7.357   4.240  12.155  0.00  0.00    +0.000 A 
ATOM     10  C   UNL     1       7.886   5.179  13.024  0.00  0.00    +0.000 A 
ATOM     11  N   UNL     1       7.343   5.487  14.222  0.00  0.00    +0.000 NA
ENDBRANCH   4   6
BRANCH   1  12
ATOM     12  C   UNL     1       4.884   4.884  19.329  0.00  0.00    +0.000 C 
BRANCH  12  16
ATOM     13  C   UNL     1       0.899   3.312  19.856  0.00  0.00    +0.000 A 
ATOM     14  C   UNL     1       1.260   4.513  20.463  0.00  0.00    +0.000 A 
ATOM     15  C   UNL     1       2.554   5.014  20.308  0.00  0.00    +0.000 A 
ATOM     16  C   UNL     1       3.501   4.320  19.539  0.00  0.00    +0.000 A 
ATOM     17  C   UNL     1       3.127   3.106  18.941  0.00  0.00    +0.000 A 
ATOM     18  C   UNL     1       1.832   2.607  19.098  0.00  0.00    +0.000 A 
ENDBRANCH  12  16
ENDBRANCH   1  12
TORSDOF 3
ENDMDL
MODEL 9
REMARK VINA RESULT:      -7.0      1.543      1.955
REMARK  Name = 
REMARK  3 active torsions:
REMARK  status: ('A' for Active; 'I' for Inactive)
REMARK    1  A    between atoms: C_4  and  C_5
REMARK    2  A    between atoms: C_5  and  C_6
REMARK    3  A    between atoms: C_9  and  C_10
REMARK                            x       y       z     vdW  Elec       q    Type
REMARK                         _______ _______ _______ _____ _____    ______ ____
ROOT
ATOM      1  C   UNL     1       4.696   5.678  17.595  0.00  0.00    +0.000 A 
ATOM      2  N   UNL     1       5.509   4.728  18.079  0.00  0.00    +0.000 NA
ATOM      3  O   UNL     1       6.203   4.291  16.944  0.00  0.00    +0.000 OA
ATOM      4  C   UNL     1       5.719   5.010  15.887  0.00  0.00    +0.000 A 
ATOM      5  N   UNL     1       4.789   5.879  16.237  0.00  0.00    +0.000 NA
ENDROOT
BRANCH   4   6
ATOM      6  C   UNL     1       6.249   4.693  14.564  0.00  0.00    +0.000 A 
ATOM      7  C   UNL     1       7.384   5.345  14.088  0.00  0.00    +0.000 A 
ATOM      8  C   UNL     1       7.841   5.051  12.806  0.00  0.00    +0.000 A 
ATOM      9  C   UNL     1       7.155   4.119  12.038  0.00  0.00    +0.000 A 
ATOM     10  C   UNL     1       6.037   3.513  12.586  0.00  0.00    +0.000 A 
ATOM     11  N   UNL     1       5.570   3.777  13.827  0.00  0.00    +0.000 NA
ENDBRANCH   4   6
BRANCH   1  12
ATOM     12  C   UNL     1       3.659   6.342  18.424  0.00  0.00    +0.000 C 
BRANCH  12  16
ATOM     13  C   UNL     1       0.889   3.338  19.817  0.00  0.00    +0.000 A 
ATOM     14  C   UNL     1       1.509   4.191  20.728  0.00  0.00    +0.000 A 
ATOM     15  C   UNL     1       2.417   5.153  20.281  0.00  0.00    +0.000 A 
ATOM     16  C   UNL     1       2.714   5.273  18.914  0.00  0.00    +0.000 A 
ATOM     17  C   UNL     1       2.092   4.400  18.009  0.00  0.00    +0.000 A 
ATOM     18  C   UNL     1       1.183   3.440  18.458  0.00  0.00    +0.000 A 
ENDBRANCH  12  16
ENDBRANCH   1  12
TORSDOF 3
ENDMDL
