MODEL 1
REMARK VINA RESULT:      -7.5      0.000      0.000
REMARK  Name = 
REMARK  7 active torsions:
REMARK  status: ('A' for Active; 'I' for Inactive)
REMARK    1  A    between atoms: C_1  and  O_2
REMARK    2  A    between atoms: O_2  and  C_3
REMARK    3  A    between atoms: C_3  and  C_5
REMARK    4  A    between atoms: C_6  and  C_7
REMARK    5  A    between atoms: N_8  and  C_9
REMARK    6  A    between atoms: C_9  and  C_10
REMARK    7  A    between atoms: C_19  and  C_20
REMARK                            x       y       z     vdW  Elec       q    Type
REMARK                         _______ _______ _______ _____ _____    ______ ____
ROOT
ATOM      1  C   UNL     1       3.666   5.043  18.203  0.00  0.00    +0.000 C 
ATOM      2  C   UNL     1       4.472   4.385  17.331  0.00  0.00    +0.000 C 
ATOM      3  C   UNL     1       4.184   3.001  16.786  0.00  0.00    +0.000 C 
ATOM      4  N   UNL     1       5.652   5.009  16.887  0.00  0.00    +0.000 N 
ATOM      5  C   UNL     1       5.923   6.350  17.117  0.00  0.00    +0.000 C 
ATOM      6  O   UNL     1       6.903   6.954  16.687  0.00  0.00    +0.000 OA
ATOM      7  N   UNL     1       5.006   7.036  17.834  0.00  0.00    +0.000 N 
ATOM      8  C   UNL     1       3.978   6.445  18.660  0.00  0.00    +0.000 C 
ATOM      9  H   UNL     1       5.245   8.006  17.983  0.00  0.00    +0.000 HD
ENDROOT
BRANCH   8  10
ATOM     10  C   UNL     1       2.836   7.451  18.706  0.00  0.00    +0.000 A 
ATOM     11  C   UNL     1       2.498   8.220  17.579  0.00  0.00    +0.000 A 
ATOM     12  C   UNL     1       1.491   9.184  17.651  0.00  0.00    +0.000 A 
ATOM     13  C   UNL     1       0.808   9.384  18.849  0.00  0.00    +0.000 A 
ATOM     14 BR   UNL     1      -0.540  10.705  18.950  0.00  0.00    +0.000 Br
ATOM     15  C   UNL     1       1.122   8.629  19.977  0.00  0.00    +0.000 A 
ATOM     16  C   UNL     1       2.133   7.666  19.907  0.00  0.00    +0.000 A 
ENDBRANCH   8  10
BRANCH   1  17
ATOM     17  C   UNL     1       2.491   4.406  18.872  0.00  0.00    +0.000 C 
ATOM     18  O   UNL     1       1.369   4.352  18.398  0.00  0.00    +0.000 OA
BRANCH  17  20
ATOM     19  C   UNL     1       1.790   4.098  21.104  0.00  0.00    +0.000 C 
ATOM     20  O   UNL     1       2.816   3.961  20.113  0.00  0.00    +0.000 OA
ENDBRANCH  17  20
ENDBRANCH   1  17
BRANCH   4  21
ATOM     21  C   UNL     1       6.709   4.258  16.192  0.00  0.00    +0.000 C 
BRANCH  21  22
ATOM     22  C   UNL     1       6.727   4.367  14.682  0.00  0.00    +0.000 A 
ATOM     23  C   UNL     1       7.647   5.174  13.999  0.00  0.00    +0.000 A 
ATOM     24  C   UNL     1       7.695   5.181  12.605  0.00  0.00    +0.000 A 
ATOM     25  C   UNL     1       6.831   4.370  11.872  0.00  0.00    +0.000 A 
ATOM     26  C   UNL     1       5.913   3.558  12.533  0.00  0.00    +0.000 A 
ATOM     27  C   UNL     1       5.864   3.553  13.928  0.00  0.00    +0.000 A 
ENDBRANCH  21  22
ENDBRANCH   4  21
TORSDOF 5
ENDMDL
MODEL 2
REMARK VINA RESULT:      -7.2      3.712      5.388
REMARK  Name = 
REMARK  7 active torsions:
REMARK  status: ('A' for Active; 'I' for Inactive)
REMARK    1  A    between atoms: C_1  and  O_2
REMARK    2  A    between atoms: O_2  and  C_3
REMARK    3  A    between atoms: C_3  and  C_5
REMARK    4  A    between atoms: C_6  and  C_7
REMARK    5  A    between atoms: N_8  and  C_9
REMARK    6  A    between atoms: C_9  and  C_10
REMARK    7  A    between atoms: C_19  and  C_20
REMARK                            x       y       z     vdW  Elec       q    Type
REMARK                         _______ _______ _______ _____ _____    ______ ____
ROOT
ATOM      1  C   UNL     1       0.849   8.655  20.187  0.00  0.00    +0.000 C 
ATOM      2  C   UNL     1       1.665   7.578  20.055  0.00  0.00    +0.000 C 
ATOM      3  C   UNL     1       1.704   6.416  21.027  0.00  0.00    +0.000 C 
ATOM      4  N   UNL     1       2.535   7.511  18.951  0.00  0.00    +0.000 N 
ATOM      5  C   UNL     1       2.444   8.378  17.871  0.00  0.00    +0.000 C 
ATOM      6  O   UNL     1       3.133   8.311  16.856  0.00  0.00    +0.000 OA
ATOM      7  N   UNL     1       1.491   9.333  17.944  0.00  0.00    +0.000 N 
ATOM      8  C   UNL     1       0.814   9.749  19.151  0.00  0.00    +0.000 C 
ATOM      9  H   UNL     1       1.464   9.945  17.141  0.00  0.00    +0.000 HD
ENDROOT
BRANCH   8  10
ATOM     10  C   UNL     1      -0.545  10.278  18.717  0.00  0.00    +0.000 A 
ATOM     11  C   UNL     1      -1.122  11.401  19.336  0.00  0.00    +0.000 A 
ATOM     12  C   UNL     1      -2.396  11.839  18.973  0.00  0.00    +0.000 A 
ATOM     13  C   UNL     1      -3.104  11.163  17.981  0.00  0.00    +0.000 A 
ATOM     14 BR   UNL     1      -4.838  11.746  17.505  0.00  0.00    +0.000 Br
ATOM     15  C   UNL     1      -2.549  10.053  17.348  0.00  0.00    +0.000 A 
ATOM     16  C   UNL     1      -1.275   9.610  17.714  0.00  0.00    +0.000 A 
ENDBRANCH   8  10
BRANCH   1  17
ATOM     17  C   UNL     1       0.022   8.911  21.405  0.00  0.00    +0.000 C 
ATOM     18  O   UNL     1      -0.926   8.229  21.755  0.00  0.00    +0.000 OA
BRANCH  17  20
ATOM     19  C   UNL     1      -0.565  10.648  22.889  0.00  0.00    +0.000 C 
ATOM     20  O   UNL     1       0.415  10.048  22.035  0.00  0.00    +0.000 OA
ENDBRANCH  17  20
ENDBRANCH   1  17
BRANCH   4  21
ATOM     21  C   UNL     1       3.643   6.544  18.898  0.00  0.00    +0.000 C 
BRANCH  21  22
ATOM     22  C   UNL     1       3.302   5.162  18.380  0.00  0.00    +0.000 A 
ATOM     23  C   UNL     1       4.203   4.091  18.453  0.00  0.00    +0.000 A 
ATOM     24  C   UNL     1       3.824   2.811  18.050  0.00  0.00    +0.000 A 
ATOM     25  C   UNL     1       2.533   2.579  17.578  0.00  0.00    +0.000 A 
ATOM     26  C   UNL     1       1.624   3.630  17.502  0.00  0.00    +0.000 A 
ATOM     27  C   UNL     1       2.004   4.912  17.904  0.00  0.00    +0.000 A 
ENDBRANCH  21  22
ENDBRANCH   4  21
TORSDOF 5
ENDMDL
MODEL 3
REMARK VINA RESULT:      -7.1      3.899      5.432
REMARK  Name = 
REMARK  7 active torsions:
REMARK  status: ('A' for Active; 'I' for Inactive)
REMARK    1  A    between atoms: C_1  and  O_2
REMARK    2  A    between atoms: O_2  and  C_3
REMARK    3  A    between atoms: C_3  and  C_5
REMARK    4  A    between atoms: C_6  and  C_7
REMARK    5  A    between atoms: N_8  and  C_9
REMARK    6  A    between atoms: C_9  and  C_10
REMARK    7  A    between atoms: C_19  and  C_20
REMARK                            x       y       z     vdW  Elec       q    Type
REMARK                         _______ _______ _______ _____ _____    ______ ____
ROOT
ATOM      1  C   UNL     1       0.813   8.645  20.188  0.00  0.00    +0.000 C 
ATOM      2  C   UNL     1       1.658   7.591  20.060  0.00  0.00    +0.000 C 
ATOM      3  C   UNL     1       1.744   6.445  21.047  0.00  0.00    +0.000 C 
ATOM      4  N   UNL     1       2.514   7.533  18.944  0.00  0.00    +0.000 N 
ATOM      5  C   UNL     1       2.383   8.380  17.854  0.00  0.00    +0.000 C 
ATOM      6  O   UNL     1       3.059   8.319  16.830  0.00  0.00    +0.000 OA
ATOM      7  N   UNL     1       1.404   9.308  17.926  0.00  0.00    +0.000 N 
ATOM      8  C   UNL     1       0.732   9.723  19.137  0.00  0.00    +0.000 C 
ATOM      9  H   UNL     1       1.347   9.907  17.115  0.00  0.00    +0.000 HD
ENDROOT
BRANCH   8  10
ATOM     10  C   UNL     1      -0.649  10.206  18.715  0.00  0.00    +0.000 A 
ATOM     11  C   UNL     1      -1.351   9.580  17.670  0.00  0.00    +0.000 A 
ATOM     12  C   UNL     1      -2.588  10.071  17.250  0.00  0.00    +0.000 A 
ATOM     13  C   UNL     1      -3.139  11.188  17.875  0.00  0.00    +0.000 A 
ATOM     14 BR   UNL     1      -4.804  11.864  17.291  0.00  0.00    +0.000 Br
ATOM     15  C   UNL     1      -2.464  11.820  18.918  0.00  0.00    +0.000 A 
ATOM     16  C   UNL     1      -1.222  11.332  19.336  0.00  0.00    +0.000 A 
ENDBRANCH   8  10
BRANCH   1  17
ATOM     17  C   UNL     1      -0.004   8.896  21.414  0.00  0.00    +0.000 C 
ATOM     18  O   UNL     1      -0.931   8.194  21.784  0.00  0.00    +0.000 OA
BRANCH  17  20
ATOM     19  C   UNL     1      -0.578  10.587  22.955  0.00  0.00    +0.000 C 
ATOM     20  O   UNL     1       0.370  10.049  22.025  0.00  0.00    +0.000 OA
ENDBRANCH  17  20
ENDBRANCH   1  17
BRANCH   4  21
ATOM     21  C   UNL     1       3.649   6.597  18.889  0.00  0.00    +0.000 C 
BRANCH  21  22
ATOM     22  C   UNL     1       3.313   5.154  18.579  0.00  0.00    +0.000 A 
ATOM     23  C   UNL     1       2.206   4.792  17.799  0.00  0.00    +0.000 A 
ATOM     24  C   UNL     1       1.978   3.459  17.457  0.00  0.00    +0.000 A 
ATOM     25  C   UNL     1       2.861   2.467  17.880  0.00  0.00    +0.000 A 
ATOM     26  C   UNL     1       3.968   2.809  18.652  0.00  0.00    +0.000 A 
ATOM     27  C   UNL     1       4.196   4.142  18.996  0.00  0.00    +0.000 A 
ENDBRANCH  21  22
ENDBRANCH   4  21
TORSDOF 5
ENDMDL
MODEL 4
REMARK VINA RESULT:      -7.0      0.488      1.283
REMARK  Name = 
REMARK  7 active torsions:
REMARK  status: ('A' for Active; 'I' for Inactive)
REMARK    1  A    between atoms: C_1  and  O_2
REMARK    2  A    between atoms: O_2  and  C_3
REMARK    3  A    between atoms: C_3  and  C_5
REMARK    4  A    between atoms: C_6  and  C_7
REMARK    5  A    between atoms: N_8  and  C_9
REMARK    6  A    between atoms: C_9  and  C_10
REMARK    7  A    between atoms: C_19  and  C_20
REMARK                            x       y       z     vdW  Elec       q    Type
REMARK                         _______ _______ _______ _____ _____    ______ ____
ROOT
ATOM      1  C   UNL     1       3.643   5.137  18.412  0.00  0.00    +0.000 C 
ATOM      2  C   UNL     1       4.410   4.423  17.549  0.00  0.00    +0.000 C 
ATOM      3  C   UNL     1       4.109   3.001  17.121  0.00  0.00    +0.000 C 
ATOM      4  N   UNL     1       5.558   5.022  16.998  0.00  0.00    +0.000 N 
ATOM      5  C   UNL     1       5.826   6.378  17.115  0.00  0.00    +0.000 C 
ATOM      6  O   UNL     1       6.776   6.955  16.591  0.00  0.00    +0.000 OA
ATOM      7  N   UNL     1       4.941   7.107  17.828  0.00  0.00    +0.000 N 
ATOM      8  C   UNL     1       3.964   6.571  18.749  0.00  0.00    +0.000 C 
ATOM      9  H   UNL     1       5.177   8.087  17.893  0.00  0.00    +0.000 HD
ENDROOT
BRANCH   8  10
ATOM     10  C   UNL     1       2.816   7.570  18.782  0.00  0.00    +0.000 A 
ATOM     11  C   UNL     1       2.080   7.795  19.959  0.00  0.00    +0.000 A 
ATOM     12  C   UNL     1       0.990   8.667  19.961  0.00  0.00    +0.000 A 
ATOM     13  C   UNL     1       0.629   9.328  18.789  0.00  0.00    +0.000 A 
ATOM     14 BR   UNL     1      -0.861  10.491  18.790  0.00  0.00    +0.000 Br
ATOM     15  C   UNL     1       1.348   9.126  17.613  0.00  0.00    +0.000 A 
ATOM     16  C   UNL     1       2.438   8.250  17.608  0.00  0.00    +0.000 A 
ENDBRANCH   8  10
BRANCH   1  17
ATOM     17  C   UNL     1       2.513   4.543  19.187  0.00  0.00    +0.000 C 
ATOM     18  O   UNL     1       2.544   4.300  20.382  0.00  0.00    +0.000 OA
BRANCH  17  20
ATOM     19  C   UNL     1       0.811   2.996  18.661  0.00  0.00    +0.000 C 
ATOM     20  O   UNL     1       1.469   4.237  18.375  0.00  0.00    +0.000 OA
ENDBRANCH  17  20
ENDBRANCH   1  17
BRANCH   4  21
ATOM     21  C   UNL     1       6.585   4.229  16.304  0.00  0.00    +0.000 C 
BRANCH  21  22
ATOM     22  C   UNL     1       6.595   4.319  14.792  0.00  0.00    +0.000 A 
ATOM     23  C   UNL     1       7.570   5.042  14.091  0.00  0.00    +0.000 A 
ATOM     24  C   UNL     1       7.602   5.029  12.696  0.00  0.00    +0.000 A 
ATOM     25  C   UNL     1       6.666   4.284  11.981  0.00  0.00    +0.000 A 
ATOM     26  C   UNL     1       5.693   3.558  12.662  0.00  0.00    +0.000 A 
ATOM     27  C   UNL     1       5.659   3.571  14.057  0.00  0.00    +0.000 A 
ENDBRANCH  21  22
ENDBRANCH   4  21
TORSDOF 5
ENDMDL
MODEL 5
REMARK VINA RESULT:      -6.8      0.281      1.364
REMARK  Name = 
REMARK  7 active torsions:
REMARK  status: ('A' for Active; 'I' for Inactive)
REMARK    1  A    between atoms: C_1  and  O_2
REMARK    2  A    between atoms: O_2  and  C_3
REMARK    3  A    between atoms: C_3  and  C_5
REMARK    4  A    between atoms: C_6  and  C_7
REMARK    5  A    between atoms: N_8  and  C_9
REMARK    6  A    between atoms: C_9  and  C_10
REMARK    7  A    between atoms: C_19  and  C_20
REMARK                            x       y       z     vdW  Elec       q    Type
REMARK                         _______ _______ _______ _____ _____    ______ ____
ROOT
ATOM      1  C   UNL     1       3.598   5.041  18.400  0.00  0.00    +0.000 C 
ATOM      2  C   UNL     1       4.360   4.323  17.536  0.00  0.00    +0.000 C 
ATOM      3  C   UNL     1       4.025   2.920  17.072  0.00  0.00    +0.000 C 
ATOM      4  N   UNL     1       5.536   4.897  17.022  0.00  0.00    +0.000 N 
ATOM      5  C   UNL     1       5.843   6.242  17.174  0.00  0.00    +0.000 C 
ATOM      6  O   UNL     1       6.820   6.801  16.681  0.00  0.00    +0.000 OA
ATOM      7  N   UNL     1       4.965   6.983  17.885  0.00  0.00    +0.000 N 
ATOM      8  C   UNL     1       3.954   6.457  18.774  0.00  0.00    +0.000 C 
ATOM      9  H   UNL     1       5.229   7.954  17.976  0.00  0.00    +0.000 HD
ENDROOT
BRANCH   8  10
ATOM     10  C   UNL     1       2.836   7.490  18.806  0.00  0.00    +0.000 A 
ATOM     11  C   UNL     1       2.089   7.718  19.975  0.00  0.00    +0.000 A 
ATOM     12  C   UNL     1       1.025   8.622  19.975  0.00  0.00    +0.000 A 
ATOM     13  C   UNL     1       0.703   9.313  18.808  0.00  0.00    +0.000 A 
ATOM     14 BR   UNL     1      -0.751  10.521  18.805  0.00  0.00    +0.000 Br
ATOM     15  C   UNL     1       1.434   9.108  17.640  0.00  0.00    +0.000 A 
ATOM     16  C   UNL     1       2.497   8.199  17.637  0.00  0.00    +0.000 A 
ENDBRANCH   8  10
BRANCH   1  17
ATOM     17  C   UNL     1       2.434   4.466  19.139  0.00  0.00    +0.000 C 
ATOM     18  O   UNL     1       1.318   4.317  18.668  0.00  0.00    +0.000 OA
BRANCH  17  20
ATOM     19  C   UNL     1       1.737   3.546  21.197  0.00  0.00    +0.000 C 
ATOM     20  O   UNL     1       2.757   4.198  20.430  0.00  0.00    +0.000 OA
ENDBRANCH  17  20
ENDBRANCH   1  17
BRANCH   4  21
ATOM     21  C   UNL     1       6.554   4.088  16.332  0.00  0.00    +0.000 C 
BRANCH  21  22
ATOM     22  C   UNL     1       6.538   4.141  14.818  0.00  0.00    +0.000 A 
ATOM     23  C   UNL     1       5.506   3.573  14.059  0.00  0.00    +0.000 A 
ATOM     24  C   UNL     1       5.478   3.719  12.671  0.00  0.00    +0.000 A 
ATOM     25  C   UNL     1       6.475   4.445  12.023  0.00  0.00    +0.000 A 
ATOM     26  C   UNL     1       7.506   5.019  12.762  0.00  0.00    +0.000 A 
ATOM     27  C   UNL     1       7.536   4.872  14.150  0.00  0.00    +0.000 A 
ENDBRANCH  21  22
ENDBRANCH   4  21
TORSDOF 5
ENDMDL
MODEL 6
REMARK VINA RESULT:      -6.5      5.910     11.090
REMARK  Name = 
REMARK  7 active torsions:
REMARK  status: ('A' for Active; 'I' for Inactive)
REMARK    1  A    between atoms: C_1  and  O_2
REMARK    2  A    between atoms: O_2  and  C_3
REMARK    3  A    between atoms: C_3  and  C_5
REMARK    4  A    between atoms: C_6  and  C_7
REMARK    5  A    between atoms: N_8  and  C_9
REMARK    6  A    between atoms: C_9  and  C_10
REMARK    7  A    between atoms: C_19  and  C_20
REMARK                            x       y       z     vdW  Elec       q    Type
REMARK                         _______ _______ _______ _____ _____    ______ ____
ROOT
ATOM      1  C   UNL     1      -1.346  11.453  19.055  0.00  0.00    +0.000 C 
ATOM      2  C   UNL     1      -2.125  12.245  19.834  0.00  0.00    +0.000 C 
ATOM      3  C   UNL     1      -3.637  12.291  19.755  0.00  0.00    +0.000 C 
ATOM      4  N   UNL     1      -1.514  13.081  20.787  0.00  0.00    +0.000 N 
ATOM      5  C   UNL     1      -0.173  12.975  21.127  0.00  0.00    +0.000 C 
ATOM      6  O   UNL     1       0.385  13.632  22.003  0.00  0.00    +0.000 OA
ATOM      7  N   UNL     1       0.544  12.041  20.465  0.00  0.00    +0.000 N 
ATOM      8  C   UNL     1       0.151  11.408  19.226  0.00  0.00    +0.000 C 
ATOM      9  H   UNL     1       1.516  12.002  20.739  0.00  0.00    +0.000 HD
ENDROOT
BRANCH   8  10
ATOM     10  C   UNL     1       0.831  10.046  19.210  0.00  0.00    +0.000 A 
ATOM     11  C   UNL     1       0.899   9.251  20.368  0.00  0.00    +0.000 A 
ATOM     12  C   UNL     1       1.579   8.033  20.356  0.00  0.00    +0.000 A 
ATOM     13  C   UNL     1       2.193   7.593  19.186  0.00  0.00    +0.000 A 
ATOM     14 BR   UNL     1       3.132   5.952  19.179  0.00  0.00    +0.000 Br
ATOM     15  C   UNL     1       2.133   8.360  18.024  0.00  0.00    +0.000 A 
ATOM     16  C   UNL     1       1.455   9.583  18.035  0.00  0.00    +0.000 A 
ENDBRANCH   8  10
BRANCH   1  17
ATOM     17  C   UNL     1      -1.874  10.667  17.899  0.00  0.00    +0.000 C 
ATOM     18  O   UNL     1      -2.197   9.492  17.951  0.00  0.00    +0.000 OA
BRANCH  17  20
ATOM     19  C   UNL     1      -2.815  10.996  15.761  0.00  0.00    +0.000 C 
ATOM     20  O   UNL     1      -1.876  11.408  16.762  0.00  0.00    +0.000 OA
ENDBRANCH  17  20
ENDBRANCH   1  17
BRANCH   4  21
ATOM     21  C   UNL     1      -2.252  14.169  21.447  0.00  0.00    +0.000 C 
BRANCH  21  22
ATOM     22  C   UNL     1      -3.246  13.755  22.512  0.00  0.00    +0.000 A 
ATOM     23  C   UNL     1      -4.521  14.330  22.612  0.00  0.00    +0.000 A 
ATOM     24  C   UNL     1      -5.444  13.861  23.547  0.00  0.00    +0.000 A 
ATOM     25  C   UNL     1      -5.111  12.802  24.389  0.00  0.00    +0.000 A 
ATOM     26  C   UNL     1      -3.851  12.217  24.301  0.00  0.00    +0.000 A 
ATOM     27  C   UNL     1      -2.926  12.686  23.367  0.00  0.00    +0.000 A 
ENDBRANCH  21  22
ENDBRANCH   4  21
TORSDOF 5
ENDMDL
MODEL 7
REMARK VINA RESULT:      -6.4      6.052     11.249
REMARK  Name = 
REMARK  7 active torsions:
REMARK  status: ('A' for Active; 'I' for Inactive)
REMARK    1  A    between atoms: C_1  and  O_2
REMARK    2  A    between atoms: O_2  and  C_3
REMARK    3  A    between atoms: C_3  and  C_5
REMARK    4  A    between atoms: C_6  and  C_7
REMARK    5  A    between atoms: N_8  and  C_9
REMARK    6  A    between atoms: C_9  and  C_10
REMARK    7  A    between atoms: C_19  and  C_20
REMARK                            x       y       z     vdW  Elec       q    Type
REMARK                         _______ _______ _______ _____ _____    ______ ____
ROOT
ATOM      1  C   UNL     1      -1.614  11.438  18.963  0.00  0.00    +0.000 C 
ATOM      2  C   UNL     1      -2.470  12.148  19.742  0.00  0.00    +0.000 C 
ATOM      3  C   UNL     1      -3.978  12.116  19.596  0.00  0.00    +0.000 C 
ATOM      4  N   UNL     1      -1.949  12.968  20.759  0.00  0.00    +0.000 N 
ATOM      5  C   UNL     1      -0.620  12.918  21.156  0.00  0.00    +0.000 C 
ATOM      6  O   UNL     1      -0.139  13.561  22.086  0.00  0.00    +0.000 OA
ATOM      7  N   UNL     1       0.177  12.058  20.484  0.00  0.00    +0.000 N 
ATOM      8  C   UNL     1      -0.126  11.466  19.201  0.00  0.00    +0.000 C 
ATOM      9  H   UNL     1       1.136  12.058  20.801  0.00  0.00    +0.000 HD
ENDROOT
BRANCH   8  10
ATOM     10  C   UNL     1       0.629  10.145  19.152  0.00  0.00    +0.000 A 
ATOM     11  C   UNL     1       0.711   9.310  20.281  0.00  0.00    +0.000 A 
ATOM     12  C   UNL     1       1.459   8.133  20.243  0.00  0.00    +0.000 A 
ATOM     13  C   UNL     1       2.127   7.773  19.074  0.00  0.00    +0.000 A 
ATOM     14 BR   UNL     1       3.156   6.189  19.032  0.00  0.00    +0.000 Br
ATOM     15  C   UNL     1       2.054   8.582  17.941  0.00  0.00    +0.000 A 
ATOM     16  C   UNL     1       1.309   9.764  17.979  0.00  0.00    +0.000 A 
ENDBRANCH   8  10
BRANCH   1  17
ATOM     17  C   UNL     1      -2.047  10.682  17.749  0.00  0.00    +0.000 C 
ATOM     18  O   UNL     1      -2.280   9.485  17.725  0.00  0.00    +0.000 OA
BRANCH  17  20
ATOM     19  C   UNL     1      -3.028  11.124  15.650  0.00  0.00    +0.000 C 
ATOM     20  O   UNL     1      -2.074  11.485  16.655  0.00  0.00    +0.000 OA
ENDBRANCH  17  20
ENDBRANCH   1  17
BRANCH   4  21
ATOM     21  C   UNL     1      -2.775  13.981  21.435  0.00  0.00    +0.000 C 
BRANCH  21  22
ATOM     22  C   UNL     1      -3.718  13.472  22.505  0.00  0.00    +0.000 A 
ATOM     23  C   UNL     1      -3.291  12.633  23.543  0.00  0.00    +0.000 A 
ATOM     24  C   UNL     1      -4.166  12.257  24.563  0.00  0.00    +0.000 A 
ATOM     25  C   UNL     1      -5.479  12.724  24.566  0.00  0.00    +0.000 A 
ATOM     26  C   UNL     1      -5.919  13.561  23.545  0.00  0.00    +0.000 A 
ATOM     27  C   UNL     1      -5.045  13.936  22.524  0.00  0.00    +0.000 A 
ENDBRANCH  21  22
ENDBRANCH   4  21
TORSDOF 5
ENDMDL
MODEL 8
REMARK VINA RESULT:      -6.4      6.164     11.319
REMARK  Name = 
REMARK  7 active torsions:
REMARK  status: ('A' for Active; 'I' for Inactive)
REMARK    1  A    between atoms: C_1  and  O_2
REMARK    2  A    between atoms: O_2  and  C_3
REMARK    3  A    between atoms: C_3  and  C_5
REMARK    4  A    between atoms: C_6  and  C_7
REMARK    5  A    between atoms: N_8  and  C_9
REMARK    6  A    between atoms: C_9  and  C_10
REMARK    7  A    between atoms: C_19  and  C_20
REMARK                            x       y       z     vdW  Elec       q    Type
REMARK                         _______ _______ _______ _____ _____    ______ ____
ROOT
ATOM      1  C   UNL     1      -1.706  11.608  19.057  0.00  0.00    +0.000 C 
ATOM      2  C   UNL     1      -2.565  12.341  19.810  0.00  0.00    +0.000 C 
ATOM      3  C   UNL     1      -4.074  12.256  19.703  0.00  0.00    +0.000 C 
ATOM      4  N   UNL     1      -2.046  13.240  20.760  0.00  0.00    +0.000 N 
ATOM      5  C   UNL     1      -0.708  13.254  21.126  0.00  0.00    +0.000 C 
ATOM      6  O   UNL     1      -0.226  13.970  22.001  0.00  0.00    +0.000 OA
ATOM      7  N   UNL     1       0.099  12.377  20.491  0.00  0.00    +0.000 N 
ATOM      8  C   UNL     1      -0.214  11.695  19.256  0.00  0.00    +0.000 C 
ATOM      9  H   UNL     1       1.065  12.425  20.783  0.00  0.00    +0.000 HD
ENDROOT
BRANCH   8  10
ATOM     10  C   UNL     1       0.580  10.396  19.273  0.00  0.00    +0.000 A 
ATOM     11  C   UNL     1       1.245   9.934  18.124  0.00  0.00    +0.000 A 
ATOM     12  C   UNL     1       1.917   8.711  18.134  0.00  0.00    +0.000 A 
ATOM     13  C   UNL     1       1.939   7.941  19.295  0.00  0.00    +0.000 A 
ATOM     14 BR   UNL     1       2.832   6.276  19.300  0.00  0.00    +0.000 Br
ATOM     15  C   UNL     1       1.293   8.383  20.449  0.00  0.00    +0.000 A 
ATOM     16  C   UNL     1       0.616   9.606  20.438  0.00  0.00    +0.000 A 
ENDBRANCH   8  10
BRANCH   1  17
ATOM     17  C   UNL     1      -2.142  10.764  17.904  0.00  0.00    +0.000 C 
ATOM     18  O   UNL     1      -2.429   9.581  17.982  0.00  0.00    +0.000 OA
BRANCH  17  20
ATOM     19  C   UNL     1      -2.793  10.861  15.639  0.00  0.00    +0.000 C 
ATOM     20  O   UNL     1      -2.105  11.464  16.742  0.00  0.00    +0.000 OA
ENDBRANCH  17  20
ENDBRANCH   1  17
BRANCH   4  21
ATOM     21  C   UNL     1      -2.888  14.270  21.390  0.00  0.00    +0.000 C 
BRANCH  21  22
ATOM     22  C   UNL     1      -3.808  13.799  22.496  0.00  0.00    +0.000 A 
ATOM     23  C   UNL     1      -5.157  14.175  22.561  0.00  0.00    +0.000 A 
ATOM     24  C   UNL     1      -5.998  13.650  23.542  0.00  0.00    +0.000 A 
ATOM     25  C   UNL     1      -5.507  12.731  24.467  0.00  0.00    +0.000 A 
ATOM     26  C   UNL     1      -4.171  12.344  24.416  0.00  0.00    +0.000 A 
ATOM     27  C   UNL     1      -3.328  12.870  23.436  0.00  0.00    +0.000 A 
ENDBRANCH  21  22
ENDBRANCH   4  21
TORSDOF 5
ENDMDL
MODEL 9
REMARK VINA RESULT:      -6.4      3.754      6.097
REMARK  Name = 
REMARK  7 active torsions:
REMARK  status: ('A' for Active; 'I' for Inactive)
REMARK    1  A    between atoms: C_1  and  O_2
REMARK    2  A    between atoms: O_2  and  C_3
REMARK    3  A    between atoms: C_3  and  C_5
REMARK    4  A    between atoms: C_6  and  C_7
REMARK    5  A    between atoms: N_8  and  C_9
REMARK    6  A    between atoms: C_9  and  C_10
REMARK    7  A    between atoms: C_19  and  C_20
REMARK                            x       y       z     vdW  Elec       q    Type
REMARK                         _______ _______ _______ _____ _____    ______ ____
ROOT
ATOM      1  C   UNL     1       0.796   9.675  20.093  0.00  0.00    +0.000 C 
ATOM      2  C   UNL     1       1.546   8.554  20.254  0.00  0.00    +0.000 C 
ATOM      3  C   UNL     1       1.747   7.850  21.580  0.00  0.00    +0.000 C 
ATOM      4  N   UNL     1       2.180   7.989  19.133  0.00  0.00    +0.000 N 
ATOM      5  C   UNL     1       1.899   8.385  17.833  0.00  0.00    +0.000 C 
ATOM      6  O   UNL     1       2.374   7.871  16.823  0.00  0.00    +0.000 OA
ATOM      7  N   UNL     1       1.001   9.384  17.689  0.00  0.00    +0.000 N 
ATOM      8  C   UNL     1       0.584  10.291  18.734  0.00  0.00    +0.000 C 
ATOM      9  H   UNL     1       0.831   9.645  16.728  0.00  0.00    +0.000 HD
ENDROOT
BRANCH   8  10
ATOM     10  C   UNL     1      -0.822  10.746  18.368  0.00  0.00    +0.000 A 
ATOM     11  C   UNL     1      -1.386  11.899  18.941  0.00  0.00    +0.000 A 
ATOM     12  C   UNL     1      -2.699  12.271  18.645  0.00  0.00    +0.000 A 
ATOM     13  C   UNL     1      -3.457  11.499  17.768  0.00  0.00    +0.000 A 
ATOM     14 BR   UNL     1      -5.241  11.993  17.386  0.00  0.00    +0.000 Br
ATOM     15  C   UNL     1      -2.915  10.356  17.182  0.00  0.00    +0.000 A 
ATOM     16  C   UNL     1      -1.603   9.980  17.481  0.00  0.00    +0.000 A 
ENDBRANCH   8  10
BRANCH   1  17
ATOM     17  C   UNL     1       0.231  10.453  21.236  0.00  0.00    +0.000 C 
ATOM     18  O   UNL     1       0.666  11.523  21.628  0.00  0.00    +0.000 OA
BRANCH  17  20
ATOM     19  C   UNL     1      -0.849   9.901  23.259  0.00  0.00    +0.000 C 
ATOM     20  O   UNL     1      -0.785   9.780  21.833  0.00  0.00    +0.000 OA
ENDBRANCH  17  20
ENDBRANCH   1  17
BRANCH   4  21
ATOM     21  C   UNL     1       3.233   6.970  19.272  0.00  0.00    +0.000 C 
BRANCH  21  22
ATOM     22  C   UNL     1       2.829   5.542  18.973  0.00  0.00    +0.000 A 
ATOM     23  C   UNL     1       1.866   4.861  19.731  0.00  0.00    +0.000 A 
ATOM     24  C   UNL     1       1.452   3.578  19.372  0.00  0.00    +0.000 A 
ATOM     25  C   UNL     1       1.985   2.961  18.242  0.00  0.00    +0.000 A 
ATOM     26  C   UNL     1       2.939   3.624  17.475  0.00  0.00    +0.000 A 
ATOM     27  C   UNL     1       3.356   4.907  17.835  0.00  0.00    +0.000 A 
ENDBRANCH  21  22
ENDBRANCH   4  21
TORSDOF 5
ENDMDL
