MODEL 1
REMARK VINA RESULT:      -5.9      0.000      0.000
REMARK  Name = 
REMARK  21 active torsions:
REMARK  status: ('A' for Active; 'I' for Inactive)
REMARK    1  A    between atoms: C_1  and  C_2
REMARK    2  A    between atoms: C_2  and  C_3
REMARK    3  A    between atoms: C_3  and  C_4
REMARK    4  A    between atoms: C_4  and  C_5
REMARK    5  A    between atoms: C_5  and  C_6
REMARK    6  A    between atoms: C_6  and  C_7
REMARK    7  A    between atoms: C_7  and  C_8
REMARK    8  A    between atoms: C_8  and  C_9
REMARK    9  A    between atoms: C_9  and  C_10
REMARK   10  A    between atoms: C_10  and  C_11
REMARK   11  A    between atoms: C_11  and  C_12
REMARK   12  A    between atoms: C_12  and  C_13
REMARK   13  A    between atoms: C_13  and  C_14
REMARK   14  A    between atoms: C_14  and  C_15
REMARK   15  A    between atoms: C_15  and  C_16
REMARK   16  A    between atoms: C_16  and  N_17
REMARK   17  A    between atoms: N_17  and  C_20
REMARK   18  A    between atoms: C_23  and  C_24
REMARK   19  A    between atoms: C_24  and  O_26
REMARK   20  A    between atoms: O_26  and  C_27
REMARK   21  A    between atoms: C_27  and  C_28
REMARK                            x       y       z     vdW  Elec       q    Type
REMARK                         _______ _______ _______ _____ _____    ______ ____
ROOT
ATOM      1  C   UNL     1       1.322   4.164  20.796  0.00  0.00    +0.000 C 
ENDROOT
BRANCH   1   2
ATOM      2  C   UNL     1       1.886   3.174  19.777  0.00  0.00    +0.000 C 
BRANCH   2   3
ATOM      3  N   UNL     1       3.345   3.039  19.836  0.00  0.00    +0.000 N 
ATOM      4  C   UNL     1       3.905   2.428  20.953  0.00  0.00    +0.000 C 
ATOM      5  O   UNL     1       3.294   1.948  21.902  0.00  0.00    +0.000 OA
BRANCH   3   6
ATOM      6  C   UNL     1       4.149   3.500  18.743  0.00  0.00    +0.000 A 
ATOM      7  C   UNL     1       3.748   3.303  17.412  0.00  0.00    +0.000 A 
ATOM      8  C   UNL     1       4.538   3.730  16.350  0.00  0.00    +0.000 A 
ATOM      9  C   UNL     1       5.749   4.371  16.586  0.00  0.00    +0.000 A 
ATOM     10  C   UNL     1       6.162   4.592  17.894  0.00  0.00    +0.000 A 
ATOM     11  C   UNL     1       5.361   4.175  18.960  0.00  0.00    +0.000 A 
BRANCH   9  12
ATOM     12  C   UNL     1       6.563   4.722  15.409  0.00  0.00    +0.000 C 
ATOM     13  O   UNL     1       7.483   5.522  15.480  0.00  0.00    +0.000 OA
BRANCH  12  14
ATOM     14  O   UNL     1       6.060   4.142  14.295  0.00  0.00    +0.000 OA
BRANCH  14  15
ATOM     15  C   UNL     1       6.941   4.121  13.159  0.00  0.00    +0.000 C 
ATOM     16  C   UNL     1       6.196   3.434  12.026  0.00  0.00    +0.000 C 
ENDBRANCH  14  15
ENDBRANCH  12  14
ENDBRANCH   9  12
ENDBRANCH   3   6
ENDBRANCH   2   3
ENDBRANCH   1   2
BRANCH   1  17
ATOM     17  C   UNL     1       1.847   5.583  20.567  0.00  0.00    +0.000 C 
BRANCH  17  18
ATOM     18  C   UNL     1       1.707   5.939  19.090  0.00  0.00    +0.000 C 
BRANCH  18  19
ATOM     19  C   UNL     1       2.829   6.847  18.613  0.00  0.00    +0.000 C 
BRANCH  19  20
ATOM     20  C   UNL     1       2.247   8.075  17.922  0.00  0.00    +0.000 C 
BRANCH  20  21
ATOM     21  C   UNL     1       1.542   8.964  18.932  0.00  0.00    +0.000 C 
BRANCH  21  22
ATOM     22  C   UNL     1       0.909  10.165  18.243  0.00  0.00    +0.000 C 
BRANCH  22  23
ATOM     23  C   UNL     1      -0.530   9.850  17.872  0.00  0.00    +0.000 C 
BRANCH  23  24
ATOM     24  C   UNL     1      -1.482  10.804  18.573  0.00  0.00    +0.000 C 
BRANCH  24  25
ATOM     25  C   UNL     1      -0.759  12.072  18.971  0.00  0.00    +0.000 C 
BRANCH  25  26
ATOM     26  C   UNL     1      -1.059  12.430  20.422  0.00  0.00    +0.000 C 
BRANCH  26  27
ATOM     27  C   UNL     1      -1.041  11.188  21.303  0.00  0.00    +0.000 C 
BRANCH  27  28
ATOM     28  C   UNL     1      -0.894  11.577  22.770  0.00  0.00    +0.000 C 
BRANCH  28  30
ATOM     29  C   UNL     1      -3.132  12.394  23.551  0.00  0.00    +0.000 C 
ATOM     30  C   UNL     1      -1.741  12.801  23.100  0.00  0.00    +0.000 C 
ENDBRANCH  28  30
ENDBRANCH  27  28
ENDBRANCH  26  27
ENDBRANCH  25  26
ENDBRANCH  24  25
ENDBRANCH  23  24
ENDBRANCH  22  23
ENDBRANCH  21  22
ENDBRANCH  20  21
ENDBRANCH  19  20
ENDBRANCH  18  19
ENDBRANCH  17  18
ENDBRANCH   1  17
TORSDOF 19
ENDMDL
MODEL 2
REMARK VINA RESULT:      -5.9      3.573     10.217
REMARK  Name = 
REMARK  21 active torsions:
REMARK  status: ('A' for Active; 'I' for Inactive)
REMARK    1  A    between atoms: C_1  and  C_2
REMARK    2  A    between atoms: C_2  and  C_3
REMARK    3  A    between atoms: C_3  and  C_4
REMARK    4  A    between atoms: C_4  and  C_5
REMARK    5  A    between atoms: C_5  and  C_6
REMARK    6  A    between atoms: C_6  and  C_7
REMARK    7  A    between atoms: C_7  and  C_8
REMARK    8  A    between atoms: C_8  and  C_9
REMARK    9  A    between atoms: C_9  and  C_10
REMARK   10  A    between atoms: C_10  and  C_11
REMARK   11  A    between atoms: C_11  and  C_12
REMARK   12  A    between atoms: C_12  and  C_13
REMARK   13  A    between atoms: C_13  and  C_14
REMARK   14  A    between atoms: C_14  and  C_15
REMARK   15  A    between atoms: C_15  and  C_16
REMARK   16  A    between atoms: C_16  and  N_17
REMARK   17  A    between atoms: N_17  and  C_20
REMARK   18  A    between atoms: C_23  and  C_24
REMARK   19  A    between atoms: C_24  and  O_26
REMARK   20  A    between atoms: O_26  and  C_27
REMARK   21  A    between atoms: C_27  and  C_28
REMARK                            x       y       z     vdW  Elec       q    Type
REMARK                         _______ _______ _______ _____ _____    ______ ____
ROOT
ATOM      1  C   UNL     1       2.142   5.721  19.690  0.00  0.00    +0.000 C 
ENDROOT
BRANCH   1   2
ATOM      2  C   UNL     1       2.541   7.065  20.299  0.00  0.00    +0.000 C 
BRANCH   2   3
ATOM      3  N   UNL     1       1.925   8.216  19.633  0.00  0.00    +0.000 N 
ATOM      4  C   UNL     1       2.180   8.408  18.279  0.00  0.00    +0.000 C 
ATOM      5  O   UNL     1       2.853   7.681  17.557  0.00  0.00    +0.000 OA
BRANCH   3   6
ATOM      6  C   UNL     1       1.057   9.088  20.370  0.00  0.00    +0.000 A 
ATOM      7  C   UNL     1       0.392  10.152  19.742  0.00  0.00    +0.000 A 
ATOM      8  C   UNL     1      -0.432  11.012  20.461  0.00  0.00    +0.000 A 
ATOM      9  C   UNL     1      -0.621  10.829  21.827  0.00  0.00    +0.000 A 
ATOM     10  C   UNL     1       0.014   9.773  22.470  0.00  0.00    +0.000 A 
ATOM     11  C   UNL     1       0.831   8.903  21.743  0.00  0.00    +0.000 A 
BRANCH   9  12
ATOM     12  C   UNL     1      -1.445  11.827  22.529  0.00  0.00    +0.000 C 
ATOM     13  O   UNL     1      -2.204  11.513  23.434  0.00  0.00    +0.000 OA
BRANCH  12  14
ATOM     14  O   UNL     1      -1.319  13.042  21.946  0.00  0.00    +0.000 OA
BRANCH  14  15
ATOM     15  C   UNL     1      -0.676  14.047  22.749  0.00  0.00    +0.000 C 
ATOM     16  C   UNL     1       0.548  14.519  21.982  0.00  0.00    +0.000 C 
ENDBRANCH  14  15
ENDBRANCH  12  14
ENDBRANCH   9  12
ENDBRANCH   3   6
ENDBRANCH   2   3
ENDBRANCH   1   2
BRANCH   1  17
ATOM     17  C   UNL     1       1.241   4.913  20.626  0.00  0.00    +0.000 C 
BRANCH  17  18
ATOM     18  C   UNL     1       1.197   3.462  20.157  0.00  0.00    +0.000 C 
BRANCH  18  19
ATOM     19  C   UNL     1       1.238   3.350  18.641  0.00  0.00    +0.000 C 
BRANCH  19  20
ATOM     20  C   UNL     1       2.090   2.154  18.232  0.00  0.00    +0.000 C 
BRANCH  20  21
ATOM     21  C   UNL     1       3.497   2.294  18.785  0.00  0.00    +0.000 C 
BRANCH  21  22
ATOM     22  C   UNL     1       4.436   2.869  17.734  0.00  0.00    +0.000 C 
BRANCH  22  23
ATOM     23  C   UNL     1       5.233   4.019  18.325  0.00  0.00    +0.000 C 
BRANCH  23  24
ATOM     24  C   UNL     1       5.479   5.091  17.276  0.00  0.00    +0.000 C 
BRANCH  24  25
ATOM     25  C   UNL     1       4.846   4.696  15.961  0.00  0.00    +0.000 C 
BRANCH  25  26
ATOM     26  C   UNL     1       5.738   5.098  14.792  0.00  0.00    +0.000 C 
BRANCH  26  27
ATOM     27  C   UNL     1       6.400   3.876  14.169  0.00  0.00    +0.000 C 
BRANCH  27  28
ATOM     28  C   UNL     1       6.339   3.954  12.647  0.00  0.00    +0.000 C 
BRANCH  28  30
ATOM     29  C   UNL     1       4.274   3.198  11.444  0.00  0.00    +0.000 C 
ATOM     30  C   UNL     1       5.587   2.761  12.067  0.00  0.00    +0.000 C 
ENDBRANCH  28  30
ENDBRANCH  27  28
ENDBRANCH  26  27
ENDBRANCH  25  26
ENDBRANCH  24  25
ENDBRANCH  23  24
ENDBRANCH  22  23
ENDBRANCH  21  22
ENDBRANCH  20  21
ENDBRANCH  19  20
ENDBRANCH  18  19
ENDBRANCH  17  18
ENDBRANCH   1  17
TORSDOF 19
ENDMDL
MODEL 3
REMARK VINA RESULT:      -5.9      4.095     10.411
REMARK  Name = 
REMARK  21 active torsions:
REMARK  status: ('A' for Active; 'I' for Inactive)
REMARK    1  A    between atoms: C_1  and  C_2
REMARK    2  A    between atoms: C_2  and  C_3
REMARK    3  A    between atoms: C_3  and  C_4
REMARK    4  A    between atoms: C_4  and  C_5
REMARK    5  A    between atoms: C_5  and  C_6
REMARK    6  A    between atoms: C_6  and  C_7
REMARK    7  A    between atoms: C_7  and  C_8
REMARK    8  A    between atoms: C_8  and  C_9
REMARK    9  A    between atoms: C_9  and  C_10
REMARK   10  A    between atoms: C_10  and  C_11
REMARK   11  A    between atoms: C_11  and  C_12
REMARK   12  A    between atoms: C_12  and  C_13
REMARK   13  A    between atoms: C_13  and  C_14
REMARK   14  A    between atoms: C_14  and  C_15
REMARK   15  A    between atoms: C_15  and  C_16
REMARK   16  A    between atoms: C_16  and  N_17
REMARK   17  A    between atoms: N_17  and  C_20
REMARK   18  A    between atoms: C_23  and  C_24
REMARK   19  A    between atoms: C_24  and  O_26
REMARK   20  A    between atoms: O_26  and  C_27
REMARK   21  A    between atoms: C_27  and  C_28
REMARK                            x       y       z     vdW  Elec       q    Type
REMARK                         _______ _______ _______ _____ _____    ______ ____
ROOT
ATOM      1  C   UNL     1       0.761   7.016  20.634  0.00  0.00    +0.000 C 
ENDROOT
BRANCH   1   2
ATOM      2  C   UNL     1       1.489   8.323  20.953  0.00  0.00    +0.000 C 
BRANCH   2   3
ATOM      3  N   UNL     1       0.900   9.496  20.301  0.00  0.00    +0.000 N 
ATOM      4  C   UNL     1       1.202   9.726  18.963  0.00  0.00    +0.000 C 
ATOM      5  O   UNL     1       1.898   9.017  18.243  0.00  0.00    +0.000 OA
BRANCH   3   6
ATOM      6  C   UNL     1       0.011  10.350  21.034  0.00  0.00    +0.000 A 
ATOM      7  C   UNL     1      -0.185  10.181  22.413  0.00  0.00    +0.000 A 
ATOM      8  C   UNL     1      -1.065  10.994  23.121  0.00  0.00    +0.000 A 
ATOM      9  C   UNL     1      -1.768  12.004  22.473  0.00  0.00    +0.000 A 
ATOM     10  C   UNL     1      -1.580  12.201  21.109  0.00  0.00    +0.000 A 
ATOM     11  C   UNL     1      -0.686  11.392  20.403  0.00  0.00    +0.000 A 
BRANCH   9  12
ATOM     12  C   UNL     1      -2.737  12.769  23.276  0.00  0.00    +0.000 C 
ATOM     13  O   UNL     1      -2.382  13.652  24.040  0.00  0.00    +0.000 OA
BRANCH  12  14
ATOM     14  O   UNL     1      -3.983  12.263  23.123  0.00  0.00    +0.000 OA
BRANCH  14  15
ATOM     15  C   UNL     1      -4.989  12.835  23.976  0.00  0.00    +0.000 C 
ATOM     16  C   UNL     1      -6.263  12.949  23.155  0.00  0.00    +0.000 C 
ENDBRANCH  14  15
ENDBRANCH  12  14
ENDBRANCH   9  12
ENDBRANCH   3   6
ENDBRANCH   2   3
ENDBRANCH   1   2
BRANCH   1  17
ATOM     17  C   UNL     1       1.665   5.797  20.827  0.00  0.00    +0.000 C 
BRANCH  17  18
ATOM     18  C   UNL     1       0.964   4.558  20.278  0.00  0.00    +0.000 C 
BRANCH  18  19
ATOM     19  C   UNL     1       1.481   3.279  20.917  0.00  0.00    +0.000 C 
BRANCH  19  20
ATOM     20  C   UNL     1       1.354   2.120  19.936  0.00  0.00    +0.000 C 
BRANCH  20  21
ATOM     21  C   UNL     1       2.636   1.962  19.136  0.00  0.00    +0.000 C 
BRANCH  21  22
ATOM     22  C   UNL     1       2.446   2.460  17.710  0.00  0.00    +0.000 C 
BRANCH  22  23
ATOM     23  C   UNL     1       3.562   3.424  17.346  0.00  0.00    +0.000 C 
BRANCH  23  24
ATOM     24  C   UNL     1       3.057   4.857  17.370  0.00  0.00    +0.000 C 
BRANCH  24  25
ATOM     25  C   UNL     1       4.070   5.761  18.036  0.00  0.00    +0.000 C 
BRANCH  25  26
ATOM     26  C   UNL     1       4.486   6.887  17.097  0.00  0.00    +0.000 C 
BRANCH  26  27
ATOM     27  C   UNL     1       5.447   6.378  16.031  0.00  0.00    +0.000 C 
BRANCH  27  28
ATOM     28  C   UNL     1       6.692   5.779  16.676  0.00  0.00    +0.000 C 
BRANCH  28  30
ATOM     29  C   UNL     1       7.873   6.185  18.850  0.00  0.00    +0.000 C 
ATOM     30  C   UNL     1       7.407   6.807  17.546  0.00  0.00    +0.000 C 
ENDBRANCH  28  30
ENDBRANCH  27  28
ENDBRANCH  26  27
ENDBRANCH  25  26
ENDBRANCH  24  25
ENDBRANCH  23  24
ENDBRANCH  22  23
ENDBRANCH  21  22
ENDBRANCH  20  21
ENDBRANCH  19  20
ENDBRANCH  18  19
ENDBRANCH  17  18
ENDBRANCH   1  17
TORSDOF 19
ENDMDL
MODEL 4
REMARK VINA RESULT:      -5.8      1.715      2.867
REMARK  Name = 
REMARK  21 active torsions:
REMARK  status: ('A' for Active; 'I' for Inactive)
REMARK    1  A    between atoms: C_1  and  C_2
REMARK    2  A    between atoms: C_2  and  C_3
REMARK    3  A    between atoms: C_3  and  C_4
REMARK    4  A    between atoms: C_4  and  C_5
REMARK    5  A    between atoms: C_5  and  C_6
REMARK    6  A    between atoms: C_6  and  C_7
REMARK    7  A    between atoms: C_7  and  C_8
REMARK    8  A    between atoms: C_8  and  C_9
REMARK    9  A    between atoms: C_9  and  C_10
REMARK   10  A    between atoms: C_10  and  C_11
REMARK   11  A    between atoms: C_11  and  C_12
REMARK   12  A    between atoms: C_12  and  C_13
REMARK   13  A    between atoms: C_13  and  C_14
REMARK   14  A    between atoms: C_14  and  C_15
REMARK   15  A    between atoms: C_15  and  C_16
REMARK   16  A    between atoms: C_16  and  N_17
REMARK   17  A    between atoms: N_17  and  C_20
REMARK   18  A    between atoms: C_23  and  C_24
REMARK   19  A    between atoms: C_24  and  O_26
REMARK   20  A    between atoms: O_26  and  C_27
REMARK   21  A    between atoms: C_27  and  C_28
REMARK                            x       y       z     vdW  Elec       q    Type
REMARK                         _______ _______ _______ _____ _____    ______ ____
ROOT
ATOM      1  C   UNL     1       1.616   5.725  20.160  0.00  0.00    +0.000 C 
ENDROOT
BRANCH   1   2
ATOM      2  C   UNL     1       2.580   4.940  21.049  0.00  0.00    +0.000 C 
BRANCH   2   3
ATOM      3  N   UNL     1       3.234   3.823  20.360  0.00  0.00    +0.000 N 
ATOM      4  C   UNL     1       3.061   2.541  20.871  0.00  0.00    +0.000 C 
ATOM      5  O   UNL     1       2.376   2.233  21.841  0.00  0.00    +0.000 OA
BRANCH   3   6
ATOM      6  C   UNL     1       3.999   4.066  19.172  0.00  0.00    +0.000 A 
ATOM      7  C   UNL     1       5.173   4.834  19.207  0.00  0.00    +0.000 A 
ATOM      8  C   UNL     1       5.903   5.090  18.051  0.00  0.00    +0.000 A 
ATOM      9  C   UNL     1       5.485   4.580  16.826  0.00  0.00    +0.000 A 
ATOM     10  C   UNL     1       4.333   3.803  16.766  0.00  0.00    +0.000 A 
ATOM     11  C   UNL     1       3.608   3.537  17.931  0.00  0.00    +0.000 A 
BRANCH   9  12
ATOM     12  C   UNL     1       6.268   4.960  15.639  0.00  0.00    +0.000 C 
ATOM     13  O   UNL     1       7.307   5.595  15.730  0.00  0.00    +0.000 OA
BRANCH  12  14
ATOM     14  O   UNL     1       5.608   4.620  14.507  0.00  0.00    +0.000 OA
BRANCH  14  15
ATOM     15  C   UNL     1       6.379   3.885  13.541  0.00  0.00    +0.000 C 
ATOM     16  C   UNL     1       5.419   3.426  12.456  0.00  0.00    +0.000 C 
ENDBRANCH  14  15
ENDBRANCH  12  14
ENDBRANCH   9  12
ENDBRANCH   3   6
ENDBRANCH   2   3
ENDBRANCH   1   2
BRANCH   1  17
ATOM     17  C   UNL     1       2.053   7.182  19.990  0.00  0.00    +0.000 C 
BRANCH  17  18
ATOM     18  C   UNL     1       2.624   7.376  18.588  0.00  0.00    +0.000 C 
BRANCH  18  19
ATOM     19  C   UNL     1       2.001   8.568  17.878  0.00  0.00    +0.000 C 
BRANCH  19  20
ATOM     20  C   UNL     1       1.396   9.524  18.900  0.00  0.00    +0.000 C 
BRANCH  20  21
ATOM     21  C   UNL     1       0.614  10.621  18.199  0.00  0.00    +0.000 C 
BRANCH  21  22
ATOM     22  C   UNL     1      -0.831  10.196  17.981  0.00  0.00    +0.000 C 
BRANCH  22  23
ATOM     23  C   UNL     1      -1.746  10.981  18.906  0.00  0.00    +0.000 C 
BRANCH  23  24
ATOM     24  C   UNL     1      -0.934  11.882  19.820  0.00  0.00    +0.000 C 
BRANCH  24  25
ATOM     25  C   UNL     1      -1.580  13.246  19.925  0.00  0.00    +0.000 C 
BRANCH  25  26
ATOM     26  C   UNL     1      -0.571  14.345  19.617  0.00  0.00    +0.000 C 
BRANCH  26  27
ATOM     27  C   UNL     1       0.848  13.876  19.904  0.00  0.00    +0.000 C 
BRANCH  27  28
ATOM     28  C   UNL     1       1.751  14.141  18.704  0.00  0.00    +0.000 C 
BRANCH  28  30
ATOM     29  C   UNL     1       3.203  15.851  17.584  0.00  0.00    +0.000 C 
ATOM     30  C   UNL     1       2.086  15.624  18.587  0.00  0.00    +0.000 C 
ENDBRANCH  28  30
ENDBRANCH  27  28
ENDBRANCH  26  27
ENDBRANCH  25  26
ENDBRANCH  24  25
ENDBRANCH  23  24
ENDBRANCH  22  23
ENDBRANCH  21  22
ENDBRANCH  20  21
ENDBRANCH  19  20
ENDBRANCH  18  19
ENDBRANCH  17  18
ENDBRANCH   1  17
TORSDOF 19
ENDMDL
MODEL 5
REMARK VINA RESULT:      -5.8      4.794     10.476
REMARK  Name = 
REMARK  21 active torsions:
REMARK  status: ('A' for Active; 'I' for Inactive)
REMARK    1  A    between atoms: C_1  and  C_2
REMARK    2  A    between atoms: C_2  and  C_3
REMARK    3  A    between atoms: C_3  and  C_4
REMARK    4  A    between atoms: C_4  and  C_5
REMARK    5  A    between atoms: C_5  and  C_6
REMARK    6  A    between atoms: C_6  and  C_7
REMARK    7  A    between atoms: C_7  and  C_8
REMARK    8  A    between atoms: C_8  and  C_9
REMARK    9  A    between atoms: C_9  and  C_10
REMARK   10  A    between atoms: C_10  and  C_11
REMARK   11  A    between atoms: C_11  and  C_12
REMARK   12  A    between atoms: C_12  and  C_13
REMARK   13  A    between atoms: C_13  and  C_14
REMARK   14  A    between atoms: C_14  and  C_15
REMARK   15  A    between atoms: C_15  and  C_16
REMARK   16  A    between atoms: C_16  and  N_17
REMARK   17  A    between atoms: N_17  and  C_20
REMARK   18  A    between atoms: C_23  and  C_24
REMARK   19  A    between atoms: C_24  and  O_26
REMARK   20  A    between atoms: O_26  and  C_27
REMARK   21  A    between atoms: C_27  and  C_28
REMARK                            x       y       z     vdW  Elec       q    Type
REMARK                         _______ _______ _______ _____ _____    ______ ____
ROOT
ATOM      1  C   UNL     1       1.238   9.518  17.974  0.00  0.00    +0.000 C 
ENDROOT
BRANCH   1   2
ATOM      2  C   UNL     1       1.062  10.891  18.622  0.00  0.00    +0.000 C 
BRANCH   2   3
ATOM      3  N   UNL     1      -0.011  10.936  19.620  0.00  0.00    +0.000 N 
ATOM      4  C   UNL     1       0.338  10.882  20.965  0.00  0.00    +0.000 C 
ATOM      5  O   UNL     1       1.477  10.834  21.419  0.00  0.00    +0.000 OA
BRANCH   3   6
ATOM      6  C   UNL     1      -1.374  11.068  19.197  0.00  0.00    +0.000 A 
ATOM      7  C   UNL     1      -1.939  10.171  18.277  0.00  0.00    +0.000 A 
ATOM      8  C   UNL     1      -3.256  10.311  17.849  0.00  0.00    +0.000 A 
ATOM      9  C   UNL     1      -4.048  11.347  18.332  0.00  0.00    +0.000 A 
ATOM     10  C   UNL     1      -3.516  12.240  19.256  0.00  0.00    +0.000 A 
ATOM     11  C   UNL     1      -2.198  12.090  19.695  0.00  0.00    +0.000 A 
BRANCH   9  12
ATOM     12  C   UNL     1      -5.403  11.474  17.771  0.00  0.00    +0.000 C 
ATOM     13  O   UNL     1      -6.280  10.661  18.020  0.00  0.00    +0.000 OA
BRANCH  12  14
ATOM     14  O   UNL     1      -5.458  12.500  16.891  0.00  0.00    +0.000 OA
BRANCH  14  15
ATOM     15  C   UNL     1      -6.692  13.239  16.882  0.00  0.00    +0.000 C 
ATOM     16  C   UNL     1      -6.750  14.031  18.178  0.00  0.00    +0.000 C 
ENDBRANCH  14  15
ENDBRANCH  12  14
ENDBRANCH   9  12
ENDBRANCH   3   6
ENDBRANCH   2   3
ENDBRANCH   1   2
BRANCH   1  17
ATOM     17  C   UNL     1       1.711   8.467  18.981  0.00  0.00    +0.000 C 
BRANCH  17  18
ATOM     18  C   UNL     1       2.489   7.379  18.246  0.00  0.00    +0.000 C 
BRANCH  18  19
ATOM     19  C   UNL     1       3.198   6.437  19.206  0.00  0.00    +0.000 C 
BRANCH  19  20
ATOM     20  C   UNL     1       2.176   5.595  19.959  0.00  0.00    +0.000 C 
BRANCH  20  21
ATOM     21  C   UNL     1       1.662   4.471  19.076  0.00  0.00    +0.000 C 
BRANCH  21  22
ATOM     22  C   UNL     1       2.561   3.247  19.184  0.00  0.00    +0.000 C 
BRANCH  22  23
ATOM     23  C   UNL     1       2.833   2.681  17.801  0.00  0.00    +0.000 C 
BRANCH  23  24
ATOM     24  C   UNL     1       3.327   3.771  16.867  0.00  0.00    +0.000 C 
BRANCH  24  25
ATOM     25  C   UNL     1       4.811   3.996  17.057  0.00  0.00    +0.000 C 
BRANCH  25  26
ATOM     26  C   UNL     1       5.295   5.158  16.198  0.00  0.00    +0.000 C 
BRANCH  26  27
ATOM     27  C   UNL     1       6.785   5.396  16.396  0.00  0.00    +0.000 C 
BRANCH  27  28
ATOM     28  C   UNL     1       7.227   4.903  17.770  0.00  0.00    +0.000 C 
BRANCH  28  30
ATOM     29  C   UNL     1       7.735   7.357  17.849  0.00  0.00    +0.000 C 
ATOM     30  C   UNL     1       7.702   6.062  18.640  0.00  0.00    +0.000 C 
ENDBRANCH  28  30
ENDBRANCH  27  28
ENDBRANCH  26  27
ENDBRANCH  25  26
ENDBRANCH  24  25
ENDBRANCH  23  24
ENDBRANCH  22  23
ENDBRANCH  21  22
ENDBRANCH  20  21
ENDBRANCH  19  20
ENDBRANCH  18  19
ENDBRANCH  17  18
ENDBRANCH   1  17
TORSDOF 19
ENDMDL
MODEL 6
REMARK VINA RESULT:      -5.8      6.174      8.777
REMARK  Name = 
REMARK  21 active torsions:
REMARK  status: ('A' for Active; 'I' for Inactive)
REMARK    1  A    between atoms: C_1  and  C_2
REMARK    2  A    between atoms: C_2  and  C_3
REMARK    3  A    between atoms: C_3  and  C_4
REMARK    4  A    between atoms: C_4  and  C_5
REMARK    5  A    between atoms: C_5  and  C_6
REMARK    6  A    between atoms: C_6  and  C_7
REMARK    7  A    between atoms: C_7  and  C_8
REMARK    8  A    between atoms: C_8  and  C_9
REMARK    9  A    between atoms: C_9  and  C_10
REMARK   10  A    between atoms: C_10  and  C_11
REMARK   11  A    between atoms: C_11  and  C_12
REMARK   12  A    between atoms: C_12  and  C_13
REMARK   13  A    between atoms: C_13  and  C_14
REMARK   14  A    between atoms: C_14  and  C_15
REMARK   15  A    between atoms: C_15  and  C_16
REMARK   16  A    between atoms: C_16  and  N_17
REMARK   17  A    between atoms: N_17  and  C_20
REMARK   18  A    between atoms: C_23  and  C_24
REMARK   19  A    between atoms: C_24  and  O_26
REMARK   20  A    between atoms: O_26  and  C_27
REMARK   21  A    between atoms: C_27  and  C_28
REMARK                            x       y       z     vdW  Elec       q    Type
REMARK                         _______ _______ _______ _____ _____    ______ ____
ROOT
ATOM      1  C   UNL     1       5.250   6.667  17.694  0.00  0.00    +0.000 C 
ENDROOT
BRANCH   1   2
ATOM      2  C   UNL     1       4.492   5.440  18.202  0.00  0.00    +0.000 C 
BRANCH   2   3
ATOM      3  N   UNL     1       3.036   5.607  18.194  0.00  0.00    +0.000 N 
ATOM      4  C   UNL     1       2.256   4.567  17.699  0.00  0.00    +0.000 C 
ATOM      5  O   UNL     1       2.664   3.485  17.289  0.00  0.00    +0.000 OA
BRANCH   3   6
ATOM      6  C   UNL     1       2.451   6.805  18.722  0.00  0.00    +0.000 A 
ATOM      7  C   UNL     1       2.208   7.917  17.901  0.00  0.00    +0.000 A 
ATOM      8  C   UNL     1       1.662   9.088  18.417  0.00  0.00    +0.000 A 
ATOM      9  C   UNL     1       1.336   9.180  19.766  0.00  0.00    +0.000 A 
ATOM     10  C   UNL     1       1.553   8.087  20.597  0.00  0.00    +0.000 A 
ATOM     11  C   UNL     1       2.090   6.907  20.075  0.00  0.00    +0.000 A 
BRANCH   9  12
ATOM     12  C   UNL     1       0.836  10.478  20.249  0.00  0.00    +0.000 C 
ATOM     13  O   UNL     1       0.991  10.836  21.407  0.00  0.00    +0.000 OA
BRANCH  12  14
ATOM     14  O   UNL     1       0.112  11.095  19.287  0.00  0.00    +0.000 OA
BRANCH  14  15
ATOM     15  C   UNL     1      -1.313  10.935  19.388  0.00  0.00    +0.000 C 
ATOM     16  C   UNL     1      -1.878  12.254  19.890  0.00  0.00    +0.000 C 
ENDBRANCH  14  15
ENDBRANCH  12  14
ENDBRANCH   9  12
ENDBRANCH   3   6
ENDBRANCH   2   3
ENDBRANCH   1   2
BRANCH   1  17
ATOM     17  C   UNL     1       6.620   6.295  17.121  0.00  0.00    +0.000 C 
BRANCH  17  18
ATOM     18  C   UNL     1       7.710   6.990  17.931  0.00  0.00    +0.000 C 
BRANCH  18  19
ATOM     19  C   UNL     1       7.806   8.473  17.607  0.00  0.00    +0.000 C 
BRANCH  19  20
ATOM     20  C   UNL     1       8.678   9.175  18.642  0.00  0.00    +0.000 C 
BRANCH  20  21
ATOM     21  C   UNL     1       8.955  10.606  18.215  0.00  0.00    +0.000 C 
BRANCH  21  22
ATOM     22  C   UNL     1      10.248  11.113  18.837  0.00  0.00    +0.000 C 
BRANCH  22  23
ATOM     23  C   UNL     1      11.039  11.907  17.812  0.00  0.00    +0.000 C 
BRANCH  23  24
ATOM     24  C   UNL     1      11.525  13.216  18.412  0.00  0.00    +0.000 C 
BRANCH  24  25
ATOM     25  C   UNL     1      10.412  13.887  19.185  0.00  0.00    +0.000 C 
BRANCH  25  26
ATOM     26  C   UNL     1      10.939  14.473  20.489  0.00  0.00    +0.000 C 
BRANCH  26  27
ATOM     27  C   UNL     1       9.870  14.434  21.573  0.00  0.00    +0.000 C 
BRANCH  27  28
ATOM     28  C   UNL     1       8.786  13.423  21.217  0.00  0.00    +0.000 C 
BRANCH  28  30
ATOM     29  C   UNL     1       8.472  12.385  23.477  0.00  0.00    +0.000 C 
ATOM     30  C   UNL     1       8.928  12.152  22.048  0.00  0.00    +0.000 C 
ENDBRANCH  28  30
ENDBRANCH  27  28
ENDBRANCH  26  27
ENDBRANCH  25  26
ENDBRANCH  24  25
ENDBRANCH  23  24
ENDBRANCH  22  23
ENDBRANCH  21  22
ENDBRANCH  20  21
ENDBRANCH  19  20
ENDBRANCH  18  19
ENDBRANCH  17  18
ENDBRANCH   1  17
TORSDOF 19
ENDMDL
MODEL 7
REMARK VINA RESULT:      -5.8      4.720     10.050
REMARK  Name = 
REMARK  21 active torsions:
REMARK  status: ('A' for Active; 'I' for Inactive)
REMARK    1  A    between atoms: C_1  and  C_2
REMARK    2  A    between atoms: C_2  and  C_3
REMARK    3  A    between atoms: C_3  and  C_4
REMARK    4  A    between atoms: C_4  and  C_5
REMARK    5  A    between atoms: C_5  and  C_6
REMARK    6  A    between atoms: C_6  and  C_7
REMARK    7  A    between atoms: C_7  and  C_8
REMARK    8  A    between atoms: C_8  and  C_9
REMARK    9  A    between atoms: C_9  and  C_10
REMARK   10  A    between atoms: C_10  and  C_11
REMARK   11  A    between atoms: C_11  and  C_12
REMARK   12  A    between atoms: C_12  and  C_13
REMARK   13  A    between atoms: C_13  and  C_14
REMARK   14  A    between atoms: C_14  and  C_15
REMARK   15  A    between atoms: C_15  and  C_16
REMARK   16  A    between atoms: C_16  and  N_17
REMARK   17  A    between atoms: N_17  and  C_20
REMARK   18  A    between atoms: C_23  and  C_24
REMARK   19  A    between atoms: C_24  and  O_26
REMARK   20  A    between atoms: O_26  and  C_27
REMARK   21  A    between atoms: C_27  and  C_28
REMARK                            x       y       z     vdW  Elec       q    Type
REMARK                         _______ _______ _______ _____ _____    ______ ____
ROOT
ATOM      1  C   UNL     1      -0.024   9.204  21.745  0.00  0.00    +0.000 C 
ENDROOT
BRANCH   1   2
ATOM      2  C   UNL     1       0.023  10.704  22.033  0.00  0.00    +0.000 C 
BRANCH   2   3
ATOM      3  N   UNL     1       0.055  11.534  20.825  0.00  0.00    +0.000 N 
ATOM      4  C   UNL     1       1.194  12.290  20.575  0.00  0.00    +0.000 C 
ATOM      5  O   UNL     1       2.214  12.314  21.256  0.00  0.00    +0.000 OA
BRANCH   3   6
ATOM      6  C   UNL     1      -1.058  11.521  19.920  0.00  0.00    +0.000 A 
ATOM      7  C   UNL     1      -2.232  12.236  20.203  0.00  0.00    +0.000 A 
ATOM      8  C   UNL     1      -3.320  12.206  19.337  0.00  0.00    +0.000 A 
ATOM      9  C   UNL     1      -3.265  11.466  18.161  0.00  0.00    +0.000 A 
ATOM     10  C   UNL     1      -2.109  10.760  17.850  0.00  0.00    +0.000 A 
ATOM     11  C   UNL     1      -1.011  10.802  18.715  0.00  0.00    +0.000 A 
BRANCH   9  12
ATOM     12  C   UNL     1      -4.486  11.423  17.337  0.00  0.00    +0.000 C 
ATOM     13  O   UNL     1      -4.478  10.979  16.200  0.00  0.00    +0.000 OA
BRANCH  12  14
ATOM     14  O   UNL     1      -5.509  12.040  17.973  0.00  0.00    +0.000 OA
BRANCH  14  15
ATOM     15  C   UNL     1      -6.752  11.318  17.985  0.00  0.00    +0.000 C 
ATOM     16  C   UNL     1      -6.646  10.258  19.069  0.00  0.00    +0.000 C 
ENDBRANCH  14  15
ENDBRANCH  12  14
ENDBRANCH   9  12
ENDBRANCH   3   6
ENDBRANCH   2   3
ENDBRANCH   1   2
BRANCH   1  17
ATOM     17  C   UNL     1       1.367   8.632  21.465  0.00  0.00    +0.000 C 
BRANCH  17  18
ATOM     18  C   UNL     1       1.449   8.194  20.006  0.00  0.00    +0.000 C 
BRANCH  18  19
ATOM     19  C   UNL     1       2.297   6.944  19.831  0.00  0.00    +0.000 C 
BRANCH  19  20
ATOM     20  C   UNL     1       2.329   6.540  18.362  0.00  0.00    +0.000 C 
BRANCH  20  21
ATOM     21  C   UNL     1       3.514   7.185  17.663  0.00  0.00    +0.000 C 
BRANCH  21  22
ATOM     22  C   UNL     1       4.736   6.281  17.730  0.00  0.00    +0.000 C 
BRANCH  22  23
ATOM     23  C   UNL     1       5.147   5.860  16.329  0.00  0.00    +0.000 C 
BRANCH  23  24
ATOM     24  C   UNL     1       4.898   4.376  16.124  0.00  0.00    +0.000 C 
BRANCH  24  25
ATOM     25  C   UNL     1       4.598   3.704  17.445  0.00  0.00    +0.000 C 
BRANCH  25  26
ATOM     26  C   UNL     1       3.696   2.493  17.241  0.00  0.00    +0.000 C 
BRANCH  26  27
ATOM     27  C   UNL     1       3.437   1.781  18.562  0.00  0.00    +0.000 C 
BRANCH  27  28
ATOM     28  C   UNL     1       3.444   2.777  19.716  0.00  0.00    +0.000 C 
BRANCH  28  30
ATOM     29  C   UNL     1       2.079   3.661  21.624  0.00  0.00    +0.000 C 
ATOM     30  C   UNL     1       2.037   2.995  20.261  0.00  0.00    +0.000 C 
ENDBRANCH  28  30
ENDBRANCH  27  28
ENDBRANCH  26  27
ENDBRANCH  25  26
ENDBRANCH  24  25
ENDBRANCH  23  24
ENDBRANCH  22  23
ENDBRANCH  21  22
ENDBRANCH  20  21
ENDBRANCH  19  20
ENDBRANCH  18  19
ENDBRANCH  17  18
ENDBRANCH   1  17
TORSDOF 19
ENDMDL
MODEL 8
REMARK VINA RESULT:      -5.8      4.367     10.728
REMARK  Name = 
REMARK  21 active torsions:
REMARK  status: ('A' for Active; 'I' for Inactive)
REMARK    1  A    between atoms: C_1  and  C_2
REMARK    2  A    between atoms: C_2  and  C_3
REMARK    3  A    between atoms: C_3  and  C_4
REMARK    4  A    between atoms: C_4  and  C_5
REMARK    5  A    between atoms: C_5  and  C_6
REMARK    6  A    between atoms: C_6  and  C_7
REMARK    7  A    between atoms: C_7  and  C_8
REMARK    8  A    between atoms: C_8  and  C_9
REMARK    9  A    between atoms: C_9  and  C_10
REMARK   10  A    between atoms: C_10  and  C_11
REMARK   11  A    between atoms: C_11  and  C_12
REMARK   12  A    between atoms: C_12  and  C_13
REMARK   13  A    between atoms: C_13  and  C_14
REMARK   14  A    between atoms: C_14  and  C_15
REMARK   15  A    between atoms: C_15  and  C_16
REMARK   16  A    between atoms: C_16  and  N_17
REMARK   17  A    between atoms: N_17  and  C_20
REMARK   18  A    between atoms: C_23  and  C_24
REMARK   19  A    between atoms: C_24  and  O_26
REMARK   20  A    between atoms: O_26  and  C_27
REMARK   21  A    between atoms: C_27  and  C_28
REMARK                            x       y       z     vdW  Elec       q    Type
REMARK                         _______ _______ _______ _____ _____    ______ ____
ROOT
ATOM      1  C   UNL     1       1.037   7.897  21.148  0.00  0.00    +0.000 C 
ENDROOT
BRANCH   1   2
ATOM      2  C   UNL     1       1.411   9.374  21.018  0.00  0.00    +0.000 C 
BRANCH   2   3
ATOM      3  N   UNL     1       0.413  10.171  20.299  0.00  0.00    +0.000 N 
ATOM      4  C   UNL     1       0.449  10.175  18.909  0.00  0.00    +0.000 C 
ATOM      5  O   UNL     1       1.225   9.541  18.201  0.00  0.00    +0.000 OA
BRANCH   3   6
ATOM      6  C   UNL     1      -0.588  10.890  21.031  0.00  0.00    +0.000 A 
ATOM      7  C   UNL     1      -0.731  10.727  22.418  0.00  0.00    +0.000 A 
ATOM      8  C   UNL     1      -1.717  11.408  23.126  0.00  0.00    +0.000 A 
ATOM      9  C   UNL     1      -2.583  12.277  22.471  0.00  0.00    +0.000 A 
ATOM     10  C   UNL     1      -2.452  12.468  21.100  0.00  0.00    +0.000 A 
ATOM     11  C   UNL     1      -1.453  11.793  20.393  0.00  0.00    +0.000 A 
BRANCH   9  12
ATOM     12  C   UNL     1      -3.647  12.898  23.277  0.00  0.00    +0.000 C 
ATOM     13  O   UNL     1      -3.740  12.703  24.479  0.00  0.00    +0.000 OA
BRANCH  12  14
ATOM     14  O   UNL     1      -4.515  13.566  22.482  0.00  0.00    +0.000 OA
BRANCH  14  15
ATOM     15  C   UNL     1      -5.865  13.070  22.490  0.00  0.00    +0.000 C 
ATOM     16  C   UNL     1      -6.134  12.477  21.117  0.00  0.00    +0.000 C 
ENDBRANCH  14  15
ENDBRANCH  12  14
ENDBRANCH   9  12
ENDBRANCH   3   6
ENDBRANCH   2   3
ENDBRANCH   1   2
BRANCH   1  17
ATOM     17  C   UNL     1       2.045   6.988  20.443  0.00  0.00    +0.000 C 
BRANCH  17  18
ATOM     18  C   UNL     1       1.462   5.583  20.327  0.00  0.00    +0.000 C 
BRANCH  18  19
ATOM     19  C   UNL     1       2.167   4.594  21.242  0.00  0.00    +0.000 C 
BRANCH  19  20
ATOM     20  C   UNL     1       1.719   3.174  20.916  0.00  0.00    +0.000 C 
BRANCH  20  21
ATOM     21  C   UNL     1       0.684   3.188  19.805  0.00  0.00    +0.000 C 
BRANCH  21  22
ATOM     22  C   UNL     1       1.354   3.073  18.443  0.00  0.00    +0.000 C 
BRANCH  22  23
ATOM     23  C   UNL     1       2.489   2.065  18.508  0.00  0.00    +0.000 C 
BRANCH  23  24
ATOM     24  C   UNL     1       3.717   2.599  17.792  0.00  0.00    +0.000 C 
BRANCH  24  25
ATOM     25  C   UNL     1       4.621   3.325  18.763  0.00  0.00    +0.000 C 
BRANCH  25  26
ATOM     26  C   UNL     1       5.142   4.619  18.150  0.00  0.00    +0.000 C 
BRANCH  26  27
ATOM     27  C   UNL     1       5.886   5.450  19.187  0.00  0.00    +0.000 C 
BRANCH  27  28
ATOM     28  C   UNL     1       7.271   5.829  18.673  0.00  0.00    +0.000 C 
BRANCH  28  30
ATOM     29  C   UNL     1       7.887   8.059  17.707  0.00  0.00    +0.000 C 
ATOM     30  C   UNL     1       7.173   6.743  17.456  0.00  0.00    +0.000 C 
ENDBRANCH  28  30
ENDBRANCH  27  28
ENDBRANCH  26  27
ENDBRANCH  25  26
ENDBRANCH  24  25
ENDBRANCH  23  24
ENDBRANCH  22  23
ENDBRANCH  21  22
ENDBRANCH  20  21
ENDBRANCH  19  20
ENDBRANCH  18  19
ENDBRANCH  17  18
ENDBRANCH   1  17
TORSDOF 19
ENDMDL
MODEL 9
REMARK VINA RESULT:      -5.8      1.821      3.476
REMARK  Name = 
REMARK  21 active torsions:
REMARK  status: ('A' for Active; 'I' for Inactive)
REMARK    1  A    between atoms: C_1  and  C_2
REMARK    2  A    between atoms: C_2  and  C_3
REMARK    3  A    between atoms: C_3  and  C_4
REMARK    4  A    between atoms: C_4  and  C_5
REMARK    5  A    between atoms: C_5  and  C_6
REMARK    6  A    between atoms: C_6  and  C_7
REMARK    7  A    between atoms: C_7  and  C_8
REMARK    8  A    between atoms: C_8  and  C_9
REMARK    9  A    between atoms: C_9  and  C_10
REMARK   10  A    between atoms: C_10  and  C_11
REMARK   11  A    between atoms: C_11  and  C_12
REMARK   12  A    between atoms: C_12  and  C_13
REMARK   13  A    between atoms: C_13  and  C_14
REMARK   14  A    between atoms: C_14  and  C_15
REMARK   15  A    between atoms: C_15  and  C_16
REMARK   16  A    between atoms: C_16  and  N_17
REMARK   17  A    between atoms: N_17  and  C_20
REMARK   18  A    between atoms: C_23  and  C_24
REMARK   19  A    between atoms: C_24  and  O_26
REMARK   20  A    between atoms: O_26  and  C_27
REMARK   21  A    between atoms: C_27  and  C_28
REMARK                            x       y       z     vdW  Elec       q    Type
REMARK                         _______ _______ _______ _____ _____    ______ ____
ROOT
ATOM      1  C   UNL     1       2.126   7.738  18.151  0.00  0.00    +0.000 C 
ENDROOT
BRANCH   1   2
ATOM      2  C   UNL     1       2.597   7.075  19.445  0.00  0.00    +0.000 C 
BRANCH   2   3
ATOM      3  N   UNL     1       3.175   5.743  19.245  0.00  0.00    +0.000 N 
ATOM      4  C   UNL     1       2.823   4.732  20.133  0.00  0.00    +0.000 C 
ATOM      5  O   UNL     1       2.035   4.828  21.068  0.00  0.00    +0.000 OA
BRANCH   3   6
ATOM      6  C   UNL     1       4.050   5.504  18.135  0.00  0.00    +0.000 A 
ATOM      7  C   UNL     1       3.995   4.302  17.412  0.00  0.00    +0.000 A 
ATOM      8  C   UNL     1       4.859   4.060  16.349  0.00  0.00    +0.000 A 
ATOM      9  C   UNL     1       5.799   5.014  15.973  0.00  0.00    +0.000 A 
ATOM     10  C   UNL     1       5.864   6.218  16.663  0.00  0.00    +0.000 A 
ATOM     11  C   UNL     1       4.986   6.465  17.723  0.00  0.00    +0.000 A 
BRANCH   9  12
ATOM     12  C   UNL     1       6.727   4.650  14.889  0.00  0.00    +0.000 C 
ATOM     13  O   UNL     1       7.696   5.340  14.615  0.00  0.00    +0.000 OA
BRANCH  12  14
ATOM     14  O   UNL     1       6.272   3.567  14.218  0.00  0.00    +0.000 OA
BRANCH  14  15
ATOM     15  C   UNL     1       5.750   3.829  12.904  0.00  0.00    +0.000 C 
ATOM     16  C   UNL     1       6.690   3.169  11.908  0.00  0.00    +0.000 C 
ENDBRANCH  14  15
ENDBRANCH  12  14
ENDBRANCH   9  12
ENDBRANCH   3   6
ENDBRANCH   2   3
ENDBRANCH   1   2
BRANCH   1  17
ATOM     17  C   UNL     1       1.355   9.032  18.419  0.00  0.00    +0.000 C 
BRANCH  17  18
ATOM     18  C   UNL     1       2.077  10.198  17.749  0.00  0.00    +0.000 C 
BRANCH  18  19
ATOM     19  C   UNL     1       2.001  11.470  18.578  0.00  0.00    +0.000 C 
BRANCH  19  20
ATOM     20  C   UNL     1       1.328  11.180  19.914  0.00  0.00    +0.000 C 
BRANCH  20  21
ATOM     21  C   UNL     1       1.076  12.473  20.671  0.00  0.00    +0.000 C 
BRANCH  21  22
ATOM     22  C   UNL     1      -0.278  12.435  21.365  0.00  0.00    +0.000 C 
BRANCH  22  23
ATOM     23  C   UNL     1      -1.262  11.626  20.538  0.00  0.00    +0.000 C 
BRANCH  23  24
ATOM     24  C   UNL     1      -1.997  12.522  19.557  0.00  0.00    +0.000 C 
BRANCH  24  25
ATOM     25  C   UNL     1      -1.545  12.236  18.142  0.00  0.00    +0.000 C 
BRANCH  25  26
ATOM     26  C   UNL     1      -1.634  10.745  17.839  0.00  0.00    +0.000 C 
BRANCH  26  27
ATOM     27  C   UNL     1      -2.789  10.451  16.892  0.00  0.00    +0.000 C 
BRANCH  27  28
ATOM     28  C   UNL     1      -3.951   9.816  17.648  0.00  0.00    +0.000 C 
BRANCH  28  30
ATOM     29  C   UNL     1      -5.150  11.919  16.998  0.00  0.00    +0.000 C 
ATOM     30  C   UNL     1      -4.967  10.869  18.078  0.00  0.00    +0.000 C 
ENDBRANCH  28  30
ENDBRANCH  27  28
ENDBRANCH  26  27
ENDBRANCH  25  26
ENDBRANCH  24  25
ENDBRANCH  23  24
ENDBRANCH  22  23
ENDBRANCH  21  22
ENDBRANCH  20  21
ENDBRANCH  19  20
ENDBRANCH  18  19
ENDBRANCH  17  18
ENDBRANCH   1  17
TORSDOF 19
ENDMDL
