MODEL 1
REMARK VINA RESULT:      -6.6      0.000      0.000
REMARK  Name = 
REMARK  7 active torsions:
REMARK  status: ('A' for Active; 'I' for Inactive)
REMARK    1  A    between atoms: C_1  and  C_2
REMARK    2  A    between atoms: C_6  and  C_7
REMARK    3  A    between atoms: C_7  and  N_8
REMARK    4  A    between atoms: C_11  and  C_12
REMARK    5  A    between atoms: C_15  and  C_16
REMARK    6  A    between atoms: C_16  and  N_17
REMARK    7  A    between atoms: N_22  and  C_23
REMARK                            x       y       z     vdW  Elec       q    Type
REMARK                         _______ _______ _______ _____ _____    ______ ____
ROOT
ATOM      1  N   UNL     1       2.241   7.854  19.499  0.00  0.00    +0.000 NA
ATOM      2  C   UNL     1       1.954   8.289  18.125  0.00  0.00    +0.000 C 
ATOM      3  C   UNL     1       1.887   9.812  17.967  0.00  0.00    +0.000 C 
ATOM      4  C   UNL     1       0.879  10.493  18.898  0.00  0.00    +0.000 C 
ATOM      5  C   UNL     1       1.088  10.007  20.332  0.00  0.00    +0.000 C 
ATOM      6  C   UNL     1       1.367   8.506  20.493  0.00  0.00    +0.000 C 
ENDROOT
BRANCH   4   7
ATOM      7  C   UNL     1      -0.549  10.382  18.409  0.00  0.00    +0.000 A 
ATOM      8  N   UNL     1      -1.003   9.495  17.543  0.00  0.00    +0.000 NA
ATOM      9  N   UNL     1      -2.301   9.798  17.250  0.00  0.00    +0.000 NA
ATOM     10  C   UNL     1      -2.658  10.868  17.936  0.00  0.00    +0.000 A 
ATOM     11  N   UNL     1      -1.602  11.211  18.756  0.00  0.00    +0.000 N 
ATOM     12  C   UNL     1      -1.639  12.267  19.735  0.00  0.00    +0.000 C 
BRANCH  10  13
ATOM     13  C   UNL     1      -3.887  11.686  17.716  0.00  0.00    +0.000 C 
BRANCH  13  14
ATOM     14  N   UNL     1      -4.972  11.404  18.646  0.00  0.00    +0.000 N 
ATOM     15  C   UNL     1      -6.031  10.558  18.434  0.00  0.00    +0.000 A 
ATOM     16  C   UNL     1      -6.937  10.802  19.439  0.00  0.00    +0.000 A 
ATOM     17  C   UNL     1      -6.344  11.824  20.204  0.00  0.00    +0.000 A 
ATOM     18  N   UNL     1      -5.158  12.202  19.730  0.00  0.00    +0.000 NA
ENDBRANCH  13  14
ENDBRANCH  10  13
ENDBRANCH   4   7
BRANCH   1  19
ATOM     19  C   UNL     1       2.016   6.385  19.630  0.00  0.00    +0.000 C 
BRANCH  19  25
ATOM     20  C   UNL     1       1.314   4.046  17.528  0.00  0.00    +0.000 C 
ATOM     21  C   UNL     1       2.676   4.524  17.897  0.00  0.00    +0.000 A 
ATOM     22  C   UNL     1       3.877   4.115  17.219  0.00  0.00    +0.000 A 
ATOM     23  C   UNL     1       5.012   4.645  17.780  0.00  0.00    +0.000 A 
ATOM     24  S   UNL     1       4.649   5.658  19.104  0.00  0.00    +0.000 S 
ATOM     25  C   UNL     1       2.954   5.463  18.883  0.00  0.00    +0.000 A 
ENDBRANCH  19  25
ENDBRANCH   1  19
TORSDOF 5
ENDMDL
MODEL 2
REMARK VINA RESULT:      -6.5      4.199      9.604
REMARK  Name = 
REMARK  7 active torsions:
REMARK  status: ('A' for Active; 'I' for Inactive)
REMARK    1  A    between atoms: C_1  and  C_2
REMARK    2  A    between atoms: C_6  and  C_7
REMARK    3  A    between atoms: C_7  and  N_8
REMARK    4  A    between atoms: C_11  and  C_12
REMARK    5  A    between atoms: C_15  and  C_16
REMARK    6  A    between atoms: C_16  and  N_17
REMARK    7  A    between atoms: N_22  and  C_23
REMARK                            x       y       z     vdW  Elec       q    Type
REMARK                         _______ _______ _______ _____ _____    ______ ____
ROOT
ATOM      1  N   UNL     1       1.419   7.817  20.275  0.00  0.00    +0.000 NA
ATOM      2  C   UNL     1       1.835   8.342  18.968  0.00  0.00    +0.000 C 
ATOM      3  C   UNL     1       1.671   7.335  17.824  0.00  0.00    +0.000 C 
ATOM      4  C   UNL     1       2.399   6.007  18.052  0.00  0.00    +0.000 C 
ATOM      5  C   UNL     1       2.058   5.461  19.439  0.00  0.00    +0.000 C 
ATOM      6  C   UNL     1       2.011   6.498  20.570  0.00  0.00    +0.000 C 
ENDROOT
BRANCH   4   7
ATOM      7  C   UNL     1       3.883   6.086  17.767  0.00  0.00    +0.000 A 
ATOM      8  N   UNL     1       4.595   7.195  17.677  0.00  0.00    +0.000 NA
ATOM      9  N   UNL     1       5.858   6.870  17.274  0.00  0.00    +0.000 NA
ATOM     10  C   UNL     1       5.935   5.561  17.119  0.00  0.00    +0.000 A 
ATOM     11  N   UNL     1       4.729   5.020  17.515  0.00  0.00    +0.000 N 
ATOM     12  C   UNL     1       4.453   3.608  17.589  0.00  0.00    +0.000 C 
BRANCH  10  13
ATOM     13  C   UNL     1       7.039   4.818  16.442  0.00  0.00    +0.000 C 
BRANCH  13  14
ATOM     14  N   UNL     1       6.906   4.731  14.994  0.00  0.00    +0.000 N 
ATOM     15  C   UNL     1       6.196   3.789  14.294  0.00  0.00    +0.000 A 
ATOM     16  C   UNL     1       6.564   3.919  12.975  0.00  0.00    +0.000 A 
ATOM     17  C   UNL     1       7.513   4.957  12.978  0.00  0.00    +0.000 A 
ATOM     18  N   UNL     1       7.735   5.453  14.194  0.00  0.00    +0.000 NA
ENDBRANCH  13  14
ENDBRANCH  10  13
ENDBRANCH   4   7
BRANCH   1  19
ATOM     19  C   UNL     1       1.862   8.737  21.363  0.00  0.00    +0.000 C 
BRANCH  19  25
ATOM     20  C   UNL     1       1.111  11.581  20.047  0.00  0.00    +0.000 C 
ATOM     21  C   UNL     1       0.465  10.958  21.236  0.00  0.00    +0.000 A 
ATOM     22  C   UNL     1      -0.724  11.475  21.861  0.00  0.00    +0.000 A 
ATOM     23  C   UNL     1      -1.092  10.762  22.974  0.00  0.00    +0.000 A 
ATOM     24  S   UNL     1      -0.039   9.452  23.264  0.00  0.00    +0.000 S 
ATOM     25  C   UNL     1       0.877   9.779  21.844  0.00  0.00    +0.000 A 
ENDBRANCH  19  25
ENDBRANCH   1  19
TORSDOF 5
ENDMDL
MODEL 3
REMARK VINA RESULT:      -6.4      0.947      1.048
REMARK  Name = 
REMARK  7 active torsions:
REMARK  status: ('A' for Active; 'I' for Inactive)
REMARK    1  A    between atoms: C_1  and  C_2
REMARK    2  A    between atoms: C_6  and  C_7
REMARK    3  A    between atoms: C_7  and  N_8
REMARK    4  A    between atoms: C_11  and  C_12
REMARK    5  A    between atoms: C_15  and  C_16
REMARK    6  A    between atoms: C_16  and  N_17
REMARK    7  A    between atoms: N_22  and  C_23
REMARK                            x       y       z     vdW  Elec       q    Type
REMARK                         _______ _______ _______ _____ _____    ______ ____
ROOT
ATOM      1  N   UNL     1       2.348   8.002  18.872  0.00  0.00    +0.000 NA
ATOM      2  C   UNL     1       2.031   8.872  17.731  0.00  0.00    +0.000 C 
ATOM      3  C   UNL     1       1.823  10.339  18.120  0.00  0.00    +0.000 C 
ATOM      4  C   UNL     1       0.749  10.556  19.190  0.00  0.00    +0.000 C 
ATOM      5  C   UNL     1       0.993   9.610  20.367  0.00  0.00    +0.000 C 
ATOM      6  C   UNL     1       1.410   8.180  19.997  0.00  0.00    +0.000 C 
ENDROOT
BRANCH   4   7
ATOM      7  C   UNL     1      -0.658  10.506  18.638  0.00  0.00    +0.000 A 
ATOM      8  N   UNL     1      -1.069   9.751  17.635  0.00  0.00    +0.000 NA
ATOM      9  N   UNL     1      -2.359  10.083  17.341  0.00  0.00    +0.000 NA
ATOM     10  C   UNL     1      -2.755  11.037  18.162  0.00  0.00    +0.000 A 
ATOM     11  N   UNL     1      -1.735  11.266  19.062  0.00  0.00    +0.000 N 
ATOM     12  C   UNL     1      -1.821  12.167  20.183  0.00  0.00    +0.000 C 
BRANCH  10  13
ATOM     13  C   UNL     1      -3.987  11.868  18.018  0.00  0.00    +0.000 C 
BRANCH  13  14
ATOM     14  N   UNL     1      -5.095  11.456  18.869  0.00  0.00    +0.000 N 
ATOM     15  C   UNL     1      -6.093  10.574  18.542  0.00  0.00    +0.000 A 
ATOM     16  C   UNL     1      -7.055  10.689  19.518  0.00  0.00    +0.000 A 
ATOM     17  C   UNL     1      -6.556  11.677  20.386  0.00  0.00    +0.000 A 
ATOM     18  N   UNL     1      -5.374  12.155  20.001  0.00  0.00    +0.000 NA
ENDBRANCH  13  14
ENDBRANCH  10  13
ENDBRANCH   4   7
BRANCH   1  19
ATOM     19  C   UNL     1       2.260   6.569  18.465  0.00  0.00    +0.000 C 
BRANCH  19  25
ATOM     20  C   UNL     1       2.498   4.199  20.634  0.00  0.00    +0.000 C 
ATOM     21  C   UNL     1       3.529   4.586  19.631  0.00  0.00    +0.000 A 
ATOM     22  C   UNL     1       4.722   3.823  19.376  0.00  0.00    +0.000 A 
ATOM     23  C   UNL     1       5.544   4.415  18.449  0.00  0.00    +0.000 A 
ATOM     24  S   UNL     1       4.884   5.871  17.856  0.00  0.00    +0.000 S 
ATOM     25  C   UNL     1       3.442   5.679  18.776  0.00  0.00    +0.000 A 
ENDBRANCH  19  25
ENDBRANCH   1  19
TORSDOF 5
ENDMDL
MODEL 4
REMARK VINA RESULT:      -6.4      0.907      1.309
REMARK  Name = 
REMARK  7 active torsions:
REMARK  status: ('A' for Active; 'I' for Inactive)
REMARK    1  A    between atoms: C_1  and  C_2
REMARK    2  A    between atoms: C_6  and  C_7
REMARK    3  A    between atoms: C_7  and  N_8
REMARK    4  A    between atoms: C_11  and  C_12
REMARK    5  A    between atoms: C_15  and  C_16
REMARK    6  A    between atoms: C_16  and  N_17
REMARK    7  A    between atoms: N_22  and  C_23
REMARK                            x       y       z     vdW  Elec       q    Type
REMARK                         _______ _______ _______ _____ _____    ______ ____
ROOT
ATOM      1  N   UNL     1       2.257   7.671  19.589  0.00  0.00    +0.000 NA
ATOM      2  C   UNL     1       2.004   8.089  18.204  0.00  0.00    +0.000 C 
ATOM      3  C   UNL     1       2.005   9.609  18.014  0.00  0.00    +0.000 C 
ATOM      4  C   UNL     1       1.018  10.353  18.918  0.00  0.00    +0.000 C 
ATOM      5  C   UNL     1       1.190   9.888  20.365  0.00  0.00    +0.000 C 
ATOM      6  C   UNL     1       1.402   8.380  20.560  0.00  0.00    +0.000 C 
ENDROOT
BRANCH   4   7
ATOM      7  C   UNL     1      -0.408  10.294  18.416  0.00  0.00    +0.000 A 
ATOM      8  N   UNL     1      -0.881   9.436  17.530  0.00  0.00    +0.000 NA
ATOM      9  N   UNL     1      -2.166   9.784  17.231  0.00  0.00    +0.000 NA
ATOM     10  C   UNL     1      -2.497  10.851  17.933  0.00  0.00    +0.000 A 
ATOM     11  N   UNL     1      -1.439  11.147  18.768  0.00  0.00    +0.000 N 
ATOM     12  C   UNL     1      -1.453  12.186  19.766  0.00  0.00    +0.000 C 
BRANCH  10  13
ATOM     13  C   UNL     1      -3.699  11.709  17.718  0.00  0.00    +0.000 C 
BRANCH  13  14
ATOM     14  N   UNL     1      -4.804  11.437  18.627  0.00  0.00    +0.000 N 
ATOM     15  C   UNL     1      -5.887  10.632  18.379  0.00  0.00    +0.000 A 
ATOM     16  C   UNL     1      -6.797  10.877  19.381  0.00  0.00    +0.000 A 
ATOM     17  C   UNL     1      -6.181  11.858  20.180  0.00  0.00    +0.000 A 
ATOM     18  N   UNL     1      -4.978  12.211  19.731  0.00  0.00    +0.000 NA
ENDBRANCH  13  14
ENDBRANCH  10  13
ENDBRANCH   4   7
BRANCH   1  19
ATOM     19  C   UNL     1       1.967   6.216  19.748  0.00  0.00    +0.000 C 
BRANCH  19  25
ATOM     20  C   UNL     1       5.075   5.585  19.178  0.00  0.00    +0.000 C 
ATOM     21  C   UNL     1       3.906   4.905  18.555  0.00  0.00    +0.000 A 
ATOM     22  C   UNL     1       4.012   3.731  17.730  0.00  0.00    +0.000 A 
ATOM     23  C   UNL     1       2.802   3.324  17.224  0.00  0.00    +0.000 A 
ATOM     24  S   UNL     1       1.527   4.325  17.755  0.00  0.00    +0.000 S 
ATOM     25  C   UNL     1       2.577   5.266  18.741  0.00  0.00    +0.000 A 
ENDBRANCH  19  25
ENDBRANCH   1  19
TORSDOF 5
ENDMDL
MODEL 5
REMARK VINA RESULT:      -6.3      4.125      9.410
REMARK  Name = 
REMARK  7 active torsions:
REMARK  status: ('A' for Active; 'I' for Inactive)
REMARK    1  A    between atoms: C_1  and  C_2
REMARK    2  A    between atoms: C_6  and  C_7
REMARK    3  A    between atoms: C_7  and  N_8
REMARK    4  A    between atoms: C_11  and  C_12
REMARK    5  A    between atoms: C_15  and  C_16
REMARK    6  A    between atoms: C_16  and  N_17
REMARK    7  A    between atoms: N_22  and  C_23
REMARK                            x       y       z     vdW  Elec       q    Type
REMARK                         _______ _______ _______ _____ _____    ______ ____
ROOT
ATOM      1  N   UNL     1       1.429   7.644  19.981  0.00  0.00    +0.000 NA
ATOM      2  C   UNL     1       2.271   7.708  18.779  0.00  0.00    +0.000 C 
ATOM      3  C   UNL     1       2.190   6.449  17.908  0.00  0.00    +0.000 C 
ATOM      4  C   UNL     1       2.527   5.153  18.651  0.00  0.00    +0.000 C 
ATOM      5  C   UNL     1       1.732   5.081  19.955  0.00  0.00    +0.000 C 
ATOM      6  C   UNL     1       1.624   6.395  20.743  0.00  0.00    +0.000 C 
ENDROOT
BRANCH   4   7
ATOM      7  C   UNL     1       4.015   4.936  18.822  0.00  0.00    +0.000 A 
ATOM      8  N   UNL     1       4.642   4.750  19.970  0.00  0.00    +0.000 NA
ATOM      9  N   UNL     1       5.986   4.730  19.733  0.00  0.00    +0.000 NA
ATOM     10  C   UNL     1       6.197   4.897  18.441  0.00  0.00    +0.000 A 
ATOM     11  N   UNL     1       4.966   4.936  17.817  0.00  0.00    +0.000 N 
ATOM     12  C   UNL     1       4.776   5.005  16.391  0.00  0.00    +0.000 C 
BRANCH  10  13
ATOM     13  C   UNL     1       7.507   5.203  17.794  0.00  0.00    +0.000 C 
BRANCH  13  14
ATOM     14  N   UNL     1       7.891   6.607  17.846  0.00  0.00    +0.000 N 
ATOM     15  C   UNL     1       8.480   7.255  18.902  0.00  0.00    +0.000 A 
ATOM     16  C   UNL     1       8.414   8.600  18.625  0.00  0.00    +0.000 A 
ATOM     17  C   UNL     1       7.753   8.669  17.385  0.00  0.00    +0.000 A 
ATOM     18  N   UNL     1       7.424   7.471  16.905  0.00  0.00    +0.000 NA
ENDBRANCH  13  14
ENDBRANCH  10  13
ENDBRANCH   4   7
BRANCH   1  19
ATOM     19  C   UNL     1       1.769   8.765  20.906  0.00  0.00    +0.000 C 
BRANCH  19  25
ATOM     20  C   UNL     1      -0.124   9.466  23.417  0.00  0.00    +0.000 C 
ATOM     21  C   UNL     1       0.014  10.260  22.165  0.00  0.00    +0.000 A 
ATOM     22  C   UNL     1      -0.561  11.566  21.980  0.00  0.00    +0.000 A 
ATOM     23  C   UNL     1      -0.346  12.069  20.721  0.00  0.00    +0.000 A 
ATOM     24  S   UNL     1       0.568  10.997  19.760  0.00  0.00    +0.000 S 
ATOM     25  C   UNL     1       0.759   9.880  21.055  0.00  0.00    +0.000 A 
ENDBRANCH  19  25
ENDBRANCH   1  19
TORSDOF 5
ENDMDL
MODEL 6
REMARK VINA RESULT:      -6.3      1.099      1.563
REMARK  Name = 
REMARK  7 active torsions:
REMARK  status: ('A' for Active; 'I' for Inactive)
REMARK    1  A    between atoms: C_1  and  C_2
REMARK    2  A    between atoms: C_6  and  C_7
REMARK    3  A    between atoms: C_7  and  N_8
REMARK    4  A    between atoms: C_11  and  C_12
REMARK    5  A    between atoms: C_15  and  C_16
REMARK    6  A    between atoms: C_16  and  N_17
REMARK    7  A    between atoms: N_22  and  C_23
REMARK                            x       y       z     vdW  Elec       q    Type
REMARK                         _______ _______ _______ _____ _____    ______ ____
ROOT
ATOM      1  N   UNL     1       2.370   8.140  18.791  0.00  0.00    +0.000 NA
ATOM      2  C   UNL     1       2.018   9.055  17.697  0.00  0.00    +0.000 C 
ATOM      3  C   UNL     1       1.724  10.485  18.167  0.00  0.00    +0.000 C 
ATOM      4  C   UNL     1       0.628  10.579  19.232  0.00  0.00    +0.000 C 
ATOM      5  C   UNL     1       0.910   9.582  20.356  0.00  0.00    +0.000 C 
ATOM      6  C   UNL     1       1.411   8.200  19.910  0.00  0.00    +0.000 C 
ENDROOT
BRANCH   4   7
ATOM      7  C   UNL     1      -0.769  10.484  18.658  0.00  0.00    +0.000 A 
ATOM      8  N   UNL     1      -1.184   9.589  17.779  0.00  0.00    +0.000 NA
ATOM      9  N   UNL     1      -2.455   9.908  17.401  0.00  0.00    +0.000 NA
ATOM     10  C   UNL     1      -2.835  10.995  18.045  0.00  0.00    +0.000 A 
ATOM     11  N   UNL     1      -1.827  11.335  18.924  0.00  0.00    +0.000 N 
ATOM     12  C   UNL     1      -1.906  12.409  19.882  0.00  0.00    +0.000 C 
BRANCH  10  13
ATOM     13  C   UNL     1      -4.034  11.829  17.736  0.00  0.00    +0.000 C 
BRANCH  13  14
ATOM     14  N   UNL     1      -5.206  11.522  18.544  0.00  0.00    +0.000 N 
ATOM     15  C   UNL     1      -5.564  12.120  19.726  0.00  0.00    +0.000 A 
ATOM     16  C   UNL     1      -6.564  11.349  20.270  0.00  0.00    +0.000 A 
ATOM     17  C   UNL     1      -6.734  10.298  19.351  0.00  0.00    +0.000 A 
ATOM     18  N   UNL     1      -5.913  10.386  18.305  0.00  0.00    +0.000 NA
ENDBRANCH  13  14
ENDBRANCH  10  13
ENDBRANCH   4   7
BRANCH   1  19
ATOM     19  C   UNL     1       2.367   6.731  18.301  0.00  0.00    +0.000 C 
BRANCH  19  25
ATOM     20  C   UNL     1       4.832   6.926  16.235  0.00  0.00    +0.000 C 
ATOM     21  C   UNL     1       4.794   6.130  17.494  0.00  0.00    +0.000 A 
ATOM     22  C   UNL     1       5.941   5.468  18.055  0.00  0.00    +0.000 A 
ATOM     23  C   UNL     1       5.641   4.751  19.186  0.00  0.00    +0.000 A 
ATOM     24  S   UNL     1       3.993   4.886  19.602  0.00  0.00    +0.000 S 
ATOM     25  C   UNL     1       3.681   5.982  18.313  0.00  0.00    +0.000 A 
ENDBRANCH  19  25
ENDBRANCH   1  19
TORSDOF 5
ENDMDL
MODEL 7
REMARK VINA RESULT:      -6.3      2.960      4.872
REMARK  Name = 
REMARK  7 active torsions:
REMARK  status: ('A' for Active; 'I' for Inactive)
REMARK    1  A    between atoms: C_1  and  C_2
REMARK    2  A    between atoms: C_6  and  C_7
REMARK    3  A    between atoms: C_7  and  N_8
REMARK    4  A    between atoms: C_11  and  C_12
REMARK    5  A    between atoms: C_15  and  C_16
REMARK    6  A    between atoms: C_16  and  N_17
REMARK    7  A    between atoms: N_22  and  C_23
REMARK                            x       y       z     vdW  Elec       q    Type
REMARK                         _______ _______ _______ _____ _____    ______ ____
ROOT
ATOM      1  N   UNL     1       4.298   4.126  18.518  0.00  0.00    +0.000 NA
ATOM      2  C   UNL     1       4.428   5.250  19.455  0.00  0.00    +0.000 C 
ATOM      3  C   UNL     1       3.144   5.543  20.239  0.00  0.00    +0.000 C 
ATOM      4  C   UNL     1       1.919   5.804  19.356  0.00  0.00    +0.000 C 
ATOM      5  C   UNL     1       1.791   4.697  18.309  0.00  0.00    +0.000 C 
ATOM      6  C   UNL     1       3.104   4.240  17.659  0.00  0.00    +0.000 C 
ENDROOT
BRANCH   4   7
ATOM      7  C   UNL     1       1.886   7.204  18.784  0.00  0.00    +0.000 A 
ATOM      8  N   UNL     1       2.238   7.546  17.558  0.00  0.00    +0.000 NA
ATOM      9  N   UNL     1       2.204   8.906  17.459  0.00  0.00    +0.000 NA
ATOM     10  C   UNL     1       1.826   9.412  18.618  0.00  0.00    +0.000 A 
ATOM     11  N   UNL     1       1.523   8.358  19.455  0.00  0.00    +0.000 N 
ATOM     12  C   UNL     1       0.975   8.500  20.780  0.00  0.00    +0.000 C 
BRANCH  10  13
ATOM     13  C   UNL     1       1.913  10.845  19.024  0.00  0.00    +0.000 C 
BRANCH  13  14
ATOM     14  N   UNL     1       0.681  11.600  18.837  0.00  0.00    +0.000 N 
ATOM     15  C   UNL     1      -0.554  11.087  18.534  0.00  0.00    +0.000 A 
ATOM     16  C   UNL     1      -1.349  12.153  18.185  0.00  0.00    +0.000 A 
ATOM     17  C   UNL     1      -0.501  13.271  18.293  0.00  0.00    +0.000 A 
ATOM     18  N   UNL     1       0.732  12.949  18.679  0.00  0.00    +0.000 NA
ENDBRANCH  13  14
ENDBRANCH  10  13
ENDBRANCH   4   7
BRANCH   1  19
ATOM     19  C   UNL     1       5.478   4.080  17.605  0.00  0.00    +0.000 C 
BRANCH  19  25
ATOM     20  C   UNL     1       5.158   6.675  15.723  0.00  0.00    +0.000 C 
ATOM     21  C   UNL     1       6.169   6.483  16.800  0.00  0.00    +0.000 A 
ATOM     22  C   UNL     1       7.044   7.525  17.269  0.00  0.00    +0.000 A 
ATOM     23  C   UNL     1       7.926   7.088  18.225  0.00  0.00    +0.000 A 
ATOM     24  S   UNL     1       7.698   5.437  18.590  0.00  0.00    +0.000 S 
ATOM     25  C   UNL     1       6.351   5.313  17.527  0.00  0.00    +0.000 A 
ENDBRANCH  19  25
ENDBRANCH   1  19
TORSDOF 5
ENDMDL
MODEL 8
REMARK VINA RESULT:      -6.2      3.739      8.879
REMARK  Name = 
REMARK  7 active torsions:
REMARK  status: ('A' for Active; 'I' for Inactive)
REMARK    1  A    between atoms: C_1  and  C_2
REMARK    2  A    between atoms: C_6  and  C_7
REMARK    3  A    between atoms: C_7  and  N_8
REMARK    4  A    between atoms: C_11  and  C_12
REMARK    5  A    between atoms: C_15  and  C_16
REMARK    6  A    between atoms: C_16  and  N_17
REMARK    7  A    between atoms: N_22  and  C_23
REMARK                            x       y       z     vdW  Elec       q    Type
REMARK                         _______ _______ _______ _____ _____    ______ ____
ROOT
ATOM      1  N   UNL     1      -1.311  12.537  20.857  0.00  0.00    +0.000 NA
ATOM      2  C   UNL     1      -0.066  12.174  21.548  0.00  0.00    +0.000 C 
ATOM      3  C   UNL     1       1.138  12.040  20.610  0.00  0.00    +0.000 C 
ATOM      4  C   UNL     1       0.929  11.046  19.463  0.00  0.00    +0.000 C 
ATOM      5  C   UNL     1      -0.400  11.335  18.763  0.00  0.00    +0.000 C 
ATOM      6  C   UNL     1      -1.578  11.680  19.686  0.00  0.00    +0.000 C 
ENDROOT
BRANCH   4   7
ATOM      7  C   UNL     1       1.102   9.604  19.888  0.00  0.00    +0.000 A 
ATOM      8  N   UNL     1       0.750   9.094  21.054  0.00  0.00    +0.000 NA
ATOM      9  N   UNL     1       1.190   7.804  21.115  0.00  0.00    +0.000 NA
ATOM     10  C   UNL     1       1.810   7.507  19.989  0.00  0.00    +0.000 A 
ATOM     11  N   UNL     1       1.692   8.595  19.147  0.00  0.00    +0.000 N 
ATOM     12  C   UNL     1       2.151   8.625  17.782  0.00  0.00    +0.000 C 
BRANCH  10  13
ATOM     13  C   UNL     1       2.666   6.309  19.742  0.00  0.00    +0.000 C 
BRANCH  13  14
ATOM     14  N   UNL     1       2.016   5.037  20.025  0.00  0.00    +0.000 N 
ATOM     15  C   UNL     1       2.093   4.322  21.193  0.00  0.00    +0.000 A 
ATOM     16  C   UNL     1       1.565   3.080  20.930  0.00  0.00    +0.000 A 
ATOM     17  C   UNL     1       1.208   3.133  19.570  0.00  0.00    +0.000 A 
ATOM     18  N   UNL     1       1.482   4.310  19.009  0.00  0.00    +0.000 NA
ENDBRANCH  13  14
ENDBRANCH  10  13
ENDBRANCH   4   7
BRANCH   1  19
ATOM     19  C   UNL     1      -2.474  12.376  21.778  0.00  0.00    +0.000 C 
BRANCH  19  25
ATOM     20  C   UNL     1      -4.174  12.488  24.512  0.00  0.00    +0.000 C 
ATOM     21  C   UNL     1      -3.540  13.642  23.818  0.00  0.00    +0.000 A 
ATOM     22  C   UNL     1      -3.452  14.963  24.381  0.00  0.00    +0.000 A 
ATOM     23  C   UNL     1      -2.877  15.870  23.526  0.00  0.00    +0.000 A 
ATOM     24  S   UNL     1      -2.411  15.143  22.055  0.00  0.00    +0.000 S 
ATOM     25  C   UNL     1      -2.900  13.581  22.585  0.00  0.00    +0.000 A 
ENDBRANCH  19  25
ENDBRANCH   1  19
TORSDOF 5
ENDMDL
MODEL 9
REMARK VINA RESULT:      -6.1      0.983      1.071
REMARK  Name = 
REMARK  7 active torsions:
REMARK  status: ('A' for Active; 'I' for Inactive)
REMARK    1  A    between atoms: C_1  and  C_2
REMARK    2  A    between atoms: C_6  and  C_7
REMARK    3  A    between atoms: C_7  and  N_8
REMARK    4  A    between atoms: C_11  and  C_12
REMARK    5  A    between atoms: C_15  and  C_16
REMARK    6  A    between atoms: C_16  and  N_17
REMARK    7  A    between atoms: N_22  and  C_23
REMARK                            x       y       z     vdW  Elec       q    Type
REMARK                         _______ _______ _______ _____ _____    ______ ____
ROOT
ATOM      1  N   UNL     1       2.386   7.780  18.971  0.00  0.00    +0.000 NA
ATOM      2  C   UNL     1       2.181   8.486  17.699  0.00  0.00    +0.000 C 
ATOM      3  C   UNL     1       1.986   9.997  17.862  0.00  0.00    +0.000 C 
ATOM      4  C   UNL     1       0.841  10.381  18.804  0.00  0.00    +0.000 C 
ATOM      5  C   UNL     1       0.968   9.607  20.116  0.00  0.00    +0.000 C 
ATOM      6  C   UNL     1       1.371   8.131  19.983  0.00  0.00    +0.000 C 
ENDROOT
BRANCH   4   7
ATOM      7  C   UNL     1      -0.522  10.278  18.155  0.00  0.00    +0.000 A 
ATOM      8  N   UNL     1      -0.949   9.277  17.407  0.00  0.00    +0.000 NA
ATOM      9  N   UNL     1      -2.168   9.607  16.892  0.00  0.00    +0.000 NA
ATOM     10  C   UNL     1      -2.505  10.809  17.321  0.00  0.00    +0.000 A 
ATOM     11  N   UNL     1      -1.528  11.227  18.202  0.00  0.00    +0.000 N 
ATOM     12  C   UNL     1      -1.585  12.450  18.963  0.00  0.00    +0.000 C 
BRANCH  10  13
ATOM     13  C   UNL     1      -3.618  11.652  16.795  0.00  0.00    +0.000 C 
BRANCH  13  14
ATOM     14  N   UNL     1      -4.858  11.554  17.552  0.00  0.00    +0.000 N 
ATOM     15  C   UNL     1      -5.217  10.541  18.404  0.00  0.00    +0.000 A 
ATOM     16  C   UNL     1      -6.554  10.714  18.680  0.00  0.00    +0.000 A 
ATOM     17  C   UNL     1      -6.920  11.850  17.936  0.00  0.00    +0.000 A 
ATOM     18  N   UNL     1      -5.905  12.364  17.243  0.00  0.00    +0.000 NA
ENDBRANCH  13  14
ENDBRANCH  10  13
ENDBRANCH   4   7
BRANCH   1  19
ATOM     19  C   UNL     1       2.288   6.306  18.762  0.00  0.00    +0.000 C 
BRANCH  19  25
ATOM     20  C   UNL     1       2.382   3.359  17.464  0.00  0.00    +0.000 C 
ATOM     21  C   UNL     1       3.440   4.402  17.365  0.00  0.00    +0.000 A 
ATOM     22  C   UNL     1       4.592   4.293  16.511  0.00  0.00    +0.000 A 
ATOM     23  C   UNL     1       5.452   5.354  16.639  0.00  0.00    +0.000 A 
ATOM     24  S   UNL     1       4.876   6.504  17.759  0.00  0.00    +0.000 S 
ATOM     25  C   UNL     1       3.419   5.627  18.021  0.00  0.00    +0.000 A 
ENDBRANCH  19  25
ENDBRANCH   1  19
TORSDOF 5
ENDMDL
