MODEL 1
REMARK VINA RESULT:      -7.7      0.000      0.000
REMARK  Name = 
REMARK  6 active torsions:
REMARK  status: ('A' for Active; 'I' for Inactive)
REMARK    1  A    between atoms: C_2  and  C_3
REMARK    2  A    between atoms: C_3  and  N_4
REMARK    3  A    between atoms: N_11  and  C_12
REMARK    4  A    between atoms: C_12  and  C_13
REMARK    5  A    between atoms: N_22  and  C_23
REMARK    6  A    between atoms: C_23  and  C_24
REMARK                            x       y       z     vdW  Elec       q    Type
REMARK                         _______ _______ _______ _____ _____    ______ ____
ROOT
ATOM      1  N   UNL     1       1.254  10.658  19.271  0.00  0.00    +0.000 N 
ATOM      2  C   UNL     1       1.787  10.191  18.069  0.00  0.00    +0.000 A 
ATOM      3  N   UNL     1       2.177   8.971  17.831  0.00  0.00    +0.000 NA
ATOM      4  C   UNL     1       1.996   8.153  18.896  0.00  0.00    +0.000 A 
ATOM      5  C   UNL     1       1.454   8.463  20.119  0.00  0.00    +0.000 A 
ATOM      6  N   UNL     1       1.441   7.373  20.930  0.00  0.00    +0.000 NA
ATOM      7  N   UNL     1       1.986   6.366  20.249  0.00  0.00    +0.000 NA
ATOM      8  N   UNL     1       2.308   6.828  19.013  0.00  0.00    +0.000 N 
ATOM      9  C   UNL     1       1.010   9.812  20.362  0.00  0.00    +0.000 A 
ATOM     10  O   UNL     1       0.455  10.184  21.394  0.00  0.00    +0.000 OA
ENDROOT
BRANCH   1  11
ATOM     11  C   UNL     1       0.912  12.067  19.404  0.00  0.00    +0.000 C 
BRANCH  11  13
ATOM     12  O   UNL     1      -0.609  13.186  17.913  0.00  0.00    +0.000 OA
ATOM     13  C   UNL     1      -0.460  12.346  18.797  0.00  0.00    +0.000 C 
ATOM     14  N   UNL     1      -1.498  11.639  19.351  0.00  0.00    +0.000 N 
ATOM     15  H   UNL     1      -1.338  11.031  20.154  0.00  0.00    +0.000 HD
BRANCH  14  16
ATOM     16  C   UNL     1      -2.875  11.757  18.890  0.00  0.00    +0.000 C 
BRANCH  16  17
ATOM     17  C   UNL     1      -3.205  10.756  17.776  0.00  0.00    +0.000 C 
ATOM     18  C   UNL     1      -2.009   9.980  17.250  0.00  0.00    +0.000 C 
ATOM     19  C   UNL     1      -2.441   9.657  15.842  0.00  0.00    +0.000 C 
ATOM     20  C   UNL     1      -3.220  10.892  15.446  0.00  0.00    +0.000 C 
ATOM     21  O   UNL     1      -3.775  11.447  16.647  0.00  0.00    +0.000 OA
ENDBRANCH  16  17
ENDBRANCH  14  16
ENDBRANCH  11  13
ENDBRANCH   1  11
BRANCH   8  22
ATOM     22  C   UNL     1       2.920   5.944  18.036  0.00  0.00    +0.000 C 
BRANCH  22  23
ATOM     23  C   UNL     1       4.421   6.010  18.121  0.00  0.00    +0.000 A 
ATOM     24  C   UNL     1       5.117   5.421  19.189  0.00  0.00    +0.000 A 
ATOM     25  C   UNL     1       6.513   5.366  19.179  0.00  0.00    +0.000 A 
ATOM     26  C   UNL     1       7.227   5.918  18.117  0.00  0.00    +0.000 A 
ATOM     27  C   UNL     1       6.549   6.562  17.085  0.00  0.00    +0.000 A 
ATOM     28  C   UNL     1       5.158   6.609  17.098  0.00  0.00    +0.000 A 
ATOM     29  F   UNL     1       4.525   7.235  16.095  0.00  0.00    +0.000 F 
ENDBRANCH  22  23
ENDBRANCH   8  22
TORSDOF 6
ENDMDL
MODEL 2
REMARK VINA RESULT:      -7.7      1.544      2.156
REMARK  Name = 
REMARK  6 active torsions:
REMARK  status: ('A' for Active; 'I' for Inactive)
REMARK    1  A    between atoms: C_2  and  C_3
REMARK    2  A    between atoms: C_3  and  N_4
REMARK    3  A    between atoms: N_11  and  C_12
REMARK    4  A    between atoms: C_12  and  C_13
REMARK    5  A    between atoms: N_22  and  C_23
REMARK    6  A    between atoms: C_23  and  C_24
REMARK                            x       y       z     vdW  Elec       q    Type
REMARK                         _______ _______ _______ _____ _____    ______ ____
ROOT
ATOM      1  N   UNL     1       0.978  10.670  19.633  0.00  0.00    +0.000 N 
ATOM      2  C   UNL     1       1.537  10.402  18.384  0.00  0.00    +0.000 A 
ATOM      3  N   UNL     1       2.046   9.263  18.005  0.00  0.00    +0.000 NA
ATOM      4  C   UNL     1       1.967   8.314  18.968  0.00  0.00    +0.000 A 
ATOM      5  C   UNL     1       1.415   8.425  20.221  0.00  0.00    +0.000 A 
ATOM      6  N   UNL     1       1.527   7.253  20.901  0.00  0.00    +0.000 NA
ATOM      7  N   UNL     1       2.160   6.392  20.106  0.00  0.00    +0.000 NA
ATOM      8  N   UNL     1       2.414   7.024  18.930  0.00  0.00    +0.000 N 
ATOM      9  C   UNL     1       0.839   9.684  20.620  0.00  0.00    +0.000 A 
ATOM     10  O   UNL     1       0.266   9.876  21.690  0.00  0.00    +0.000 OA
ENDROOT
BRANCH   1  11
ATOM     11  C   UNL     1       0.497  12.011  19.930  0.00  0.00    +0.000 C 
BRANCH  11  13
ATOM     12  O   UNL     1      -0.665  13.249  18.225  0.00  0.00    +0.000 OA
ATOM     13  C   UNL     1      -0.712  12.352  19.062  0.00  0.00    +0.000 C 
ATOM     14  N   UNL     1      -1.847  11.628  19.330  0.00  0.00    +0.000 N 
ATOM     15  H   UNL     1      -1.865  10.966  20.107  0.00  0.00    +0.000 HD
BRANCH  14  16
ATOM     16  C   UNL     1      -3.091  11.798  18.593  0.00  0.00    +0.000 C 
BRANCH  16  17
ATOM     17  C   UNL     1      -3.340  10.657  17.598  0.00  0.00    +0.000 C 
ATOM     18  C   UNL     1      -2.089  10.133  16.912  0.00  0.00    +0.000 C 
ATOM     19  C   UNL     1      -2.644   9.603  15.615  0.00  0.00    +0.000 C 
ATOM     20  C   UNL     1      -3.748  10.589  15.302  0.00  0.00    +0.000 C 
ATOM     21  O   UNL     1      -4.227  11.101  16.553  0.00  0.00    +0.000 OA
ENDBRANCH  16  17
ENDBRANCH  14  16
ENDBRANCH  11  13
ENDBRANCH   1  11
BRANCH   8  22
ATOM     22  C   UNL     1       3.098   6.326  17.855  0.00  0.00    +0.000 C 
BRANCH  22  23
ATOM     23  C   UNL     1       3.087   4.840  18.090  0.00  0.00    +0.000 A 
ATOM     24  C   UNL     1       4.183   4.186  18.675  0.00  0.00    +0.000 A 
ATOM     25  C   UNL     1       4.101   2.835  19.018  0.00  0.00    +0.000 A 
ATOM     26  C   UNL     1       2.935   2.117  18.758  0.00  0.00    +0.000 A 
ATOM     27  C   UNL     1       1.865   2.739  18.117  0.00  0.00    +0.000 A 
ATOM     28  C   UNL     1       1.951   4.087  17.784  0.00  0.00    +0.000 A 
ATOM     29  F   UNL     1       0.911   4.667  17.168  0.00  0.00    +0.000 F 
ENDBRANCH  22  23
ENDBRANCH   8  22
TORSDOF 6
ENDMDL
MODEL 3
REMARK VINA RESULT:      -7.6      3.462      8.133
REMARK  Name = 
REMARK  6 active torsions:
REMARK  status: ('A' for Active; 'I' for Inactive)
REMARK    1  A    between atoms: C_2  and  C_3
REMARK    2  A    between atoms: C_3  and  N_4
REMARK    3  A    between atoms: N_11  and  C_12
REMARK    4  A    between atoms: C_12  and  C_13
REMARK    5  A    between atoms: N_22  and  C_23
REMARK    6  A    between atoms: C_23  and  C_24
REMARK                            x       y       z     vdW  Elec       q    Type
REMARK                         _______ _______ _______ _____ _____    ______ ____
ROOT
ATOM      1  N   UNL     1       2.779   5.409  18.910  0.00  0.00    +0.000 N 
ATOM      2  C   UNL     1       2.926   6.360  17.901  0.00  0.00    +0.000 A 
ATOM      3  N   UNL     1       2.540   7.603  17.964  0.00  0.00    +0.000 NA
ATOM      4  C   UNL     1       1.971   7.910  19.154  0.00  0.00    +0.000 A 
ATOM      5  C   UNL     1       1.794   7.092  20.243  0.00  0.00    +0.000 A 
ATOM      6  N   UNL     1       1.183   7.762  21.255  0.00  0.00    +0.000 NA
ATOM      7  N   UNL     1       0.949   9.000  20.825  0.00  0.00    +0.000 NA
ATOM      8  N   UNL     1       1.438   9.099  19.561  0.00  0.00    +0.000 N 
ATOM      9  C   UNL     1       2.243   5.724  20.167  0.00  0.00    +0.000 A 
ATOM     10  O   UNL     1       2.191   4.924  21.099  0.00  0.00    +0.000 OA
ENDROOT
BRANCH   1  11
ATOM     11  C   UNL     1       3.212   4.039  18.673  0.00  0.00    +0.000 C 
BRANCH  11  13
ATOM     12  O   UNL     1       5.471   3.843  19.480  0.00  0.00    +0.000 OA
ATOM     13  C   UNL     1       4.729   3.977  18.510  0.00  0.00    +0.000 C 
ATOM     14  N   UNL     1       5.185   4.139  17.226  0.00  0.00    +0.000 N 
ATOM     15  H   UNL     1       4.534   4.352  16.470  0.00  0.00    +0.000 HD
BRANCH  14  16
ATOM     16  C   UNL     1       6.597   4.089  16.872  0.00  0.00    +0.000 C 
BRANCH  16  17
ATOM     17  C   UNL     1       7.231   5.485  16.806  0.00  0.00    +0.000 C 
ATOM     18  C   UNL     1       7.777   5.994  18.130  0.00  0.00    +0.000 C 
ATOM     19  C   UNL     1       7.680   7.488  17.954  0.00  0.00    +0.000 C 
ATOM     20  C   UNL     1       6.408   7.642  17.148  0.00  0.00    +0.000 C 
ATOM     21  O   UNL     1       6.254   6.449  16.366  0.00  0.00    +0.000 OA
ENDBRANCH  16  17
ENDBRANCH  14  16
ENDBRANCH  11  13
ENDBRANCH   1  11
BRANCH   8  22
ATOM     22  C   UNL     1       1.331  10.350  18.829  0.00  0.00    +0.000 C 
BRANCH  22  23
ATOM     23  C   UNL     1      -0.110  10.683  18.547  0.00  0.00    +0.000 A 
ATOM     24  C   UNL     1      -0.889   9.885  17.695  0.00  0.00    +0.000 A 
ATOM     25  C   UNL     1      -2.259  10.124  17.559  0.00  0.00    +0.000 A 
ATOM     26  C   UNL     1      -2.858  11.175  18.250  0.00  0.00    +0.000 A 
ATOM     27  C   UNL     1      -2.081  12.014  19.047  0.00  0.00    +0.000 A 
ATOM     28  C   UNL     1      -0.718  11.767  19.183  0.00  0.00    +0.000 A 
ATOM     29  F   UNL     1       0.011  12.586  19.954  0.00  0.00    +0.000 F 
ENDBRANCH  22  23
ENDBRANCH   8  22
TORSDOF 6
ENDMDL
MODEL 4
REMARK VINA RESULT:      -7.6      5.972      8.576
REMARK  Name = 
REMARK  6 active torsions:
REMARK  status: ('A' for Active; 'I' for Inactive)
REMARK    1  A    between atoms: C_2  and  C_3
REMARK    2  A    between atoms: C_3  and  N_4
REMARK    3  A    between atoms: N_11  and  C_12
REMARK    4  A    between atoms: C_12  and  C_13
REMARK    5  A    between atoms: N_22  and  C_23
REMARK    6  A    between atoms: C_23  and  C_24
REMARK                            x       y       z     vdW  Elec       q    Type
REMARK                         _______ _______ _______ _____ _____    ______ ____
ROOT
ATOM      1  N   UNL     1       6.420   6.712  16.917  0.00  0.00    +0.000 N 
ATOM      2  C   UNL     1       5.269   7.277  17.467  0.00  0.00    +0.000 A 
ATOM      3  N   UNL     1       4.140   6.660  17.672  0.00  0.00    +0.000 NA
ATOM      4  C   UNL     1       4.187   5.357  17.302  0.00  0.00    +0.000 A 
ATOM      5  C   UNL     1       5.252   4.663  16.784  0.00  0.00    +0.000 A 
ATOM      6  N   UNL     1       4.911   3.371  16.536  0.00  0.00    +0.000 NA
ATOM      7  N   UNL     1       3.630   3.229  16.873  0.00  0.00    +0.000 NA
ATOM      8  N   UNL     1       3.193   4.423  17.352  0.00  0.00    +0.000 N 
ATOM      9  C   UNL     1       6.501   5.353  16.580  0.00  0.00    +0.000 A 
ATOM     10  O   UNL     1       7.533   4.817  16.183  0.00  0.00    +0.000 OA
ENDROOT
BRANCH   1  11
ATOM     11  C   UNL     1       7.593   7.545  16.699  0.00  0.00    +0.000 C 
BRANCH  11  13
ATOM     12  O   UNL     1       8.370   7.161  18.944  0.00  0.00    +0.000 OA
ATOM     13  C   UNL     1       8.208   7.966  18.031  0.00  0.00    +0.000 C 
ATOM     14  N   UNL     1       8.503   9.302  18.142  0.00  0.00    +0.000 N 
ATOM     15  H   UNL     1       8.253   9.950  17.394  0.00  0.00    +0.000 HD
BRANCH  14  16
ATOM     16  C   UNL     1       9.112   9.886  19.328  0.00  0.00    +0.000 C 
BRANCH  16  17
ATOM     17  C   UNL     1       9.937  11.138  19.005  0.00  0.00    +0.000 C 
ATOM     18  C   UNL     1      10.777  11.657  20.161  0.00  0.00    +0.000 C 
ATOM     19  C   UNL     1      10.888  13.124  19.832  0.00  0.00    +0.000 C 
ATOM     20  C   UNL     1       9.537  13.427  19.222  0.00  0.00    +0.000 C 
ATOM     21  O   UNL     1       9.064  12.217  18.616  0.00  0.00    +0.000 OA
ENDBRANCH  16  17
ENDBRANCH  14  16
ENDBRANCH  11  13
ENDBRANCH   1  11
BRANCH   8  22
ATOM     22  C   UNL     1       1.821   4.572  17.807  0.00  0.00    +0.000 C 
BRANCH  22  23
ATOM     23  C   UNL     1       1.647   3.992  19.185  0.00  0.00    +0.000 A 
ATOM     24  C   UNL     1       1.107   2.710  19.373  0.00  0.00    +0.000 A 
ATOM     25  C   UNL     1       1.087   2.131  20.644  0.00  0.00    +0.000 A 
ATOM     26  C   UNL     1       1.580   2.834  21.741  0.00  0.00    +0.000 A 
ATOM     27  C   UNL     1       2.058   4.133  21.576  0.00  0.00    +0.000 A 
ATOM     28  C   UNL     1       2.081   4.702  20.306  0.00  0.00    +0.000 A 
ATOM     29  F   UNL     1       2.543   5.953  20.169  0.00  0.00    +0.000 F 
ENDBRANCH  22  23
ENDBRANCH   8  22
TORSDOF 6
ENDMDL
MODEL 5
REMARK VINA RESULT:      -7.6      3.822      8.375
REMARK  Name = 
REMARK  6 active torsions:
REMARK  status: ('A' for Active; 'I' for Inactive)
REMARK    1  A    between atoms: C_2  and  C_3
REMARK    2  A    between atoms: C_3  and  N_4
REMARK    3  A    between atoms: N_11  and  C_12
REMARK    4  A    between atoms: C_12  and  C_13
REMARK    5  A    between atoms: N_22  and  C_23
REMARK    6  A    between atoms: C_23  and  C_24
REMARK                            x       y       z     vdW  Elec       q    Type
REMARK                         _______ _______ _______ _____ _____    ______ ____
ROOT
ATOM      1  N   UNL     1       2.953   5.939  18.877  0.00  0.00    +0.000 N 
ATOM      2  C   UNL     1       3.021   6.943  17.911  0.00  0.00    +0.000 A 
ATOM      3  N   UNL     1       2.478   8.124  18.000  0.00  0.00    +0.000 NA
ATOM      4  C   UNL     1       1.824   8.306  19.172  0.00  0.00    +0.000 A 
ATOM      5  C   UNL     1       1.706   7.428  20.221  0.00  0.00    +0.000 A 
ATOM      6  N   UNL     1       0.971   7.973  21.226  0.00  0.00    +0.000 NA
ATOM      7  N   UNL     1       0.600   9.189  20.830  0.00  0.00    +0.000 NA
ATOM      8  N   UNL     1       1.127   9.402  19.595  0.00  0.00    +0.000 N 
ATOM      9  C   UNL     1       2.328   6.132  20.117  0.00  0.00    +0.000 A 
ATOM     10  O   UNL     1       2.338   5.294  21.016  0.00  0.00    +0.000 OA
ENDROOT
BRANCH   1  11
ATOM     11  C   UNL     1       3.568   4.646  18.612  0.00  0.00    +0.000 C 
BRANCH  11  13
ATOM     12  O   UNL     1       5.868   5.316  18.840  0.00  0.00    +0.000 OA
ATOM     13  C   UNL     1       5.002   4.824  18.120  0.00  0.00    +0.000 C 
ATOM     14  N   UNL     1       5.224   4.451  16.818  0.00  0.00    +0.000 N 
ATOM     15  H   UNL     1       4.449   4.146  16.229  0.00  0.00    +0.000 HD
BRANCH  14  16
ATOM     16  C   UNL     1       6.531   4.529  16.181  0.00  0.00    +0.000 C 
BRANCH  16  17
ATOM     17  C   UNL     1       6.437   4.931  14.703  0.00  0.00    +0.000 C 
ATOM     18  C   UNL     1       6.200   3.772  13.749  0.00  0.00    +0.000 C 
ATOM     19  C   UNL     1       6.814   4.289  12.473  0.00  0.00    +0.000 C 
ATOM     20  C   UNL     1       7.999   5.084  12.977  0.00  0.00    +0.000 C 
ATOM     21  O   UNL     1       7.662   5.563  14.286  0.00  0.00    +0.000 OA
ENDBRANCH  16  17
ENDBRANCH  14  16
ENDBRANCH  11  13
ENDBRANCH   1  11
BRANCH   8  22
ATOM     22  C   UNL     1       0.892  10.658  18.904  0.00  0.00    +0.000 C 
BRANCH  22  23
ATOM     23  C   UNL     1      -0.550  10.780  18.490  0.00  0.00    +0.000 A 
ATOM     24  C   UNL     1      -1.107   9.923  17.527  0.00  0.00    +0.000 A 
ATOM     25  C   UNL     1      -2.478   9.955  17.261  0.00  0.00    +0.000 A 
ATOM     26  C   UNL     1      -3.301  10.857  17.932  0.00  0.00    +0.000 A 
ATOM     27  C   UNL     1      -2.748  11.756  18.842  0.00  0.00    +0.000 A 
ATOM     28  C   UNL     1      -1.382  11.716  19.107  0.00  0.00    +0.000 A 
ATOM     29  F   UNL     1      -0.871  12.591  19.985  0.00  0.00    +0.000 F 
ENDBRANCH  22  23
ENDBRANCH   8  22
TORSDOF 6
ENDMDL
MODEL 6
REMARK VINA RESULT:      -7.6      3.660      8.325
REMARK  Name = 
REMARK  6 active torsions:
REMARK  status: ('A' for Active; 'I' for Inactive)
REMARK    1  A    between atoms: C_2  and  C_3
REMARK    2  A    between atoms: C_3  and  N_4
REMARK    3  A    between atoms: N_11  and  C_12
REMARK    4  A    between atoms: C_12  and  C_13
REMARK    5  A    between atoms: N_22  and  C_23
REMARK    6  A    between atoms: C_23  and  C_24
REMARK                            x       y       z     vdW  Elec       q    Type
REMARK                         _______ _______ _______ _____ _____    ______ ____
ROOT
ATOM      1  N   UNL     1       2.896   5.833  18.882  0.00  0.00    +0.000 N 
ATOM      2  C   UNL     1       2.978   6.871  17.953  0.00  0.00    +0.000 A 
ATOM      3  N   UNL     1       2.478   8.065  18.099  0.00  0.00    +0.000 NA
ATOM      4  C   UNL     1       1.856   8.225  19.292  0.00  0.00    +0.000 A 
ATOM      5  C   UNL     1       1.730   7.310  20.309  0.00  0.00    +0.000 A 
ATOM      6  N   UNL     1       1.036   7.841  21.350  0.00  0.00    +0.000 NA
ATOM      7  N   UNL     1       0.698   9.083  21.009  0.00  0.00    +0.000 NA
ATOM      8  N   UNL     1       1.206   9.325  19.772  0.00  0.00    +0.000 N 
ATOM      9  C   UNL     1       2.304   5.999  20.142  0.00  0.00    +0.000 A 
ATOM     10  O   UNL     1       2.304   5.127  21.008  0.00  0.00    +0.000 OA
ENDROOT
BRANCH   1  11
ATOM     11  C   UNL     1       3.459   4.532  18.553  0.00  0.00    +0.000 C 
BRANCH  11  13
ATOM     12  O   UNL     1       5.801   4.958  18.902  0.00  0.00    +0.000 OA
ATOM     13  C   UNL     1       4.912   4.673  18.105  0.00  0.00    +0.000 C 
ATOM     14  N   UNL     1       5.125   4.515  16.759  0.00  0.00    +0.000 N 
ATOM     15  H   UNL     1       4.338   4.383  16.123  0.00  0.00    +0.000 HD
BRANCH  14  16
ATOM     16  C   UNL     1       6.445   4.594  16.149  0.00  0.00    +0.000 C 
BRANCH  16  17
ATOM     17  C   UNL     1       6.378   4.944  14.657  0.00  0.00    +0.000 C 
ATOM     18  C   UNL     1       6.187   3.750  13.736  0.00  0.00    +0.000 C 
ATOM     19  C   UNL     1       6.822   4.236  12.458  0.00  0.00    +0.000 C 
ATOM     20  C   UNL     1       7.979   5.071  12.963  0.00  0.00    +0.000 C 
ATOM     21  O   UNL     1       7.601   5.587  14.246  0.00  0.00    +0.000 OA
ENDBRANCH  16  17
ENDBRANCH  14  16
ENDBRANCH  11  13
ENDBRANCH   1  11
BRANCH   8  22
ATOM     22  C   UNL     1       1.001  10.615  19.135  0.00  0.00    +0.000 C 
BRANCH  22  23
ATOM     23  C   UNL     1      -0.467  10.919  19.002  0.00  0.00    +0.000 A 
ATOM     24  C   UNL     1      -1.102  11.834  19.857  0.00  0.00    +0.000 A 
ATOM     25  C   UNL     1      -2.428  12.212  19.629  0.00  0.00    +0.000 A 
ATOM     26  C   UNL     1      -3.139  11.663  18.564  0.00  0.00    +0.000 A 
ATOM     27  C   UNL     1      -2.539  10.705  17.749  0.00  0.00    +0.000 A 
ATOM     28  C   UNL     1      -1.216  10.337  17.978  0.00  0.00    +0.000 A 
ATOM     29  F   UNL     1      -0.658   9.412  17.183  0.00  0.00    +0.000 F 
ENDBRANCH  22  23
ENDBRANCH   8  22
TORSDOF 6
ENDMDL
MODEL 7
REMARK VINA RESULT:      -7.6      3.712      8.001
REMARK  Name = 
REMARK  6 active torsions:
REMARK  status: ('A' for Active; 'I' for Inactive)
REMARK    1  A    between atoms: C_2  and  C_3
REMARK    2  A    between atoms: C_3  and  N_4
REMARK    3  A    between atoms: N_11  and  C_12
REMARK    4  A    between atoms: C_12  and  C_13
REMARK    5  A    between atoms: N_22  and  C_23
REMARK    6  A    between atoms: C_23  and  C_24
REMARK                            x       y       z     vdW  Elec       q    Type
REMARK                         _______ _______ _______ _____ _____    ______ ____
ROOT
ATOM      1  N   UNL     1       4.156   6.083  18.390  0.00  0.00    +0.000 N 
ATOM      2  C   UNL     1       3.391   5.982  19.552  0.00  0.00    +0.000 A 
ATOM      3  N   UNL     1       2.458   6.812  19.924  0.00  0.00    +0.000 NA
ATOM      4  C   UNL     1       2.277   7.820  19.037  0.00  0.00    +0.000 A 
ATOM      5  C   UNL     1       2.927   8.025  17.845  0.00  0.00    +0.000 A 
ATOM      6  N   UNL     1       2.469   9.149  17.233  0.00  0.00    +0.000 NA
ATOM      7  N   UNL     1       1.541   9.681  18.027  0.00  0.00    +0.000 NA
ATOM      8  N   UNL     1       1.409   8.872  19.111  0.00  0.00    +0.000 N 
ATOM      9  C   UNL     1       3.943   7.088  17.436  0.00  0.00    +0.000 A 
ATOM     10  O   UNL     1       4.543   7.140  16.364  0.00  0.00    +0.000 OA
ENDROOT
BRANCH   1  11
ATOM     11  C   UNL     1       5.203   5.105  18.134  0.00  0.00    +0.000 C 
BRANCH  11  13
ATOM     12  O   UNL     1       5.334   3.209  19.611  0.00  0.00    +0.000 OA
ATOM     13  C   UNL     1       4.785   3.727  18.641  0.00  0.00    +0.000 C 
ATOM     14  N   UNL     1       3.809   3.104  17.904  0.00  0.00    +0.000 N 
ATOM     15  H   UNL     1       3.460   3.531  17.045  0.00  0.00    +0.000 HD
BRANCH  14  16
ATOM     16  C   UNL     1       3.269   1.796  18.245  0.00  0.00    +0.000 C 
BRANCH  16  17
ATOM     17  C   UNL     1       2.039   1.893  19.157  0.00  0.00    +0.000 C 
ATOM     18  C   UNL     1       1.112   3.057  18.846  0.00  0.00    +0.000 C 
ATOM     19  C   UNL     1       0.472   3.312  20.187  0.00  0.00    +0.000 C 
ATOM     20  C   UNL     1       1.601   3.022  21.151  0.00  0.00    +0.000 C 
ATOM     21  O   UNL     1       2.453   2.052  20.528  0.00  0.00    +0.000 OA
ENDBRANCH  16  17
ENDBRANCH  14  16
ENDBRANCH  11  13
ENDBRANCH   1  11
BRANCH   8  22
ATOM     22  C   UNL     1       0.456   9.199  20.158  0.00  0.00    +0.000 C 
BRANCH  22  23
ATOM     23  C   UNL     1      -0.051  10.607  20.000  0.00  0.00    +0.000 A 
ATOM     24  C   UNL     1       0.591  11.687  20.626  0.00  0.00    +0.000 A 
ATOM     25  C   UNL     1       0.195  12.999  20.353  0.00  0.00    +0.000 A 
ATOM     26  C   UNL     1      -0.860  13.244  19.476  0.00  0.00    +0.000 A 
ATOM     27  C   UNL     1      -1.546  12.176  18.901  0.00  0.00    +0.000 A 
ATOM     28  C   UNL     1      -1.143  10.872  19.171  0.00  0.00    +0.000 A 
ATOM     29  F   UNL     1      -1.818   9.859  18.609  0.00  0.00    +0.000 F 
ENDBRANCH  22  23
ENDBRANCH   8  22
TORSDOF 6
ENDMDL
MODEL 8
REMARK VINA RESULT:      -7.6      3.283      8.062
REMARK  Name = 
REMARK  6 active torsions:
REMARK  status: ('A' for Active; 'I' for Inactive)
REMARK    1  A    between atoms: C_2  and  C_3
REMARK    2  A    between atoms: C_3  and  N_4
REMARK    3  A    between atoms: N_11  and  C_12
REMARK    4  A    between atoms: C_12  and  C_13
REMARK    5  A    between atoms: N_22  and  C_23
REMARK    6  A    between atoms: C_23  and  C_24
REMARK                            x       y       z     vdW  Elec       q    Type
REMARK                         _______ _______ _______ _____ _____    ______ ____
ROOT
ATOM      1  N   UNL     1       2.640   5.594  18.845  0.00  0.00    +0.000 N 
ATOM      2  C   UNL     1       2.694   6.588  17.868  0.00  0.00    +0.000 A 
ATOM      3  N   UNL     1       2.306   7.823  18.015  0.00  0.00    +0.000 NA
ATOM      4  C   UNL     1       1.837   8.074  19.261  0.00  0.00    +0.000 A 
ATOM      5  C   UNL     1       1.759   7.210  20.325  0.00  0.00    +0.000 A 
ATOM      6  N   UNL     1       1.230   7.831  21.412  0.00  0.00    +0.000 NA
ATOM      7  N   UNL     1       0.950   9.083  21.055  0.00  0.00    +0.000 NA
ATOM      8  N   UNL     1       1.331   9.240  19.760  0.00  0.00    +0.000 N 
ATOM      9  C   UNL     1       2.210   5.851  20.154  0.00  0.00    +0.000 A 
ATOM     10  O   UNL     1       2.243   5.014  21.053  0.00  0.00    +0.000 OA
ENDROOT
BRANCH   1  11
ATOM     11  C   UNL     1       3.063   4.241  18.515  0.00  0.00    +0.000 C 
BRANCH  11  13
ATOM     12  O   UNL     1       5.288   4.063  19.414  0.00  0.00    +0.000 OA
ATOM     13  C   UNL     1       4.584   4.163  18.412  0.00  0.00    +0.000 C 
ATOM     14  N   UNL     1       5.090   4.272  17.141  0.00  0.00    +0.000 N 
ATOM     15  H   UNL     1       4.470   4.460  16.353  0.00  0.00    +0.000 HD
BRANCH  14  16
ATOM     16  C   UNL     1       6.513   4.201  16.843  0.00  0.00    +0.000 C 
BRANCH  16  17
ATOM     17  C   UNL     1       7.165   5.588  16.774  0.00  0.00    +0.000 C 
ATOM     18  C   UNL     1       7.773   6.066  18.083  0.00  0.00    +0.000 C 
ATOM     19  C   UNL     1       7.691   7.564  17.936  0.00  0.00    +0.000 C 
ATOM     20  C   UNL     1       6.390   7.750  17.185  0.00  0.00    +0.000 C 
ATOM     21  O   UNL     1       6.186   6.574  16.391  0.00  0.00    +0.000 OA
ENDBRANCH  16  17
ENDBRANCH  14  16
ENDBRANCH  11  13
ENDBRANCH   1  11
BRANCH   8  22
ATOM     22  C   UNL     1       1.152  10.518  19.093  0.00  0.00    +0.000 C 
BRANCH  22  23
ATOM     23  C   UNL     1      -0.308  10.863  18.979  0.00  0.00    +0.000 A 
ATOM     24  C   UNL     1      -0.900  11.818  19.820  0.00  0.00    +0.000 A 
ATOM     25  C   UNL     1      -2.217  12.230  19.606  0.00  0.00    +0.000 A 
ATOM     26  C   UNL     1      -2.964  11.675  18.569  0.00  0.00    +0.000 A 
ATOM     27  C   UNL     1      -2.409  10.679  17.769  0.00  0.00    +0.000 A 
ATOM     28  C   UNL     1      -1.093  10.277  17.984  0.00  0.00    +0.000 A 
ATOM     29  F   UNL     1      -0.578   9.316  17.204  0.00  0.00    +0.000 F 
ENDBRANCH  22  23
ENDBRANCH   8  22
TORSDOF 6
ENDMDL
MODEL 9
REMARK VINA RESULT:      -7.5      6.081      8.890
REMARK  Name = 
REMARK  6 active torsions:
REMARK  status: ('A' for Active; 'I' for Inactive)
REMARK    1  A    between atoms: C_2  and  C_3
REMARK    2  A    between atoms: C_3  and  N_4
REMARK    3  A    between atoms: N_11  and  C_12
REMARK    4  A    between atoms: C_12  and  C_13
REMARK    5  A    between atoms: N_22  and  C_23
REMARK    6  A    between atoms: C_23  and  C_24
REMARK                            x       y       z     vdW  Elec       q    Type
REMARK                         _______ _______ _______ _____ _____    ______ ____
ROOT
ATOM      1  N   UNL     1       6.912   5.892  18.359  0.00  0.00    +0.000 N 
ATOM      2  C   UNL     1       5.738   6.250  19.023  0.00  0.00    +0.000 A 
ATOM      3  N   UNL     1       4.547   5.790  18.766  0.00  0.00    +0.000 NA
ATOM      4  C   UNL     1       4.548   4.879  17.764  0.00  0.00    +0.000 A 
ATOM      5  C   UNL     1       5.622   4.408  17.051  0.00  0.00    +0.000 A 
ATOM      6  N   UNL     1       5.223   3.499  16.122  0.00  0.00    +0.000 NA
ATOM      7  N   UNL     1       3.899   3.392  16.217  0.00  0.00    +0.000 NA
ATOM      8  N   UNL     1       3.488   4.212  17.219  0.00  0.00    +0.000 N 
ATOM      9  C   UNL     1       6.938   4.911  17.358  0.00  0.00    +0.000 A 
ATOM     10  O   UNL     1       7.973   4.515  16.827  0.00  0.00    +0.000 OA
ENDROOT
BRANCH   1  11
ATOM     11  C   UNL     1       8.166   6.534  18.723  0.00  0.00    +0.000 C 
BRANCH  11  13
ATOM     12  O   UNL     1       7.700   8.294  17.150  0.00  0.00    +0.000 OA
ATOM     13  C   UNL     1       8.193   7.978  18.230  0.00  0.00    +0.000 C 
ATOM     14  N   UNL     1       8.850   8.863  19.048  0.00  0.00    +0.000 N 
ATOM     15  H   UNL     1       9.333   8.532  19.884  0.00  0.00    +0.000 HD
BRANCH  14  16
ATOM     16  C   UNL     1       8.961  10.285  18.754  0.00  0.00    +0.000 C 
BRANCH  16  17
ATOM     17  C   UNL     1      10.382  10.818  18.981  0.00  0.00    +0.000 C 
ATOM     18  C   UNL     1      10.523  11.751  20.173  0.00  0.00    +0.000 C 
ATOM     19  C   UNL     1      11.702  12.598  19.768  0.00  0.00    +0.000 C 
ATOM     20  C   UNL     1      11.512  12.733  18.272  0.00  0.00    +0.000 C 
ATOM     21  O   UNL     1      10.821  11.559  17.825  0.00  0.00    +0.000 OA
ENDBRANCH  16  17
ENDBRANCH  14  16
ENDBRANCH  11  13
ENDBRANCH   1  11
BRANCH   8  22
ATOM     22  C   UNL     1       2.079   4.303  17.561  0.00  0.00    +0.000 C 
BRANCH  22  23
ATOM     23  C   UNL     1       1.821   3.726  18.927  0.00  0.00    +0.000 A 
ATOM     24  C   UNL     1       1.794   2.338  19.138  0.00  0.00    +0.000 A 
ATOM     25  C   UNL     1       1.697   1.822  20.433  0.00  0.00    +0.000 A 
ATOM     26  C   UNL     1       1.601   2.683  21.525  0.00  0.00    +0.000 A 
ATOM     27  C   UNL     1       1.561   4.061  21.320  0.00  0.00    +0.000 A 
ATOM     28  C   UNL     1       1.663   4.569  20.029  0.00  0.00    +0.000 A 
ATOM     29  F   UNL     1       1.621   5.898  19.854  0.00  0.00    +0.000 F 
ENDBRANCH  22  23
ENDBRANCH   8  22
TORSDOF 6
ENDMDL
