MODEL 1
REMARK VINA RESULT:      -8.6      0.000      0.000
REMARK  Name = 
REMARK  5 active torsions:
REMARK  status: ('A' for Active; 'I' for Inactive)
REMARK    1  A    between atoms: C_1  and  O_2
REMARK    2  A    between atoms: O_2  and  C_3
REMARK    3  A    between atoms: C_6  and  N_7
REMARK    4  A    between atoms: C_9  and  C_10
REMARK    5  A    between atoms: C_10  and  N_11
REMARK                            x       y       z     vdW  Elec       q    Type
REMARK                         _______ _______ _______ _____ _____    ______ ____
ROOT
ATOM      1  C   UNL     1       6.761   6.249  16.477  0.00  0.00    +0.000 C 
ENDROOT
BRANCH   1   2
ATOM      2  N   UNL     1       5.482   5.673  16.878  0.00  0.00    +0.000 NA
ATOM      3  C   UNL     1       4.668   6.404  17.863  0.00  0.00    +0.000 C 
ATOM      4  C   UNL     1       3.157   5.916  17.834  0.00  0.00    +0.000 C 
ATOM      5  C   UNL     1       3.154   4.430  18.075  0.00  0.00    +0.000 A 
ATOM      6  C   UNL     1       4.375   3.802  17.955  0.00  0.00    +0.000 A 
ATOM      7  N   UNL     1       4.572   3.255  19.208  0.00  0.00    +0.000 N 
ATOM      8  C   UNL     1       3.347   3.195  19.868  0.00  0.00    +0.000 A 
ATOM      9  C   UNL     1       2.998   2.817  21.168  0.00  0.00    +0.000 A 
ATOM     10  C   UNL     1       1.636   2.601  21.415  0.00  0.00    +0.000 A 
ATOM     11  C   UNL     1       0.683   2.751  20.407  0.00  0.00    +0.000 A 
ATOM     12  C   UNL     1       1.039   3.334  19.186  0.00  0.00    +0.000 A 
ATOM     13  C   UNL     1       2.389   3.617  18.946  0.00  0.00    +0.000 A 
ATOM     14  C   UNL     1       5.444   4.206  16.998  0.00  0.00    +0.000 C 
ATOM     15  H   UNL     1       5.461   3.032  19.620  0.00  0.00    +0.000 HD
ENDBRANCH   1   2
BRANCH   1  18
ATOM     16  N   UNL     1       8.457   8.857  18.428  0.00  0.00    +0.000 N 
ATOM     17  C   UNL     1       7.668   8.539  17.343  0.00  0.00    +0.000 A 
ATOM     18  C   UNL     1       7.448   7.173  17.450  0.00  0.00    +0.000 A 
ATOM     19  N   UNL     1       8.076   6.719  18.571  0.00  0.00    +0.000 NA
ATOM     20  N   UNL     1       8.689   7.738  19.155  0.00  0.00    +0.000 NA
BRANCH  16  24
ATOM     21  C   UNL     1      10.166  12.583  19.532  0.00  0.00    +0.000 A 
ATOM     22  C   UNL     1       9.942  11.599  20.503  0.00  0.00    +0.000 A 
ATOM     23  C   UNL     1       9.369  10.363  20.164  0.00  0.00    +0.000 A 
ATOM     24  C   UNL     1       8.995  10.114  18.839  0.00  0.00    +0.000 A 
ATOM     25  C   UNL     1       9.173  11.126  17.877  0.00  0.00    +0.000 A 
ATOM     26  C   UNL     1       9.754  12.350  18.224  0.00  0.00    +0.000 A 
BRANCH  21  28
ATOM     27  C   UNL     1      10.293  14.240  21.217  0.00  0.00    +0.000 C 
ATOM     28  O   UNL     1      10.771  13.726  19.976  0.00  0.00    +0.000 OA
ENDBRANCH  21  28
ENDBRANCH  16  24
ENDBRANCH   1  18
TORSDOF 4
ENDMDL
MODEL 2
REMARK VINA RESULT:      -8.5      0.534      1.064
REMARK  Name = 
REMARK  5 active torsions:
REMARK  status: ('A' for Active; 'I' for Inactive)
REMARK    1  A    between atoms: C_1  and  O_2
REMARK    2  A    between atoms: O_2  and  C_3
REMARK    3  A    between atoms: C_6  and  N_7
REMARK    4  A    between atoms: C_9  and  C_10
REMARK    5  A    between atoms: C_10  and  N_11
REMARK                            x       y       z     vdW  Elec       q    Type
REMARK                         _______ _______ _______ _____ _____    ______ ____
ROOT
ATOM      1  C   UNL     1       6.944   6.241  16.524  0.00  0.00    +0.000 C 
ENDROOT
BRANCH   1   2
ATOM      2  N   UNL     1       5.641   5.688  16.876  0.00  0.00    +0.000 NA
ATOM      3  C   UNL     1       4.811   6.424  17.845  0.00  0.00    +0.000 C 
ATOM      4  C   UNL     1       3.292   5.970  17.761  0.00  0.00    +0.000 C 
ATOM      5  C   UNL     1       3.249   4.482  17.981  0.00  0.00    +0.000 A 
ATOM      6  C   UNL     1       4.459   3.829  17.892  0.00  0.00    +0.000 A 
ATOM      7  N   UNL     1       4.604   3.261  19.143  0.00  0.00    +0.000 N 
ATOM      8  C   UNL     1       3.357   3.219  19.762  0.00  0.00    +0.000 A 
ATOM      9  C   UNL     1       2.959   2.833  21.045  0.00  0.00    +0.000 A 
ATOM     10  C   UNL     1       1.585   2.643  21.245  0.00  0.00    +0.000 A 
ATOM     11  C   UNL     1       0.669   2.827  20.210  0.00  0.00    +0.000 A 
ATOM     12  C   UNL     1       1.076   3.418  19.009  0.00  0.00    +0.000 A 
ATOM     13  C   UNL     1       2.439   3.674  18.816  0.00  0.00    +0.000 A 
ATOM     14  C   UNL     1       5.567   4.222  16.974  0.00  0.00    +0.000 C 
ATOM     15  H   UNL     1       5.474   3.012  19.579  0.00  0.00    +0.000 HD
ENDBRANCH   1   2
BRANCH   1  18
ATOM     16  N   UNL     1       8.480   8.993  18.410  0.00  0.00    +0.000 N 
ATOM     17  C   UNL     1       7.740   8.598  17.315  0.00  0.00    +0.000 A 
ATOM     18  C   UNL     1       7.565   7.231  17.476  0.00  0.00    +0.000 A 
ATOM     19  N   UNL     1       8.168   6.850  18.637  0.00  0.00    +0.000 NA
ATOM     20  N   UNL     1       8.726   7.915  19.194  0.00  0.00    +0.000 NA
BRANCH  16  24
ATOM     21  C   UNL     1       9.815  12.827  19.648  0.00  0.00    +0.000 A 
ATOM     22  C   UNL     1       9.325  12.640  18.350  0.00  0.00    +0.000 A 
ATOM     23  C   UNL     1       8.887  11.380  17.915  0.00  0.00    +0.000 A 
ATOM     24  C   UNL     1       8.959  10.285  18.782  0.00  0.00    +0.000 A 
ATOM     25  C   UNL     1       9.502  10.467  20.068  0.00  0.00    +0.000 A 
ATOM     26  C   UNL     1       9.926  11.729  20.495  0.00  0.00    +0.000 A 
BRANCH  21  28
ATOM     27  C   UNL     1      10.061  15.065  18.917  0.00  0.00    +0.000 C 
ATOM     28  O   UNL     1      10.169  14.109  19.969  0.00  0.00    +0.000 OA
ENDBRANCH  21  28
ENDBRANCH  16  24
ENDBRANCH   1  18
TORSDOF 4
ENDMDL
MODEL 3
REMARK VINA RESULT:      -7.8      1.151      1.388
REMARK  Name = 
REMARK  5 active torsions:
REMARK  status: ('A' for Active; 'I' for Inactive)
REMARK    1  A    between atoms: C_1  and  O_2
REMARK    2  A    between atoms: O_2  and  C_3
REMARK    3  A    between atoms: C_6  and  N_7
REMARK    4  A    between atoms: C_9  and  C_10
REMARK    5  A    between atoms: C_10  and  N_11
REMARK                            x       y       z     vdW  Elec       q    Type
REMARK                         _______ _______ _______ _____ _____    ______ ____
ROOT
ATOM      1  C   UNL     1       7.069   6.557  16.604  0.00  0.00    +0.000 C 
ENDROOT
BRANCH   1   2
ATOM      2  N   UNL     1       6.212   5.520  17.169  0.00  0.00    +0.000 NA
ATOM      3  C   UNL     1       4.917   5.258  16.519  0.00  0.00    +0.000 C 
ATOM      4  C   UNL     1       4.342   3.839  16.939  0.00  0.00    +0.000 C 
ATOM      5  C   UNL     1       4.247   3.812  18.441  0.00  0.00    +0.000 A 
ATOM      6  C   UNL     1       4.926   4.814  19.101  0.00  0.00    +0.000 A 
ATOM      7  N   UNL     1       3.926   5.471  19.791  0.00  0.00    +0.000 N 
ATOM      8  C   UNL     1       2.816   4.634  19.874  0.00  0.00    +0.000 A 
ATOM      9  C   UNL     1       1.528   4.832  20.379  0.00  0.00    +0.000 A 
ATOM     10  C   UNL     1       0.744   3.685  20.567  0.00  0.00    +0.000 A 
ATOM     11  C   UNL     1       1.235   2.414  20.267  0.00  0.00    +0.000 A 
ATOM     12  C   UNL     1       2.438   2.274  19.568  0.00  0.00    +0.000 A 
ATOM     13  C   UNL     1       3.205   3.417  19.315  0.00  0.00    +0.000 A 
ATOM     14  C   UNL     1       6.210   5.413  18.637  0.00  0.00    +0.000 C 
ATOM     15  H   UNL     1       3.952   6.428  20.095  0.00  0.00    +0.000 HD
ENDBRANCH   1   2
BRANCH   1  18
ATOM     16  N   UNL     1       8.605   9.303  18.499  0.00  0.00    +0.000 N 
ATOM     17  C   UNL     1       7.839   8.915  17.419  0.00  0.00    +0.000 A 
ATOM     18  C   UNL     1       7.698   7.541  17.557  0.00  0.00    +0.000 A 
ATOM     19  N   UNL     1       8.347   7.150  18.690  0.00  0.00    +0.000 NA
ATOM     20  N   UNL     1       8.899   8.215  19.252  0.00  0.00    +0.000 NA
BRANCH  16  24
ATOM     21  C   UNL     1      10.075  13.155  19.506  0.00  0.00    +0.000 A 
ATOM     22  C   UNL     1      10.084  12.130  20.459  0.00  0.00    +0.000 A 
ATOM     23  C   UNL     1       9.594  10.851  20.153  0.00  0.00    +0.000 A 
ATOM     24  C   UNL     1       9.068  10.597  18.882  0.00  0.00    +0.000 A 
ATOM     25  C   UNL     1       9.012  11.646  17.944  0.00  0.00    +0.000 A 
ATOM     26  C   UNL     1       9.513  12.915  18.257  0.00  0.00    +0.000 A 
BRANCH  21  28
ATOM     27  C   UNL     1      11.609  14.898  19.045  0.00  0.00    +0.000 C 
ATOM     28  O   UNL     1      10.620  14.344  19.909  0.00  0.00    +0.000 OA
ENDBRANCH  21  28
ENDBRANCH  16  24
ENDBRANCH   1  18
TORSDOF 4
ENDMDL
MODEL 4
REMARK VINA RESULT:      -7.8      0.982      1.094
REMARK  Name = 
REMARK  5 active torsions:
REMARK  status: ('A' for Active; 'I' for Inactive)
REMARK    1  A    between atoms: C_1  and  O_2
REMARK    2  A    between atoms: O_2  and  C_3
REMARK    3  A    between atoms: C_6  and  N_7
REMARK    4  A    between atoms: C_9  and  C_10
REMARK    5  A    between atoms: C_10  and  N_11
REMARK                            x       y       z     vdW  Elec       q    Type
REMARK                         _______ _______ _______ _____ _____    ______ ____
ROOT
ATOM      1  C   UNL     1       7.460   5.785  17.700  0.00  0.00    +0.000 C 
ENDROOT
BRANCH   1   2
ATOM      2  N   UNL     1       6.068   5.395  17.902  0.00  0.00    +0.000 NA
ATOM      3  C   UNL     1       5.276   6.135  18.899  0.00  0.00    +0.000 C 
ATOM      4  C   UNL     1       3.720   5.922  18.667  0.00  0.00    +0.000 C 
ATOM      5  C   UNL     1       3.451   4.442  18.703  0.00  0.00    +0.000 A 
ATOM      6  C   UNL     1       4.562   3.631  18.610  0.00  0.00    +0.000 A 
ATOM      7  N   UNL     1       4.527   2.913  19.790  0.00  0.00    +0.000 N 
ATOM      8  C   UNL     1       3.242   2.988  20.322  0.00  0.00    +0.000 A 
ATOM      9  C   UNL     1       2.694   2.525  21.521  0.00  0.00    +0.000 A 
ATOM     10  C   UNL     1       1.296   2.520  21.613  0.00  0.00    +0.000 A 
ATOM     11  C   UNL     1       0.498   2.951  20.553  0.00  0.00    +0.000 A 
ATOM     12  C   UNL     1       1.078   3.604  19.459  0.00  0.00    +0.000 A 
ATOM     13  C   UNL     1       2.474   3.676  19.383  0.00  0.00    +0.000 A 
ATOM     14  C   UNL     1       5.782   3.954  17.817  0.00  0.00    +0.000 C 
ATOM     15  H   UNL     1       5.317   2.491  20.246  0.00  0.00    +0.000 HD
ENDBRANCH   1   2
BRANCH   1  18
ATOM     16  N   UNL     1       8.469   9.263  18.306  0.00  0.00    +0.000 N 
ATOM     17  C   UNL     1       8.646   7.928  18.602  0.00  0.00    +0.000 A 
ATOM     18  C   UNL     1       7.788   7.255  17.744  0.00  0.00    +0.000 A 
ATOM     19  N   UNL     1       7.148   8.171  16.964  0.00  0.00    +0.000 NA
ATOM     20  N   UNL     1       7.556   9.382  17.311  0.00  0.00    +0.000 NA
BRANCH  16  24
ATOM     21  C   UNL     1      10.430  12.688  19.869  0.00  0.00    +0.000 A 
ATOM     22  C   UNL     1       9.965  11.690  20.734  0.00  0.00    +0.000 A 
ATOM     23  C   UNL     1       9.305  10.553  20.241  0.00  0.00    +0.000 A 
ATOM     24  C   UNL     1       9.087  10.421  18.866  0.00  0.00    +0.000 A 
ATOM     25  C   UNL     1       9.508  11.453  18.006  0.00  0.00    +0.000 A 
ATOM     26  C   UNL     1      10.174  12.577  18.506  0.00  0.00    +0.000 A 
BRANCH  21  28
ATOM     27  C   UNL     1      11.835  14.571  19.587  0.00  0.00    +0.000 C 
ATOM     28  O   UNL     1      11.096  13.724  20.463  0.00  0.00    +0.000 OA
ENDBRANCH  21  28
ENDBRANCH  16  24
ENDBRANCH   1  18
TORSDOF 4
ENDMDL
MODEL 5
REMARK VINA RESULT:      -7.7      1.610      2.074
REMARK  Name = 
REMARK  5 active torsions:
REMARK  status: ('A' for Active; 'I' for Inactive)
REMARK    1  A    between atoms: C_1  and  O_2
REMARK    2  A    between atoms: O_2  and  C_3
REMARK    3  A    between atoms: C_6  and  N_7
REMARK    4  A    between atoms: C_9  and  C_10
REMARK    5  A    between atoms: C_10  and  N_11
REMARK                            x       y       z     vdW  Elec       q    Type
REMARK                         _______ _______ _______ _____ _____    ______ ____
ROOT
ATOM      1  C   UNL     1       7.273   6.993  17.163  0.00  0.00    +0.000 C 
ENDROOT
BRANCH   1   2
ATOM      2  N   UNL     1       5.991   6.553  17.705  0.00  0.00    +0.000 NA
ATOM      3  C   UNL     1       6.002   5.636  18.858  0.00  0.00    +0.000 C 
ATOM      4  C   UNL     1       4.599   5.633  19.601  0.00  0.00    +0.000 C 
ATOM      5  C   UNL     1       3.547   5.271  18.587  0.00  0.00    +0.000 A 
ATOM      6  C   UNL     1       3.942   5.331  17.268  0.00  0.00    +0.000 A 
ATOM      7  N   UNL     1       3.757   4.036  16.824  0.00  0.00    +0.000 N 
ATOM      8  C   UNL     1       2.897   3.381  17.701  0.00  0.00    +0.000 A 
ATOM      9  C   UNL     1       2.456   2.057  17.769  0.00  0.00    +0.000 A 
ATOM     10  C   UNL     1       1.365   1.800  18.611  0.00  0.00    +0.000 A 
ATOM     11  C   UNL     1       0.753   2.822  19.337  0.00  0.00    +0.000 A 
ATOM     12  C   UNL     1       1.351   4.085  19.411  0.00  0.00    +0.000 A 
ATOM     13  C   UNL     1       2.481   4.340  18.624  0.00  0.00    +0.000 A 
ATOM     14  C   UNL     1       4.923   6.313  16.723  0.00  0.00    +0.000 C 
ATOM     15  H   UNL     1       4.239   3.603  16.056  0.00  0.00    +0.000 HD
ENDBRANCH   1   2
BRANCH   1  18
ATOM     16  N   UNL     1       8.875  10.115  18.246  0.00  0.00    +0.000 N 
ATOM     17  C   UNL     1       8.065   9.475  17.331  0.00  0.00    +0.000 A 
ATOM     18  C   UNL     1       7.937   8.179  17.813  0.00  0.00    +0.000 A 
ATOM     19  N   UNL     1       8.636   8.079  18.978  0.00  0.00    +0.000 NA
ATOM     20  N   UNL     1       9.207   9.247  19.232  0.00  0.00    +0.000 NA
BRANCH  16  24
ATOM     21  C   UNL     1      10.232  14.136  18.176  0.00  0.00    +0.000 A 
ATOM     22  C   UNL     1      11.077  13.119  18.635  0.00  0.00    +0.000 A 
ATOM     23  C   UNL     1      10.647  11.783  18.676  0.00  0.00    +0.000 A 
ATOM     24  C   UNL     1       9.347  11.462  18.274  0.00  0.00    +0.000 A 
ATOM     25  C   UNL     1       8.484  12.496  17.865  0.00  0.00    +0.000 A 
ATOM     26  C   UNL     1       8.925  13.822  17.817  0.00  0.00    +0.000 A 
BRANCH  21  28
ATOM     27  C   UNL     1      10.175  16.304  17.229  0.00  0.00    +0.000 C 
ATOM     28  O   UNL     1      10.779  15.390  18.141  0.00  0.00    +0.000 OA
ENDBRANCH  21  28
ENDBRANCH  16  24
ENDBRANCH   1  18
TORSDOF 4
ENDMDL
MODEL 6
REMARK VINA RESULT:      -7.7      1.198      1.662
REMARK  Name = 
REMARK  5 active torsions:
REMARK  status: ('A' for Active; 'I' for Inactive)
REMARK    1  A    between atoms: C_1  and  O_2
REMARK    2  A    between atoms: O_2  and  C_3
REMARK    3  A    between atoms: C_6  and  N_7
REMARK    4  A    between atoms: C_9  and  C_10
REMARK    5  A    between atoms: C_10  and  N_11
REMARK                            x       y       z     vdW  Elec       q    Type
REMARK                         _______ _______ _______ _____ _____    ______ ____
ROOT
ATOM      1  C   UNL     1       7.187   6.346  16.601  0.00  0.00    +0.000 C 
ENDROOT
BRANCH   1   2
ATOM      2  N   UNL     1       6.256   5.369  17.155  0.00  0.00    +0.000 NA
ATOM      3  C   UNL     1       4.928   5.241  16.531  0.00  0.00    +0.000 C 
ATOM      4  C   UNL     1       4.242   3.864  16.922  0.00  0.00    +0.000 C 
ATOM      5  C   UNL     1       4.179   3.797  18.425  0.00  0.00    +0.000 A 
ATOM      6  C   UNL     1       4.958   4.714  19.097  0.00  0.00    +0.000 A 
ATOM      7  N   UNL     1       4.035   5.432  19.832  0.00  0.00    +0.000 N 
ATOM      8  C   UNL     1       2.858   4.692  19.918  0.00  0.00    +0.000 A 
ATOM      9  C   UNL     1       1.604   4.983  20.462  0.00  0.00    +0.000 A 
ATOM     10  C   UNL     1       0.727   3.904  20.634  0.00  0.00    +0.000 A 
ATOM     11  C   UNL     1       1.099   2.605  20.284  0.00  0.00    +0.000 A 
ATOM     12  C   UNL     1       2.269   2.384  19.549  0.00  0.00    +0.000 A 
ATOM     13  C   UNL     1       3.126   3.465  19.312  0.00  0.00    +0.000 A 
ATOM     14  C   UNL     1       6.278   5.215  18.619  0.00  0.00    +0.000 C 
ATOM     15  H   UNL     1       4.151   6.373  20.164  0.00  0.00    +0.000 HD
ENDBRANCH   1   2
BRANCH   1  18
ATOM     16  N   UNL     1       8.545   9.228  18.428  0.00  0.00    +0.000 N 
ATOM     17  C   UNL     1       7.844   8.764  17.335  0.00  0.00    +0.000 A 
ATOM     18  C   UNL     1       7.739   7.394  17.533  0.00  0.00    +0.000 A 
ATOM     19  N   UNL     1       8.345   7.078  18.712  0.00  0.00    +0.000 NA
ATOM     20  N   UNL     1       8.836   8.187  19.246  0.00  0.00    +0.000 NA
BRANCH  16  24
ATOM     21  C   UNL     1       9.665  13.156  19.580  0.00  0.00    +0.000 A 
ATOM     22  C   UNL     1       9.115  12.927  18.314  0.00  0.00    +0.000 A 
ATOM     23  C   UNL     1       8.746  11.636  17.907  0.00  0.00    +0.000 A 
ATOM     24  C   UNL     1       8.949  10.554  18.769  0.00  0.00    +0.000 A 
ATOM     25  C   UNL     1       9.552  10.782  20.021  0.00  0.00    +0.000 A 
ATOM     26  C   UNL     1       9.907  12.074  20.421  0.00  0.00    +0.000 A 
BRANCH  21  28
ATOM     27  C   UNL     1       9.410  15.431  18.979  0.00  0.00    +0.000 C 
ATOM     28  O   UNL     1       9.942  14.462  19.878  0.00  0.00    +0.000 OA
ENDBRANCH  21  28
ENDBRANCH  16  24
ENDBRANCH   1  18
TORSDOF 4
ENDMDL
MODEL 7
REMARK VINA RESULT:      -7.6      1.476      1.991
REMARK  Name = 
REMARK  5 active torsions:
REMARK  status: ('A' for Active; 'I' for Inactive)
REMARK    1  A    between atoms: C_1  and  O_2
REMARK    2  A    between atoms: O_2  and  C_3
REMARK    3  A    between atoms: C_6  and  N_7
REMARK    4  A    between atoms: C_9  and  C_10
REMARK    5  A    between atoms: C_10  and  N_11
REMARK                            x       y       z     vdW  Elec       q    Type
REMARK                         _______ _______ _______ _____ _____    ______ ____
ROOT
ATOM      1  C   UNL     1       7.191   7.040  17.076  0.00  0.00    +0.000 C 
ENDROOT
BRANCH   1   2
ATOM      2  N   UNL     1       5.911   6.578  17.602  0.00  0.00    +0.000 NA
ATOM      3  C   UNL     1       5.919   5.731  18.807  0.00  0.00    +0.000 C 
ATOM      4  C   UNL     1       4.492   5.712  19.503  0.00  0.00    +0.000 C 
ATOM      5  C   UNL     1       3.492   5.245  18.480  0.00  0.00    +0.000 A 
ATOM      6  C   UNL     1       3.930   5.245  17.173  0.00  0.00    +0.000 A 
ATOM      7  N   UNL     1       3.815   3.919  16.802  0.00  0.00    +0.000 N 
ATOM      8  C   UNL     1       2.952   3.280  17.689  0.00  0.00    +0.000 A 
ATOM      9  C   UNL     1       2.564   1.944  17.823  0.00  0.00    +0.000 A 
ATOM     10  C   UNL     1       1.456   1.690  18.643  0.00  0.00    +0.000 A 
ATOM     11  C   UNL     1       0.778   2.726  19.285  0.00  0.00    +0.000 A 
ATOM     12  C   UNL     1       1.319   4.015  19.302  0.00  0.00    +0.000 A 
ATOM     13  C   UNL     1       2.464   4.272  18.539  0.00  0.00    +0.000 A 
ATOM     14  C   UNL     1       4.888   6.234  16.602  0.00  0.00    +0.000 C 
ATOM     15  H   UNL     1       4.341   3.462  16.078  0.00  0.00    +0.000 HD
ENDBRANCH   1   2
BRANCH   1  18
ATOM     16  N   UNL     1       8.785  10.104  18.322  0.00  0.00    +0.000 N 
ATOM     17  C   UNL     1       7.941   9.519  17.402  0.00  0.00    +0.000 A 
ATOM     18  C   UNL     1       7.865   8.187  17.784  0.00  0.00    +0.000 A 
ATOM     19  N   UNL     1       8.628   8.011  18.899  0.00  0.00    +0.000 NA
ATOM     20  N   UNL     1       9.187   9.169  19.217  0.00  0.00    +0.000 NA
BRANCH  16  24
ATOM     21  C   UNL     1      10.089  14.113  18.816  0.00  0.00    +0.000 A 
ATOM     22  C   UNL     1       9.107  13.807  17.867  0.00  0.00    +0.000 A 
ATOM     23  C   UNL     1       8.666  12.488  17.679  0.00  0.00    +0.000 A 
ATOM     24  C   UNL     1       9.231  11.456  18.435  0.00  0.00    +0.000 A 
ATOM     25  C   UNL     1      10.257  11.761  19.349  0.00  0.00    +0.000 A 
ATOM     26  C   UNL     1      10.681  13.081  19.536  0.00  0.00    +0.000 A 
BRANCH  21  28
ATOM     27  C   UNL     1       9.709  16.149  19.961  0.00  0.00    +0.000 C 
ATOM     28  O   UNL     1      10.403  15.439  18.938  0.00  0.00    +0.000 OA
ENDBRANCH  21  28
ENDBRANCH  16  24
ENDBRANCH   1  18
TORSDOF 4
ENDMDL
MODEL 8
REMARK VINA RESULT:      -7.5      6.570      7.319
REMARK  Name = 
REMARK  5 active torsions:
REMARK  status: ('A' for Active; 'I' for Inactive)
REMARK    1  A    between atoms: C_1  and  O_2
REMARK    2  A    between atoms: O_2  and  C_3
REMARK    3  A    between atoms: C_6  and  N_7
REMARK    4  A    between atoms: C_9  and  C_10
REMARK    5  A    between atoms: C_10  and  N_11
REMARK                            x       y       z     vdW  Elec       q    Type
REMARK                         _______ _______ _______ _____ _____    ______ ____
ROOT
ATOM      1  C   UNL     1       0.346   9.700  20.313  0.00  0.00    +0.000 C 
ENDROOT
BRANCH   1   2
ATOM      2  N   UNL     1       1.370   8.803  19.788  0.00  0.00    +0.000 NA
ATOM      3  C   UNL     1       1.344   8.483  18.351  0.00  0.00    +0.000 C 
ATOM      4  C   UNL     1       2.743   7.908  17.866  0.00  0.00    +0.000 C 
ATOM      5  C   UNL     1       3.062   6.708  18.717  0.00  0.00    +0.000 A 
ATOM      6  C   UNL     1       2.300   6.563  19.856  0.00  0.00    +0.000 A 
ATOM      7  N   UNL     1       1.685   5.340  19.671  0.00  0.00    +0.000 N 
ATOM      8  C   UNL     1       2.388   4.629  18.701  0.00  0.00    +0.000 A 
ATOM      9  C   UNL     1       2.149   3.398  18.083  0.00  0.00    +0.000 A 
ATOM     10  C   UNL     1       3.212   2.844  17.356  0.00  0.00    +0.000 A 
ATOM     11  C   UNL     1       4.444   3.492  17.265  0.00  0.00    +0.000 A 
ATOM     12  C   UNL     1       4.577   4.811  17.711  0.00  0.00    +0.000 A 
ATOM     13  C   UNL     1       3.502   5.405  18.383  0.00  0.00    +0.000 A 
ATOM     14  C   UNL     1       1.771   7.695  20.670  0.00  0.00    +0.000 C 
ATOM     15  H   UNL     1       0.819   5.048  20.087  0.00  0.00    +0.000 HD
ENDBRANCH   1   2
BRANCH   1  18
ATOM     16  N   UNL     1       1.034  13.266  19.767  0.00  0.00    +0.000 N 
ATOM     17  C   UNL     1       0.479  12.098  19.289  0.00  0.00    +0.000 A 
ATOM     18  C   UNL     1       0.644  11.178  20.314  0.00  0.00    +0.000 A 
ATOM     19  N   UNL     1       1.260  11.799  21.359  0.00  0.00    +0.000 NA
ATOM     20  N   UNL     1       1.500  13.057  21.022  0.00  0.00    +0.000 NA
BRANCH  16  24
ATOM     21  C   UNL     1       1.495  17.121  18.052  0.00  0.00    +0.000 A 
ATOM     22  C   UNL     1       0.217  16.637  18.356  0.00  0.00    +0.000 A 
ATOM     23  C   UNL     1       0.039  15.362  18.914  0.00  0.00    +0.000 A 
ATOM     24  C   UNL     1       1.152  14.549  19.153  0.00  0.00    +0.000 A 
ATOM     25  C   UNL     1       2.430  15.019  18.796  0.00  0.00    +0.000 A 
ATOM     26  C   UNL     1       2.598  16.295  18.249  0.00  0.00    +0.000 A 
BRANCH  21  28
ATOM     27  C   UNL     1       0.773  18.631  16.378  0.00  0.00    +0.000 C 
ATOM     28  O   UNL     1       1.544  18.394  17.554  0.00  0.00    +0.000 OA
ENDBRANCH  21  28
ENDBRANCH  16  24
ENDBRANCH   1  18
TORSDOF 4
ENDMDL
MODEL 9
REMARK VINA RESULT:      -7.4      0.913      1.357
REMARK  Name = 
REMARK  5 active torsions:
REMARK  status: ('A' for Active; 'I' for Inactive)
REMARK    1  A    between atoms: C_1  and  O_2
REMARK    2  A    between atoms: O_2  and  C_3
REMARK    3  A    between atoms: C_6  and  N_7
REMARK    4  A    between atoms: C_9  and  C_10
REMARK    5  A    between atoms: C_10  and  N_11
REMARK                            x       y       z     vdW  Elec       q    Type
REMARK                         _______ _______ _______ _____ _____    ______ ____
ROOT
ATOM      1  C   UNL     1       7.452   5.938  17.523  0.00  0.00    +0.000 C 
ENDROOT
BRANCH   1   2
ATOM      2  N   UNL     1       6.071   5.533  17.763  0.00  0.00    +0.000 NA
ATOM      3  C   UNL     1       5.311   6.238  18.810  0.00  0.00    +0.000 C 
ATOM      4  C   UNL     1       3.749   6.021  18.628  0.00  0.00    +0.000 C 
ATOM      5  C   UNL     1       3.492   4.538  18.630  0.00  0.00    +0.000 A 
ATOM      6  C   UNL     1       4.603   3.738  18.475  0.00  0.00    +0.000 A 
ATOM      7  N   UNL     1       4.615   2.987  19.634  0.00  0.00    +0.000 N 
ATOM      8  C   UNL     1       3.350   3.037  20.214  0.00  0.00    +0.000 A 
ATOM      9  C   UNL     1       2.849   2.536  21.418  0.00  0.00    +0.000 A 
ATOM     10  C   UNL     1       1.455   2.518  21.560  0.00  0.00    +0.000 A 
ATOM     11  C   UNL     1       0.617   2.974  20.542  0.00  0.00    +0.000 A 
ATOM     12  C   UNL     1       1.152   3.662  19.448  0.00  0.00    +0.000 A 
ATOM     13  C   UNL     1       2.544   3.746  19.323  0.00  0.00    +0.000 A 
ATOM     14  C   UNL     1       5.791   4.093  17.648  0.00  0.00    +0.000 C 
ATOM     15  H   UNL     1       5.424   2.558  20.049  0.00  0.00    +0.000 HD
ENDBRANCH   1   2
BRANCH   1  18
ATOM     16  N   UNL     1       8.513   9.355  18.353  0.00  0.00    +0.000 N 
ATOM     17  C   UNL     1       8.706   7.999  18.521  0.00  0.00    +0.000 A 
ATOM     18  C   UNL     1       7.788   7.400  17.670  0.00  0.00    +0.000 A 
ATOM     19  N   UNL     1       7.099   8.378  17.017  0.00  0.00    +0.000 NA
ATOM     20  N   UNL     1       7.535   9.556  17.437  0.00  0.00    +0.000 NA
BRANCH  16  24
ATOM     21  C   UNL     1      10.336  12.683  20.255  0.00  0.00    +0.000 A 
ATOM     22  C   UNL     1      10.442  12.522  18.868  0.00  0.00    +0.000 A 
ATOM     23  C   UNL     1       9.857  11.425  18.218  0.00  0.00    +0.000 A 
ATOM     24  C   UNL     1       9.172  10.462  18.966  0.00  0.00    +0.000 A 
ATOM     25  C   UNL     1       9.114  10.599  20.366  0.00  0.00    +0.000 A 
ATOM     26  C   UNL     1       9.692  11.702  21.003  0.00  0.00    +0.000 A 
BRANCH  21  28
ATOM     27  C   UNL     1      10.060  14.634  21.565  0.00  0.00    +0.000 C 
ATOM     28  O   UNL     1      10.909  13.814  20.767  0.00  0.00    +0.000 OA
ENDBRANCH  21  28
ENDBRANCH  16  24
ENDBRANCH   1  18
TORSDOF 4
ENDMDL
