MODEL 1
REMARK VINA RESULT:      -6.5      0.000      0.000
REMARK  Name = 
REMARK  4 active torsions:
REMARK  status: ('A' for Active; 'I' for Inactive)
REMARK    1  A    between atoms: C_1  and  N_2
REMARK    2  A    between atoms: C_6  and  C_7
REMARK    3  A    between atoms: C_7  and  C_8
REMARK    4  A    between atoms: C_8  and  C_9
REMARK                            x       y       z     vdW  Elec       q    Type
REMARK                         _______ _______ _______ _____ _____    ______ ____
ROOT
ATOM      1  C   UNL     1       3.967   3.293  17.337  0.00  0.00    +0.000 C 
ENDROOT
BRANCH   1   2
ATOM      2  C   UNL     1       4.881   4.495  17.414  0.00  0.00    +0.000 A 
ATOM      3  C   UNL     1       4.731   5.560  16.511  0.00  0.00    +0.000 A 
ATOM      4  C   UNL     1       5.602   6.652  16.555  0.00  0.00    +0.000 A 
ATOM      5  C   UNL     1       6.631   6.698  17.501  0.00  0.00    +0.000 A 
ATOM      6 CL   UNL     1       7.713   8.084  17.521  0.00  0.00    +0.000 Cl
ATOM      7  C   UNL     1       6.788   5.638  18.410  0.00  0.00    +0.000 A 
ATOM      8 CL   UNL     1       8.072   5.651  19.611  0.00  0.00    +0.000 Cl
ATOM      9  C   UNL     1       5.918   4.543  18.361  0.00  0.00    +0.000 A 
ENDBRANCH   1   2
BRANCH   1  10
ATOM     10  C   UNL     1       2.481   3.611  17.575  0.00  0.00    +0.000 C 
BRANCH  10  16
ATOM     11  C   UNL     1       2.469   5.995  19.599  0.00  0.00    +0.000 C 
ATOM     12  N   UNL     1       2.101   4.610  19.876  0.00  0.00    +0.000 N 
ATOM     13  C   UNL     1       1.721   4.120  21.070  0.00  0.00    +0.000 A 
ATOM     14  C   UNL     1       1.485   2.772  20.921  0.00  0.00    +0.000 A 
ATOM     15  N   UNL     1       1.716   2.417  19.641  0.00  0.00    +0.000 NA
ATOM     16  C   UNL     1       2.088   3.559  19.026  0.00  0.00    +0.000 A 
ENDBRANCH  10  16
ENDBRANCH   1  10
TORSDOF 3
ENDMDL
MODEL 2
REMARK VINA RESULT:      -6.4      3.555      5.654
REMARK  Name = 
REMARK  4 active torsions:
REMARK  status: ('A' for Active; 'I' for Inactive)
REMARK    1  A    between atoms: C_1  and  N_2
REMARK    2  A    between atoms: C_6  and  C_7
REMARK    3  A    between atoms: C_7  and  C_8
REMARK    4  A    between atoms: C_8  and  C_9
REMARK                            x       y       z     vdW  Elec       q    Type
REMARK                         _______ _______ _______ _____ _____    ______ ____
ROOT
ATOM      1  C   UNL     1       3.812   7.209  17.391  0.00  0.00    +0.000 C 
ENDROOT
BRANCH   1   2
ATOM      2  C   UNL     1       3.086   6.182  18.229  0.00  0.00    +0.000 A 
ATOM      3  C   UNL     1       2.610   6.517  19.508  0.00  0.00    +0.000 A 
ATOM      4  C   UNL     1       1.975   5.556  20.300  0.00  0.00    +0.000 A 
ATOM      5  C   UNL     1       1.803   4.251  19.826  0.00  0.00    +0.000 A 
ATOM      6 CL   UNL     1       1.008   3.067  20.855  0.00  0.00    +0.000 Cl
ATOM      7  C   UNL     1       2.273   3.907  18.548  0.00  0.00    +0.000 A 
ATOM      8 CL   UNL     1       2.084   2.277  17.916  0.00  0.00    +0.000 Cl
ATOM      9  C   UNL     1       2.913   4.869  17.758  0.00  0.00    +0.000 A 
ENDBRANCH   1   2
BRANCH   1  10
ATOM     10  C   UNL     1       4.814   6.614  16.388  0.00  0.00    +0.000 C 
BRANCH  10  16
ATOM     11  C   UNL     1       6.137   3.875  15.662  0.00  0.00    +0.000 C 
ATOM     12  N   UNL     1       6.556   4.798  16.712  0.00  0.00    +0.000 N 
ATOM     13  C   UNL     1       7.575   4.605  17.569  0.00  0.00    +0.000 A 
ATOM     14  C   UNL     1       7.629   5.689  18.416  0.00  0.00    +0.000 A 
ATOM     15  N   UNL     1       6.651   6.558  18.092  0.00  0.00    +0.000 NA
ATOM     16  C   UNL     1       6.014   5.989  17.048  0.00  0.00    +0.000 A 
ENDBRANCH  10  16
ENDBRANCH   1  10
TORSDOF 3
ENDMDL
MODEL 3
REMARK VINA RESULT:      -6.4      1.812      2.328
REMARK  Name = 
REMARK  4 active torsions:
REMARK  status: ('A' for Active; 'I' for Inactive)
REMARK    1  A    between atoms: C_1  and  N_2
REMARK    2  A    between atoms: C_6  and  C_7
REMARK    3  A    between atoms: C_7  and  C_8
REMARK    4  A    between atoms: C_8  and  C_9
REMARK                            x       y       z     vdW  Elec       q    Type
REMARK                         _______ _______ _______ _____ _____    ______ ____
ROOT
ATOM      1  C   UNL     1       1.747   4.297  17.603  0.00  0.00    +0.000 C 
ENDROOT
BRANCH   1   2
ATOM      2  C   UNL     1       3.141   4.866  17.475  0.00  0.00    +0.000 A 
ATOM      3  C   UNL     1       3.481   6.068  18.118  0.00  0.00    +0.000 A 
ATOM      4  C   UNL     1       4.758   6.615  17.965  0.00  0.00    +0.000 A 
ATOM      5  C   UNL     1       5.713   5.971  17.173  0.00  0.00    +0.000 A 
ATOM      6 CL   UNL     1       7.307   6.694  16.998  0.00  0.00    +0.000 Cl
ATOM      7  C   UNL     1       5.384   4.767  16.528  0.00  0.00    +0.000 A 
ATOM      8 CL   UNL     1       6.552   3.927  15.516  0.00  0.00    +0.000 Cl
ATOM      9  C   UNL     1       4.104   4.223  16.677  0.00  0.00    +0.000 A 
ENDBRANCH   1   2
BRANCH   1  10
ATOM     10  C   UNL     1       1.696   2.863  18.156  0.00  0.00    +0.000 C 
BRANCH  10  16
ATOM     11  C   UNL     1       4.330   2.225  19.716  0.00  0.00    +0.000 C 
ATOM     12  N   UNL     1       3.020   2.511  20.293  0.00  0.00    +0.000 N 
ATOM     13  C   UNL     1       2.720   2.518  21.604  0.00  0.00    +0.000 A 
ATOM     14  C   UNL     1       1.380   2.807  21.732  0.00  0.00    +0.000 A 
ATOM     15  N   UNL     1       0.842   2.980  20.509  0.00  0.00    +0.000 NA
ATOM     16  C   UNL     1       1.865   2.797  19.650  0.00  0.00    +0.000 A 
ENDBRANCH  10  16
ENDBRANCH   1  10
TORSDOF 3
ENDMDL
MODEL 4
REMARK VINA RESULT:      -6.2      0.773      1.544
REMARK  Name = 
REMARK  4 active torsions:
REMARK  status: ('A' for Active; 'I' for Inactive)
REMARK    1  A    between atoms: C_1  and  N_2
REMARK    2  A    between atoms: C_6  and  C_7
REMARK    3  A    between atoms: C_7  and  C_8
REMARK    4  A    between atoms: C_8  and  C_9
REMARK                            x       y       z     vdW  Elec       q    Type
REMARK                         _______ _______ _______ _____ _____    ______ ____
ROOT
ATOM      1  C   UNL     1       4.004   3.527  17.193  0.00  0.00    +0.000 C 
ENDROOT
BRANCH   1   2
ATOM      2  C   UNL     1       4.964   4.688  17.322  0.00  0.00    +0.000 A 
ATOM      3  C   UNL     1       4.887   5.775  16.436  0.00  0.00    +0.000 A 
ATOM      4  C   UNL     1       5.801   6.829  16.528  0.00  0.00    +0.000 A 
ATOM      5  C   UNL     1       6.800   6.814  17.506  0.00  0.00    +0.000 A 
ATOM      6 CL   UNL     1       7.938   8.153  17.587  0.00  0.00    +0.000 Cl
ATOM      7  C   UNL     1       6.885   5.732  18.398  0.00  0.00    +0.000 A 
ATOM      8 CL   UNL     1       8.130   5.669  19.639  0.00  0.00    +0.000 Cl
ATOM      9  C   UNL     1       5.972   4.675  18.301  0.00  0.00    +0.000 A 
ENDBRANCH   1   2
BRANCH   1  10
ATOM     10  C   UNL     1       2.520   3.922  17.271  0.00  0.00    +0.000 C 
BRANCH  10  16
ATOM     11  C   UNL     1       0.662   2.102  19.008  0.00  0.00    +0.000 C 
ATOM     12  N   UNL     1       1.241   3.385  19.396  0.00  0.00    +0.000 N 
ATOM     13  C   UNL     1       1.044   4.016  20.567  0.00  0.00    +0.000 A 
ATOM     14  C   UNL     1       1.741   5.203  20.534  0.00  0.00    +0.000 A 
ATOM     15  N   UNL     1       2.371   5.317  19.348  0.00  0.00    +0.000 NA
ATOM     16  C   UNL     1       2.051   4.192  18.676  0.00  0.00    +0.000 A 
ENDBRANCH  10  16
ENDBRANCH   1  10
TORSDOF 3
ENDMDL
MODEL 5
REMARK VINA RESULT:      -6.2      3.751      5.786
REMARK  Name = 
REMARK  4 active torsions:
REMARK  status: ('A' for Active; 'I' for Inactive)
REMARK    1  A    between atoms: C_1  and  N_2
REMARK    2  A    between atoms: C_6  and  C_7
REMARK    3  A    between atoms: C_7  and  C_8
REMARK    4  A    between atoms: C_8  and  C_9
REMARK                            x       y       z     vdW  Elec       q    Type
REMARK                         _______ _______ _______ _____ _____    ______ ____
ROOT
ATOM      1  C   UNL     1       3.164   6.656  17.412  0.00  0.00    +0.000 C 
ENDROOT
BRANCH   1   2
ATOM      2  C   UNL     1       2.654   5.699  18.465  0.00  0.00    +0.000 A 
ATOM      3  C   UNL     1       2.919   5.931  19.824  0.00  0.00    +0.000 A 
ATOM      4  C   UNL     1       2.484   5.024  20.795  0.00  0.00    +0.000 A 
ATOM      5  C   UNL     1       1.776   3.877  20.423  0.00  0.00    +0.000 A 
ATOM      6 CL   UNL     1       1.252   2.754  21.671  0.00  0.00    +0.000 Cl
ATOM      7  C   UNL     1       1.504   3.637  19.066  0.00  0.00    +0.000 A 
ATOM      8 CL   UNL     1       0.623   2.203  18.553  0.00  0.00    +0.000 Cl
ATOM      9  C   UNL     1       1.944   4.543  18.095  0.00  0.00    +0.000 A 
ENDBRANCH   1   2
BRANCH   1  10
ATOM     10  C   UNL     1       4.648   7.031  17.562  0.00  0.00    +0.000 C 
BRANCH  10  16
ATOM     11  C   UNL     1       6.865   5.520  19.168  0.00  0.00    +0.000 C 
ATOM     12  N   UNL     1       6.536   5.347  17.756  0.00  0.00    +0.000 N 
ATOM     13  C   UNL     1       7.160   4.522  16.897  0.00  0.00    +0.000 A 
ATOM     14  C   UNL     1       6.571   4.668  15.662  0.00  0.00    +0.000 A 
ATOM     15  N   UNL     1       5.583   5.581  15.744  0.00  0.00    +0.000 NA
ATOM     16  C   UNL     1       5.582   5.977  17.034  0.00  0.00    +0.000 A 
ENDBRANCH  10  16
ENDBRANCH   1  10
TORSDOF 3
ENDMDL
MODEL 6
REMARK VINA RESULT:      -6.2      1.170      1.546
REMARK  Name = 
REMARK  4 active torsions:
REMARK  status: ('A' for Active; 'I' for Inactive)
REMARK    1  A    between atoms: C_1  and  N_2
REMARK    2  A    between atoms: C_6  and  C_7
REMARK    3  A    between atoms: C_7  and  C_8
REMARK    4  A    between atoms: C_8  and  C_9
REMARK                            x       y       z     vdW  Elec       q    Type
REMARK                         _______ _______ _______ _____ _____    ______ ____
ROOT
ATOM      1  C   UNL     1       3.653   3.352  17.469  0.00  0.00    +0.000 C 
ENDROOT
BRANCH   1   2
ATOM      2  C   UNL     1       4.654   4.483  17.513  0.00  0.00    +0.000 A 
ATOM      3  C   UNL     1       4.639   5.484  16.529  0.00  0.00    +0.000 A 
ATOM      4  C   UNL     1       5.591   6.507  16.546  0.00  0.00    +0.000 A 
ATOM      5  C   UNL     1       6.568   6.547  17.545  0.00  0.00    +0.000 A 
ATOM      6 CL   UNL     1       7.756   7.845  17.529  0.00  0.00    +0.000 Cl
ATOM      7  C   UNL     1       6.591   5.551  18.535  0.00  0.00    +0.000 A 
ATOM      8 CL   UNL     1       7.807   5.558  19.806  0.00  0.00    +0.000 Cl
ATOM      9  C   UNL     1       5.640   4.524  18.515  0.00  0.00    +0.000 A 
ENDBRANCH   1   2
BRANCH   1  10
ATOM     10  C   UNL     1       3.801   2.329  18.609  0.00  0.00    +0.000 C 
BRANCH  10  16
ATOM     11  C   UNL     1       0.677   2.215  18.648  0.00  0.00    +0.000 C 
ATOM     12  N   UNL     1       1.553   2.562  19.763  0.00  0.00    +0.000 N 
ATOM     13  C   UNL     1       1.155   2.923  20.996  0.00  0.00    +0.000 A 
ATOM     14  C   UNL     1       2.278   3.192  21.744  0.00  0.00    +0.000 A 
ATOM     15  N   UNL     1       3.376   3.001  20.986  0.00  0.00    +0.000 NA
ATOM     16  C   UNL     1       2.904   2.615  19.783  0.00  0.00    +0.000 A 
ENDBRANCH  10  16
ENDBRANCH   1  10
TORSDOF 3
ENDMDL
MODEL 7
REMARK VINA RESULT:      -6.0      3.127      5.095
REMARK  Name = 
REMARK  4 active torsions:
REMARK  status: ('A' for Active; 'I' for Inactive)
REMARK    1  A    between atoms: C_1  and  N_2
REMARK    2  A    between atoms: C_6  and  C_7
REMARK    3  A    between atoms: C_7  and  C_8
REMARK    4  A    between atoms: C_8  and  C_9
REMARK                            x       y       z     vdW  Elec       q    Type
REMARK                         _______ _______ _______ _____ _____    ______ ____
ROOT
ATOM      1  C   UNL     1       2.792   3.888  17.464  0.00  0.00    +0.000 C 
ENDROOT
BRANCH   1   2
ATOM      2  C   UNL     1       2.500   5.045  18.391  0.00  0.00    +0.000 A 
ATOM      3  C   UNL     1       2.154   4.811  19.732  0.00  0.00    +0.000 A 
ATOM      4  C   UNL     1       1.843   5.879  20.579  0.00  0.00    +0.000 A 
ATOM      5  C   UNL     1       1.876   7.192  20.101  0.00  0.00    +0.000 A 
ATOM      6 CL   UNL     1       1.471   8.510  21.194  0.00  0.00    +0.000 Cl
ATOM      7  C   UNL     1       2.223   7.437  18.762  0.00  0.00    +0.000 A 
ATOM      8 CL   UNL     1       2.270   9.073  18.118  0.00  0.00    +0.000 Cl
ATOM      9  C   UNL     1       2.529   6.367  17.914  0.00  0.00    +0.000 A 
ENDBRANCH   1   2
BRANCH   1  10
ATOM     10  C   UNL     1       4.158   3.220  17.695  0.00  0.00    +0.000 C 
BRANCH  10  16
ATOM     11  C   UNL     1       6.037   5.245  19.160  0.00  0.00    +0.000 C 
ATOM     12  N   UNL     1       6.093   4.862  17.753  0.00  0.00    +0.000 N 
ATOM     13  C   UNL     1       6.952   5.344  16.838  0.00  0.00    +0.000 A 
ATOM     14  C   UNL     1       6.665   4.752  15.630  0.00  0.00    +0.000 A 
ATOM     15  N   UNL     1       5.630   3.902  15.784  0.00  0.00    +0.000 NA
ATOM     16  C   UNL     1       5.303   3.987  17.091  0.00  0.00    +0.000 A 
ENDBRANCH  10  16
ENDBRANCH   1  10
TORSDOF 3
ENDMDL
MODEL 8
REMARK VINA RESULT:      -6.0      3.453      5.634
REMARK  Name = 
REMARK  4 active torsions:
REMARK  status: ('A' for Active; 'I' for Inactive)
REMARK    1  A    between atoms: C_1  and  N_2
REMARK    2  A    between atoms: C_6  and  C_7
REMARK    3  A    between atoms: C_7  and  C_8
REMARK    4  A    between atoms: C_8  and  C_9
REMARK                            x       y       z     vdW  Elec       q    Type
REMARK                         _______ _______ _______ _____ _____    ______ ____
ROOT
ATOM      1  C   UNL     1       3.978   7.121  17.370  0.00  0.00    +0.000 C 
ENDROOT
BRANCH   1   2
ATOM      2  C   UNL     1       3.210   6.122  18.203  0.00  0.00    +0.000 A 
ATOM      3  C   UNL     1       2.732   6.476  19.476  0.00  0.00    +0.000 A 
ATOM      4  C   UNL     1       2.057   5.539  20.264  0.00  0.00    +0.000 A 
ATOM      5  C   UNL     1       1.848   4.240  19.793  0.00  0.00    +0.000 A 
ATOM      6 CL   UNL     1       1.002   3.085  20.817  0.00  0.00    +0.000 Cl
ATOM      7  C   UNL     1       2.320   3.876  18.521  0.00  0.00    +0.000 A 
ATOM      8 CL   UNL     1       2.084   2.250  17.893  0.00  0.00    +0.000 Cl
ATOM      9  C   UNL     1       2.999   4.813  17.735  0.00  0.00    +0.000 A 
ENDBRANCH   1   2
BRANCH   1  10
ATOM     10  C   UNL     1       5.229   6.545  16.684  0.00  0.00    +0.000 C 
BRANCH  10  16
ATOM     11  C   UNL     1       7.537   8.485  17.514  0.00  0.00    +0.000 C 
ATOM     12  N   UNL     1       7.338   7.115  17.976  0.00  0.00    +0.000 N 
ATOM     13  C   UNL     1       8.140   6.444  18.822  0.00  0.00    +0.000 A 
ATOM     14  C   UNL     1       7.621   5.179  18.987  0.00  0.00    +0.000 A 
ATOM     15  N   UNL     1       6.501   5.056  18.249  0.00  0.00    +0.000 NA
ATOM     16  C   UNL     1       6.350   6.253  17.645  0.00  0.00    +0.000 A 
ENDBRANCH  10  16
ENDBRANCH   1  10
TORSDOF 3
ENDMDL
MODEL 9
REMARK VINA RESULT:      -6.0      4.491      6.581
REMARK  Name = 
REMARK  4 active torsions:
REMARK  status: ('A' for Active; 'I' for Inactive)
REMARK    1  A    between atoms: C_1  and  N_2
REMARK    2  A    between atoms: C_6  and  C_7
REMARK    3  A    between atoms: C_7  and  C_8
REMARK    4  A    between atoms: C_8  and  C_9
REMARK                            x       y       z     vdW  Elec       q    Type
REMARK                         _______ _______ _______ _____ _____    ______ ____
ROOT
ATOM      1  C   UNL     1       4.960   5.275  15.863  0.00  0.00    +0.000 C 
ENDROOT
BRANCH   1   2
ATOM      2  C   UNL     1       4.271   4.968  17.173  0.00  0.00    +0.000 A 
ATOM      3  C   UNL     1       4.591   5.695  18.331  0.00  0.00    +0.000 A 
ATOM      4  C   UNL     1       3.985   5.384  19.552  0.00  0.00    +0.000 A 
ATOM      5  C   UNL     1       3.050   4.348  19.633  0.00  0.00    +0.000 A 
ATOM      6 CL   UNL     1       2.314   3.980  21.188  0.00  0.00    +0.000 Cl
ATOM      7  C   UNL     1       2.721   3.616  18.480  0.00  0.00    +0.000 A 
ATOM      8 CL   UNL     1       1.556   2.300  18.537  0.00  0.00    +0.000 Cl
ATOM      9  C   UNL     1       3.333   3.925  17.259  0.00  0.00    +0.000 A 
ENDBRANCH   1   2
BRANCH   1  10
ATOM     10  C   UNL     1       5.809   4.118  15.308  0.00  0.00    +0.000 C 
BRANCH  10  16
ATOM     11  C   UNL     1       5.450   3.113  12.369  0.00  0.00    +0.000 C 
ATOM     12  N   UNL     1       6.458   4.050  12.856  0.00  0.00    +0.000 N 
ATOM     13  C   UNL     1       7.428   4.619  12.117  0.00  0.00    +0.000 A 
ATOM     14  C   UNL     1       8.183   5.416  12.947  0.00  0.00    +0.000 A 
ATOM     15  N   UNL     1       7.691   5.348  14.200  0.00  0.00    +0.000 NA
ATOM     16  C   UNL     1       6.637   4.510  14.114  0.00  0.00    +0.000 A 
ENDBRANCH  10  16
ENDBRANCH   1  10
TORSDOF 3
ENDMDL
