MODEL 1
REMARK VINA RESULT:      -8.4      0.000      0.000
REMARK  Name = 
REMARK  8 active torsions:
REMARK  status: ('A' for Active; 'I' for Inactive)
REMARK    1  A    between atoms: C_5  and  C_6
REMARK    2  A    between atoms: N_14  and  C_15
REMARK    3  A    between atoms: C_15  and  C_16
REMARK    4  A    between atoms: C_16  and  C_17
REMARK    5  A    between atoms: C_17  and  N_18
REMARK    6  A    between atoms: N_18  and  S_19
REMARK    7  A    between atoms: S_19  and  C_22
REMARK    8  A    between atoms: C_23  and  C_24
REMARK                            x       y       z     vdW  Elec       q    Type
REMARK                         _______ _______ _______ _____ _____    ______ ____
ROOT
ATOM      1  C   UNL     1       4.694   4.444  18.153  0.00  0.00    +0.000 C 
ENDROOT
BRANCH   1   8
ATOM      2  O   UNL     1       3.333   2.641  19.854  0.00  0.00    +0.000 OA
ATOM      3  C   UNL     1       3.052   3.836  19.886  0.00  0.00    +0.000 A 
ATOM      4  C   UNL     1       2.065   4.311  20.873  0.00  0.00    +0.000 A 
ATOM      5  C   UNL     1       1.704   5.592  20.913  0.00  0.00    +0.000 A 
ATOM      6  C   UNL     1       2.289   6.492  19.894  0.00  0.00    +0.000 A 
ATOM      7  N   UNL     1       3.232   6.137  19.077  0.00  0.00    +0.000 NA
ATOM      8  N   UNL     1       3.638   4.814  19.092  0.00  0.00    +0.000 N 
BRANCH   6   9
ATOM      9  C   UNL     1       1.749   7.886  19.852  0.00  0.00    +0.000 A 
ATOM     10  C   UNL     1       1.811   8.609  18.651  0.00  0.00    +0.000 A 
ATOM     11  C   UNL     1       1.332   9.922  18.596  0.00  0.00    +0.000 A 
ATOM     12  C   UNL     1       0.783  10.502  19.734  0.00  0.00    +0.000 A 
ATOM     13  F   UNL     1       0.336  11.764  19.684  0.00  0.00    +0.000 F 
ATOM     14  C   UNL     1       0.683   9.790  20.922  0.00  0.00    +0.000 A 
ATOM     15  C   UNL     1       1.156   8.478  20.980  0.00  0.00    +0.000 A 
ENDBRANCH   6   9
ENDBRANCH   1   8
BRANCH   1  16
ATOM     16  C   UNL     1       4.378   4.824  16.704  0.00  0.00    +0.000 C 
BRANCH  16  17
ATOM     17  C   UNL     1       5.161   6.040  16.212  0.00  0.00    +0.000 C 
BRANCH  17  18
ATOM     18  N   UNL     1       5.682   6.790  17.389  0.00  0.00    +0.000 NA
ATOM     19  H   UNL     1       5.340   6.390  18.264  0.00  0.00    +0.000 HD
BRANCH  18  20
ATOM     20  S   UNL     1       7.386   6.863  17.438  0.00  0.00    +0.000 S 
ATOM     21  O   UNL     1       7.762   6.144  18.638  0.00  0.00    +0.000 OA
ATOM     22  O   UNL     1       7.868   6.446  16.141  0.00  0.00    +0.000 OA
BRANCH  20  23
ATOM     23  C   UNL     1       7.766   8.528  17.694  0.00  0.00    +0.000 C 
ATOM     24  C   UNL     1       8.676   8.889  18.612  0.00  0.00    +0.000 C 
BRANCH  24  25
ATOM     25  C   UNL     1       9.052  10.291  18.856  0.00  0.00    +0.000 A 
ATOM     26  C   UNL     1       9.820  10.679  19.963  0.00  0.00    +0.000 A 
ATOM     27  C   UNL     1      10.130  12.024  20.182  0.00  0.00    +0.000 A 
ATOM     28  C   UNL     1       9.696  12.994  19.284  0.00  0.00    +0.000 A 
ATOM     29  C   UNL     1       8.968  12.619  18.157  0.00  0.00    +0.000 A 
ATOM     30  C   UNL     1       8.653  11.273  17.942  0.00  0.00    +0.000 A 
ENDBRANCH  24  25
ENDBRANCH  20  23
ENDBRANCH  18  20
ENDBRANCH  17  18
ENDBRANCH  16  17
ENDBRANCH   1  16
TORSDOF 8
ENDMDL
MODEL 2
REMARK VINA RESULT:      -8.3      3.271      5.057
REMARK  Name = 
REMARK  8 active torsions:
REMARK  status: ('A' for Active; 'I' for Inactive)
REMARK    1  A    between atoms: C_5  and  C_6
REMARK    2  A    between atoms: N_14  and  C_15
REMARK    3  A    between atoms: C_15  and  C_16
REMARK    4  A    between atoms: C_16  and  C_17
REMARK    5  A    between atoms: C_17  and  N_18
REMARK    6  A    between atoms: N_18  and  S_19
REMARK    7  A    between atoms: S_19  and  C_22
REMARK    8  A    between atoms: C_23  and  C_24
REMARK                            x       y       z     vdW  Elec       q    Type
REMARK                         _______ _______ _______ _____ _____    ______ ____
ROOT
ATOM      1  C   UNL     1       2.653   6.356  20.108  0.00  0.00    +0.000 C 
ENDROOT
BRANCH   1   8
ATOM      2  O   UNL     1       3.168   7.516  17.581  0.00  0.00    +0.000 OA
ATOM      3  C   UNL     1       2.374   8.057  18.347  0.00  0.00    +0.000 A 
ATOM      4  C   UNL     1       1.649   9.256  17.893  0.00  0.00    +0.000 A 
ATOM      5  C   UNL     1       0.810   9.894  18.707  0.00  0.00    +0.000 A 
ATOM      6  C   UNL     1       0.689   9.381  20.090  0.00  0.00    +0.000 A 
ATOM      7  N   UNL     1       1.230   8.274  20.497  0.00  0.00    +0.000 NA
ATOM      8  N   UNL     1       2.050   7.593  19.616  0.00  0.00    +0.000 N 
BRANCH   6   9
ATOM      9  C   UNL     1      -0.130  10.204  21.034  0.00  0.00    +0.000 A 
ATOM     10  C   UNL     1      -0.279   9.778  22.363  0.00  0.00    +0.000 A 
ATOM     11  C   UNL     1      -1.058  10.521  23.255  0.00  0.00    +0.000 A 
ATOM     12  C   UNL     1      -1.673  11.690  22.822  0.00  0.00    +0.000 A 
ATOM     13  F   UNL     1      -2.430  12.395  23.673  0.00  0.00    +0.000 F 
ATOM     14  C   UNL     1      -1.509  12.145  21.520  0.00  0.00    +0.000 A 
ATOM     15  C   UNL     1      -0.729  11.408  20.627  0.00  0.00    +0.000 A 
ENDBRANCH   6   9
ENDBRANCH   1   8
BRANCH   1  16
ATOM     16  C   UNL     1       1.686   5.170  20.114  0.00  0.00    +0.000 C 
BRANCH  16  17
ATOM     17  C   UNL     1       1.774   4.310  18.854  0.00  0.00    +0.000 C 
BRANCH  17  18
ATOM     18  N   UNL     1       1.944   2.884  19.251  0.00  0.00    +0.000 NA
ATOM     19  H   UNL     1       1.377   2.267  18.666  0.00  0.00    +0.000 HD
BRANCH  18  20
ATOM     20  S   UNL     1       3.567   2.361  19.200  0.00  0.00    +0.000 S 
ATOM     21  O   UNL     1       3.973   2.244  20.585  0.00  0.00    +0.000 OA
ATOM     22  O   UNL     1       3.620   1.221  18.312  0.00  0.00    +0.000 OA
BRANCH  20  23
ATOM     23  C   UNL     1       4.450   3.676  18.512  0.00  0.00    +0.000 C 
ATOM     24  C   UNL     1       5.484   4.225  19.170  0.00  0.00    +0.000 C 
BRANCH  24  25
ATOM     25  C   UNL     1       6.282   5.333  18.622  0.00  0.00    +0.000 A 
ATOM     26  C   UNL     1       7.448   5.798  19.248  0.00  0.00    +0.000 A 
ATOM     27  C   UNL     1       8.163   6.875  18.717  0.00  0.00    +0.000 A 
ATOM     28  C   UNL     1       7.735   7.485  17.542  0.00  0.00    +0.000 A 
ATOM     29  C   UNL     1       6.602   7.006  16.887  0.00  0.00    +0.000 A 
ATOM     30  C   UNL     1       5.883   5.933  17.421  0.00  0.00    +0.000 A 
ENDBRANCH  24  25
ENDBRANCH  20  23
ENDBRANCH  18  20
ENDBRANCH  17  18
ENDBRANCH  16  17
ENDBRANCH   1  16
TORSDOF 8
ENDMDL
MODEL 3
REMARK VINA RESULT:      -8.0      4.336      6.165
REMARK  Name = 
REMARK  8 active torsions:
REMARK  status: ('A' for Active; 'I' for Inactive)
REMARK    1  A    between atoms: C_5  and  C_6
REMARK    2  A    between atoms: N_14  and  C_15
REMARK    3  A    between atoms: C_15  and  C_16
REMARK    4  A    between atoms: C_16  and  C_17
REMARK    5  A    between atoms: C_17  and  N_18
REMARK    6  A    between atoms: N_18  and  S_19
REMARK    7  A    between atoms: S_19  and  C_22
REMARK    8  A    between atoms: C_23  and  C_24
REMARK                            x       y       z     vdW  Elec       q    Type
REMARK                         _______ _______ _______ _____ _____    ______ ____
ROOT
ATOM      1  C   UNL     1       2.538   6.690  19.406  0.00  0.00    +0.000 C 
ENDROOT
BRANCH   1   8
ATOM      2  O   UNL     1       3.301   8.329  17.232  0.00  0.00    +0.000 OA
ATOM      3  C   UNL     1       2.470   8.738  18.038  0.00  0.00    +0.000 A 
ATOM      4  C   UNL     1       1.832  10.046  17.804  0.00  0.00    +0.000 A 
ATOM      5  C   UNL     1       0.956  10.542  18.676  0.00  0.00    +0.000 A 
ATOM      6  C   UNL     1       0.703   9.755  19.903  0.00  0.00    +0.000 A 
ATOM      7  N   UNL     1       1.165   8.558  20.099  0.00  0.00    +0.000 NA
ATOM      8  N   UNL     1       2.026   8.034  19.152  0.00  0.00    +0.000 N 
BRANCH   6   9
ATOM      9  C   UNL     1      -0.156  10.403  20.942  0.00  0.00    +0.000 A 
ATOM     10  C   UNL     1      -0.152   9.894  22.250  0.00  0.00    +0.000 A 
ATOM     11  C   UNL     1      -0.964  10.472  23.231  0.00  0.00    +0.000 A 
ATOM     12  C   UNL     1      -1.766  11.561  22.906  0.00  0.00    +0.000 A 
ATOM     13  F   UNL     1      -2.553  12.106  23.843  0.00  0.00    +0.000 F 
ATOM     14  C   UNL     1      -1.757  12.098  21.626  0.00  0.00    +0.000 A 
ATOM     15  C   UNL     1      -0.945  11.527  20.645  0.00  0.00    +0.000 A 
ENDBRANCH   6   9
ENDBRANCH   1   8
BRANCH   1  16
ATOM     16  C   UNL     1       1.879   6.007  20.608  0.00  0.00    +0.000 C 
BRANCH  16  17
ATOM     17  C   UNL     1       2.372   4.580  20.838  0.00  0.00    +0.000 C 
BRANCH  17  18
ATOM     18  N   UNL     1       1.306   3.625  20.424  0.00  0.00    +0.000 NA
ATOM     19  H   UNL     1       0.388   4.073  20.420  0.00  0.00    +0.000 HD
BRANCH  18  20
ATOM     20  S   UNL     1       1.590   2.924  18.895  0.00  0.00    +0.000 S 
ATOM     21  O   UNL     1       1.554   1.493  19.120  0.00  0.00    +0.000 OA
ATOM     22  O   UNL     1       0.681   3.551  17.963  0.00  0.00    +0.000 OA
BRANCH  20  23
ATOM     23  C   UNL     1       3.216   3.343  18.494  0.00  0.00    +0.000 C 
ATOM     24  C   UNL     1       3.538   3.719  17.247  0.00  0.00    +0.000 C 
BRANCH  24  25
ATOM     25  C   UNL     1       4.903   4.105  16.856  0.00  0.00    +0.000 A 
ATOM     26  C   UNL     1       5.901   4.391  17.800  0.00  0.00    +0.000 A 
ATOM     27  C   UNL     1       7.178   4.787  17.393  0.00  0.00    +0.000 A 
ATOM     28  C   UNL     1       7.480   4.880  16.038  0.00  0.00    +0.000 A 
ATOM     29  C   UNL     1       6.512   4.559  15.090  0.00  0.00    +0.000 A 
ATOM     30  C   UNL     1       5.232   4.169  15.497  0.00  0.00    +0.000 A 
ENDBRANCH  24  25
ENDBRANCH  20  23
ENDBRANCH  18  20
ENDBRANCH  17  18
ENDBRANCH  16  17
ENDBRANCH   1  16
TORSDOF 8
ENDMDL
MODEL 4
REMARK VINA RESULT:      -8.0      3.340      5.343
REMARK  Name = 
REMARK  8 active torsions:
REMARK  status: ('A' for Active; 'I' for Inactive)
REMARK    1  A    between atoms: C_5  and  C_6
REMARK    2  A    between atoms: N_14  and  C_15
REMARK    3  A    between atoms: C_15  and  C_16
REMARK    4  A    between atoms: C_16  and  C_17
REMARK    5  A    between atoms: C_17  and  N_18
REMARK    6  A    between atoms: N_18  and  S_19
REMARK    7  A    between atoms: S_19  and  C_22
REMARK    8  A    between atoms: C_23  and  C_24
REMARK                            x       y       z     vdW  Elec       q    Type
REMARK                         _______ _______ _______ _____ _____    ______ ____
ROOT
ATOM      1  C   UNL     1       2.555   6.811  19.755  0.00  0.00    +0.000 C 
ENDROOT
BRANCH   1   8
ATOM      2  O   UNL     1       2.973   8.177  17.315  0.00  0.00    +0.000 OA
ATOM      3  C   UNL     1       2.175   8.626  18.133  0.00  0.00    +0.000 A 
ATOM      4  C   UNL     1       1.395   9.827  17.784  0.00  0.00    +0.000 A 
ATOM      5  C   UNL     1       0.549  10.369  18.659  0.00  0.00    +0.000 A 
ATOM      6  C   UNL     1       0.477   9.749  20.001  0.00  0.00    +0.000 A 
ATOM      7  N   UNL     1       1.068   8.637  20.313  0.00  0.00    +0.000 NA
ATOM      8  N   UNL     1       1.895   8.056  19.369  0.00  0.00    +0.000 N 
BRANCH   6   9
ATOM      9  C   UNL     1      -0.353  10.466  21.019  0.00  0.00    +0.000 A 
ATOM     10  C   UNL     1      -0.392   9.982  22.335  0.00  0.00    +0.000 A 
ATOM     11  C   UNL     1      -1.178  10.625  23.296  0.00  0.00    +0.000 A 
ATOM     12  C   UNL     1      -1.911  11.753  22.943  0.00  0.00    +0.000 A 
ATOM     13  F   UNL     1      -2.675  12.360  23.861  0.00  0.00    +0.000 F 
ATOM     14  C   UNL     1      -1.858  12.265  21.654  0.00  0.00    +0.000 A 
ATOM     15  C   UNL     1      -1.072  11.629  20.692  0.00  0.00    +0.000 A 
ENDBRANCH   6   9
ENDBRANCH   1   8
BRANCH   1  16
ATOM     16  C   UNL     1       1.591   5.764  20.320  0.00  0.00    +0.000 C 
BRANCH  16  17
ATOM     17  C   UNL     1       2.300   4.567  20.951  0.00  0.00    +0.000 C 
BRANCH  17  18
ATOM     18  N   UNL     1       1.984   3.344  20.160  0.00  0.00    +0.000 NA
ATOM     19  H   UNL     1       1.321   3.548  19.411  0.00  0.00    +0.000 HD
BRANCH  18  20
ATOM     20  S   UNL     1       3.367   2.602  19.491  0.00  0.00    +0.000 S 
ATOM     21  O   UNL     1       4.146   2.154  20.627  0.00  0.00    +0.000 OA
ATOM     22  O   UNL     1       2.907   1.666  18.491  0.00  0.00    +0.000 OA
BRANCH  20  23
ATOM     23  C   UNL     1       4.249   3.878  18.732  0.00  0.00    +0.000 C 
ATOM     24  C   UNL     1       5.346   4.391  19.311  0.00  0.00    +0.000 C 
BRANCH  24  25
ATOM     25  C   UNL     1       6.145   5.464  18.699  0.00  0.00    +0.000 A 
ATOM     26  C   UNL     1       5.702   6.182  17.577  0.00  0.00    +0.000 A 
ATOM     27  C   UNL     1       6.502   7.173  17.002  0.00  0.00    +0.000 A 
ATOM     28  C   UNL     1       7.743   7.475  17.553  0.00  0.00    +0.000 A 
ATOM     29  C   UNL     1       8.177   6.800  18.691  0.00  0.00    +0.000 A 
ATOM     30  C   UNL     1       7.380   5.804  19.264  0.00  0.00    +0.000 A 
ENDBRANCH  24  25
ENDBRANCH  20  23
ENDBRANCH  18  20
ENDBRANCH  17  18
ENDBRANCH  16  17
ENDBRANCH   1  16
TORSDOF 8
ENDMDL
MODEL 5
REMARK VINA RESULT:      -8.0      0.715      1.442
REMARK  Name = 
REMARK  8 active torsions:
REMARK  status: ('A' for Active; 'I' for Inactive)
REMARK    1  A    between atoms: C_5  and  C_6
REMARK    2  A    between atoms: N_14  and  C_15
REMARK    3  A    between atoms: C_15  and  C_16
REMARK    4  A    between atoms: C_16  and  C_17
REMARK    5  A    between atoms: C_17  and  N_18
REMARK    6  A    between atoms: N_18  and  S_19
REMARK    7  A    between atoms: S_19  and  C_22
REMARK    8  A    between atoms: C_23  and  C_24
REMARK                            x       y       z     vdW  Elec       q    Type
REMARK                         _______ _______ _______ _____ _____    ______ ____
ROOT
ATOM      1  C   UNL     1       4.688   3.905  18.570  0.00  0.00    +0.000 C 
ENDROOT
BRANCH   1   8
ATOM      2  O   UNL     1       2.774   2.073  19.558  0.00  0.00    +0.000 OA
ATOM      3  C   UNL     1       2.593   3.279  19.706  0.00  0.00    +0.000 A 
ATOM      4  C   UNL     1       1.418   3.736  20.468  0.00  0.00    +0.000 A 
ATOM      5  C   UNL     1       1.165   5.036  20.616  0.00  0.00    +0.000 A 
ATOM      6  C   UNL     1       2.076   5.984  19.937  0.00  0.00    +0.000 A 
ATOM      7  N   UNL     1       3.174   5.627  19.343  0.00  0.00    +0.000 NA
ATOM      8  N   UNL     1       3.450   4.275  19.253  0.00  0.00    +0.000 N 
BRANCH   6   9
ATOM      9  C   UNL     1       1.683   7.427  19.978  0.00  0.00    +0.000 A 
ATOM     10  C   UNL     1       1.206   7.973  21.179  0.00  0.00    +0.000 A 
ATOM     11  C   UNL     1       0.813   9.314  21.233  0.00  0.00    +0.000 A 
ATOM     12  C   UNL     1       0.909  10.105  20.094  0.00  0.00    +0.000 A 
ATOM     13  F   UNL     1       0.520  11.386  20.143  0.00  0.00    +0.000 F 
ATOM     14  C   UNL     1       1.410   9.590  18.906  0.00  0.00    +0.000 A 
ATOM     15  C   UNL     1       1.807   8.253  18.849  0.00  0.00    +0.000 A 
ENDBRANCH   6   9
ENDBRANCH   1   8
BRANCH   1  16
ATOM     16  C   UNL     1       4.719   4.329  17.099  0.00  0.00    +0.000 C 
BRANCH  16  17
ATOM     17  C   UNL     1       4.900   5.833  16.905  0.00  0.00    +0.000 C 
BRANCH  17  18
ATOM     18  N   UNL     1       5.798   6.355  17.974  0.00  0.00    +0.000 NA
ATOM     19  H   UNL     1       5.619   5.892  18.867  0.00  0.00    +0.000 HD
BRANCH  18  20
ATOM     20  S   UNL     1       7.453   6.207  17.592  0.00  0.00    +0.000 S 
ATOM     21  O   UNL     1       7.894   5.004  18.267  0.00  0.00    +0.000 OA
ATOM     22  O   UNL     1       7.573   6.339  16.157  0.00  0.00    +0.000 OA
BRANCH  20  23
ATOM     23  C   UNL     1       8.223   7.546  18.366  0.00  0.00    +0.000 C 
ATOM     24  C   UNL     1       8.145   8.778  17.840  0.00  0.00    +0.000 C 
BRANCH  24  25
ATOM     25  C   UNL     1       8.765   9.955  18.468  0.00  0.00    +0.000 A 
ATOM     26  C   UNL     1       9.065  11.120  17.745  0.00  0.00    +0.000 A 
ATOM     27  C   UNL     1       9.684  12.207  18.368  0.00  0.00    +0.000 A 
ATOM     28  C   UNL     1       9.990  12.153  19.724  0.00  0.00    +0.000 A 
ATOM     29  C   UNL     1       9.660  11.020  20.463  0.00  0.00    +0.000 A 
ATOM     30  C   UNL     1       9.046   9.929  19.839  0.00  0.00    +0.000 A 
ENDBRANCH  24  25
ENDBRANCH  20  23
ENDBRANCH  18  20
ENDBRANCH  17  18
ENDBRANCH  16  17
ENDBRANCH   1  16
TORSDOF 8
ENDMDL
MODEL 6
REMARK VINA RESULT:      -7.9      3.693      8.861
REMARK  Name = 
REMARK  8 active torsions:
REMARK  status: ('A' for Active; 'I' for Inactive)
REMARK    1  A    between atoms: C_5  and  C_6
REMARK    2  A    between atoms: N_14  and  C_15
REMARK    3  A    between atoms: C_15  and  C_16
REMARK    4  A    between atoms: C_16  and  C_17
REMARK    5  A    between atoms: C_17  and  N_18
REMARK    6  A    between atoms: N_18  and  S_19
REMARK    7  A    between atoms: S_19  and  C_22
REMARK    8  A    between atoms: C_23  and  C_24
REMARK                            x       y       z     vdW  Elec       q    Type
REMARK                         _______ _______ _______ _____ _____    ______ ____
ROOT
ATOM      1  C   UNL     1       8.947  10.438  18.116  0.00  0.00    +0.000 C 
ENDROOT
BRANCH   1   8
ATOM      2  O   UNL     1      11.458  11.680  17.728  0.00  0.00    +0.000 OA
ATOM      3  C   UNL     1      10.811  11.923  18.743  0.00  0.00    +0.000 A 
ATOM      4  C   UNL     1      11.327  12.921  19.696  0.00  0.00    +0.000 A 
ATOM      5  C   UNL     1      10.676  13.183  20.828  0.00  0.00    +0.000 A 
ATOM      6  C   UNL     1       9.456  12.391  21.105  0.00  0.00    +0.000 A 
ATOM      7  N   UNL     1       8.916  11.579  20.249  0.00  0.00    +0.000 NA
ATOM      8  N   UNL     1       9.576  11.366  19.053  0.00  0.00    +0.000 N 
BRANCH   6   9
ATOM      9  C   UNL     1       8.832  12.583  22.451  0.00  0.00    +0.000 A 
ATOM     10  C   UNL     1       8.891  13.846  23.060  0.00  0.00    +0.000 A 
ATOM     11  C   UNL     1       8.333  14.041  24.327  0.00  0.00    +0.000 A 
ATOM     12  C   UNL     1       7.710  12.980  24.975  0.00  0.00    +0.000 A 
ATOM     13  F   UNL     1       7.187  13.164  26.195  0.00  0.00    +0.000 F 
ATOM     14  C   UNL     1       7.613  11.733  24.373  0.00  0.00    +0.000 A 
ATOM     15  C   UNL     1       8.165  11.535  23.107  0.00  0.00    +0.000 A 
ENDBRANCH   6   9
ENDBRANCH   1   8
BRANCH   1  16
ATOM     16  C   UNL     1       8.741   9.036  18.695  0.00  0.00    +0.000 C 
BRANCH  16  17
ATOM     17  C   UNL     1       7.937   8.115  17.781  0.00  0.00    +0.000 C 
BRANCH  17  18
ATOM     18  N   UNL     1       7.881   6.755  18.388  0.00  0.00    +0.000 NA
ATOM     19  H   UNL     1       7.425   6.776  19.302  0.00  0.00    +0.000 HD
BRANCH  18  20
ATOM     20  S   UNL     1       7.094   5.610  17.400  0.00  0.00    +0.000 S 
ATOM     21  O   UNL     1       6.648   6.352  16.238  0.00  0.00    +0.000 OA
ATOM     22  O   UNL     1       7.985   4.481  17.262  0.00  0.00    +0.000 OA
BRANCH  20  23
ATOM     23  C   UNL     1       5.686   5.136  18.280  0.00  0.00    +0.000 C 
ATOM     24  C   UNL     1       4.615   4.637  17.643  0.00  0.00    +0.000 C 
BRANCH  24  25
ATOM     25  C   UNL     1       3.398   4.201  18.345  0.00  0.00    +0.000 A 
ATOM     26  C   UNL     1       2.254   3.762  17.662  0.00  0.00    +0.000 A 
ATOM     27  C   UNL     1       1.104   3.386  18.362  0.00  0.00    +0.000 A 
ATOM     28  C   UNL     1       1.092   3.421  19.753  0.00  0.00    +0.000 A 
ATOM     29  C   UNL     1       2.234   3.814  20.445  0.00  0.00    +0.000 A 
ATOM     30  C   UNL     1       3.383   4.196  19.745  0.00  0.00    +0.000 A 
ENDBRANCH  24  25
ENDBRANCH  20  23
ENDBRANCH  18  20
ENDBRANCH  17  18
ENDBRANCH  16  17
ENDBRANCH   1  16
TORSDOF 8
ENDMDL
MODEL 7
REMARK VINA RESULT:      -7.8      4.361      6.147
REMARK  Name = 
REMARK  8 active torsions:
REMARK  status: ('A' for Active; 'I' for Inactive)
REMARK    1  A    between atoms: C_5  and  C_6
REMARK    2  A    between atoms: N_14  and  C_15
REMARK    3  A    between atoms: C_15  and  C_16
REMARK    4  A    between atoms: C_16  and  C_17
REMARK    5  A    between atoms: C_17  and  N_18
REMARK    6  A    between atoms: N_18  and  S_19
REMARK    7  A    between atoms: S_19  and  C_22
REMARK    8  A    between atoms: C_23  and  C_24
REMARK                            x       y       z     vdW  Elec       q    Type
REMARK                         _______ _______ _______ _____ _____    ______ ____
ROOT
ATOM      1  C   UNL     1       2.440   6.355  19.730  0.00  0.00    +0.000 C 
ENDROOT
BRANCH   1   8
ATOM      2  O   UNL     1       3.280   7.745  17.415  0.00  0.00    +0.000 OA
ATOM      3  C   UNL     1       2.485   8.276  18.187  0.00  0.00    +0.000 A 
ATOM      4  C   UNL     1       1.927   9.595  17.842  0.00  0.00    +0.000 A 
ATOM      5  C   UNL     1       1.094  10.221  18.671  0.00  0.00    +0.000 A 
ATOM      6  C   UNL     1       0.806   9.562  19.965  0.00  0.00    +0.000 A 
ATOM      7  N   UNL     1       1.195   8.360  20.262  0.00  0.00    +0.000 NA
ATOM      8  N   UNL     1       2.011   7.702  19.361  0.00  0.00    +0.000 N 
BRANCH   6   9
ATOM      9  C   UNL     1       0.001  10.352  20.948  0.00  0.00    +0.000 A 
ATOM     10  C   UNL     1      -0.233   9.822  22.226  0.00  0.00    +0.000 A 
ATOM     11  C   UNL     1      -1.001  10.535  23.151  0.00  0.00    +0.000 A 
ATOM     12  C   UNL     1      -1.521  11.776  22.803  0.00  0.00    +0.000 A 
ATOM     13  F   UNL     1      -2.268  12.453  23.685  0.00  0.00    +0.000 F 
ATOM     14  C   UNL     1      -1.272  12.331  21.555  0.00  0.00    +0.000 A 
ATOM     15  C   UNL     1      -0.502  11.625  20.629  0.00  0.00    +0.000 A 
ENDBRANCH   6   9
ENDBRANCH   1   8
BRANCH   1  16
ATOM     16  C   UNL     1       1.678   5.782  20.927  0.00  0.00    +0.000 C 
BRANCH  16  17
ATOM     17  C   UNL     1       1.265   4.323  20.740  0.00  0.00    +0.000 C 
BRANCH  17  18
ATOM     18  N   UNL     1       1.247   4.006  19.285  0.00  0.00    +0.000 NA
ATOM     19  H   UNL     1       1.513   4.819  18.725  0.00  0.00    +0.000 HD
BRANCH  18  20
ATOM     20  S   UNL     1       2.252   2.692  18.871  0.00  0.00    +0.000 S 
ATOM     21  O   UNL     1       3.139   2.521  20.002  0.00  0.00    +0.000 OA
ATOM     22  O   UNL     1       1.390   1.617  18.434  0.00  0.00    +0.000 OA
BRANCH  20  23
ATOM     23  C   UNL     1       3.208   3.247  17.544  0.00  0.00    +0.000 C 
ATOM     24  C   UNL     1       4.497   3.576  17.720  0.00  0.00    +0.000 C 
BRANCH  24  25
ATOM     25  C   UNL     1       5.361   4.035  16.621  0.00  0.00    +0.000 A 
ATOM     26  C   UNL     1       4.964   3.970  15.278  0.00  0.00    +0.000 A 
ATOM     27  C   UNL     1       5.824   4.385  14.257  0.00  0.00    +0.000 A 
ATOM     28  C   UNL     1       7.083   4.890  14.568  0.00  0.00    +0.000 A 
ATOM     29  C   UNL     1       7.474   5.000  15.900  0.00  0.00    +0.000 A 
ATOM     30  C   UNL     1       6.616   4.579  16.921  0.00  0.00    +0.000 A 
ENDBRANCH  24  25
ENDBRANCH  20  23
ENDBRANCH  18  20
ENDBRANCH  17  18
ENDBRANCH  16  17
ENDBRANCH   1  16
TORSDOF 8
ENDMDL
MODEL 8
REMARK VINA RESULT:      -7.8      1.502      1.733
REMARK  Name = 
REMARK  8 active torsions:
REMARK  status: ('A' for Active; 'I' for Inactive)
REMARK    1  A    between atoms: C_5  and  C_6
REMARK    2  A    between atoms: N_14  and  C_15
REMARK    3  A    between atoms: C_15  and  C_16
REMARK    4  A    between atoms: C_16  and  C_17
REMARK    5  A    between atoms: C_17  and  N_18
REMARK    6  A    between atoms: N_18  and  S_19
REMARK    7  A    between atoms: S_19  and  C_22
REMARK    8  A    between atoms: C_23  and  C_24
REMARK                            x       y       z     vdW  Elec       q    Type
REMARK                         _______ _______ _______ _____ _____    ______ ____
ROOT
ATOM      1  C   UNL     1       5.625   3.912  18.781  0.00  0.00    +0.000 C 
ENDROOT
BRANCH   1   8
ATOM      2  O   UNL     1       3.727   2.186  17.592  0.00  0.00    +0.000 OA
ATOM      3  C   UNL     1       3.383   3.307  17.957  0.00  0.00    +0.000 A 
ATOM      4  C   UNL     1       1.966   3.693  17.837  0.00  0.00    +0.000 A 
ATOM      5  C   UNL     1       1.560   4.913  18.184  0.00  0.00    +0.000 A 
ATOM      6  C   UNL     1       2.598   5.868  18.634  0.00  0.00    +0.000 A 
ATOM      7  N   UNL     1       3.835   5.539  18.848  0.00  0.00    +0.000 NA
ATOM      8  N   UNL     1       4.224   4.248  18.538  0.00  0.00    +0.000 N 
BRANCH   6   9
ATOM      9  C   UNL     1       2.149   7.277  18.862  0.00  0.00    +0.000 A 
ATOM     10  C   UNL     1       2.200   8.193  17.800  0.00  0.00    +0.000 A 
ATOM     11  C   UNL     1       1.805   9.520  17.998  0.00  0.00    +0.000 A 
ATOM     12  C   UNL     1       1.352   9.923  19.249  0.00  0.00    +0.000 A 
ATOM     13  F   UNL     1       0.987  11.198  19.442  0.00  0.00    +0.000 F 
ATOM     14  C   UNL     1       1.265   9.023  20.302  0.00  0.00    +0.000 A 
ATOM     15  C   UNL     1       1.653   7.696  20.108  0.00  0.00    +0.000 A 
ENDBRANCH   6   9
ENDBRANCH   1   8
BRANCH   1  16
ATOM     16  C   UNL     1       6.588   4.572  17.790  0.00  0.00    +0.000 C 
BRANCH  16  17
ATOM     17  C   UNL     1       7.889   5.046  18.434  0.00  0.00    +0.000 C 
BRANCH  17  18
ATOM     18  N   UNL     1       7.760   6.489  18.784  0.00  0.00    +0.000 NA
ATOM     19  H   UNL     1       8.631   6.856  19.171  0.00  0.00    +0.000 HD
BRANCH  18  20
ATOM     20  S   UNL     1       7.286   7.459  17.464  0.00  0.00    +0.000 S 
ATOM     21  O   UNL     1       7.939   6.877  16.309  0.00  0.00    +0.000 OA
ATOM     22  O   UNL     1       5.847   7.581  17.519  0.00  0.00    +0.000 OA
BRANCH  20  23
ATOM     23  C   UNL     1       8.012   9.001  17.745  0.00  0.00    +0.000 C 
ATOM     24  C   UNL     1       8.806   9.200  18.809  0.00  0.00    +0.000 C 
BRANCH  24  25
ATOM     25  C   UNL     1       9.465  10.486  19.084  0.00  0.00    +0.000 A 
ATOM     26  C   UNL     1       9.552  11.022  20.378  0.00  0.00    +0.000 A 
ATOM     27  C   UNL     1      10.156  12.262  20.599  0.00  0.00    +0.000 A 
ATOM     28  C   UNL     1      10.701  12.971  19.533  0.00  0.00    +0.000 A 
ATOM     29  C   UNL     1      10.660  12.432  18.249  0.00  0.00    +0.000 A 
ATOM     30  C   UNL     1      10.050  11.194  18.027  0.00  0.00    +0.000 A 
ENDBRANCH  24  25
ENDBRANCH  20  23
ENDBRANCH  18  20
ENDBRANCH  17  18
ENDBRANCH  16  17
ENDBRANCH   1  16
TORSDOF 8
ENDMDL
MODEL 9
REMARK VINA RESULT:      -7.8      1.247      1.628
REMARK  Name = 
REMARK  8 active torsions:
REMARK  status: ('A' for Active; 'I' for Inactive)
REMARK    1  A    between atoms: C_5  and  C_6
REMARK    2  A    between atoms: N_14  and  C_15
REMARK    3  A    between atoms: C_15  and  C_16
REMARK    4  A    between atoms: C_16  and  C_17
REMARK    5  A    between atoms: C_17  and  N_18
REMARK    6  A    between atoms: N_18  and  S_19
REMARK    7  A    between atoms: S_19  and  C_22
REMARK    8  A    between atoms: C_23  and  C_24
REMARK                            x       y       z     vdW  Elec       q    Type
REMARK                         _______ _______ _______ _____ _____    ______ ____
ROOT
ATOM      1  C   UNL     1       4.542   3.235  18.809  0.00  0.00    +0.000 C 
ENDROOT
BRANCH   1   8
ATOM      2  O   UNL     1       2.358   1.702  19.746  0.00  0.00    +0.000 OA
ATOM      3  C   UNL     1       2.299   2.928  19.782  0.00  0.00    +0.000 A 
ATOM      4  C   UNL     1       1.119   3.569  20.390  0.00  0.00    +0.000 A 
ATOM      5  C   UNL     1       0.999   4.895  20.413  0.00  0.00    +0.000 A 
ATOM      6  C   UNL     1       2.066   5.682  19.754  0.00  0.00    +0.000 A 
ATOM      7  N   UNL     1       3.165   5.163  19.298  0.00  0.00    +0.000 NA
ATOM      8  N   UNL     1       3.298   3.787  19.339  0.00  0.00    +0.000 N 
BRANCH   6   9
ATOM      9  C   UNL     1       1.834   7.156  19.646  0.00  0.00    +0.000 A 
ATOM     10  C   UNL     1       2.138   7.811  18.443  0.00  0.00    +0.000 A 
ATOM     11  C   UNL     1       1.949   9.192  18.329  0.00  0.00    +0.000 A 
ATOM     12  C   UNL     1       1.446   9.909  19.409  0.00  0.00    +0.000 A 
ATOM     13  F   UNL     1       1.278  11.234  19.304  0.00  0.00    +0.000 F 
ATOM     14  C   UNL     1       1.108   9.272  20.595  0.00  0.00    +0.000 A 
ATOM     15  C   UNL     1       1.292   7.893  20.712  0.00  0.00    +0.000 A 
ENDBRANCH   6   9
ENDBRANCH   1   8
BRANCH   1  16
ATOM     16  C   UNL     1       5.436   4.283  18.142  0.00  0.00    +0.000 C 
BRANCH  16  17
ATOM     17  C   UNL     1       6.310   5.052  19.131  0.00  0.00    +0.000 C 
BRANCH  17  18
ATOM     18  N   UNL     1       7.524   5.547  18.423  0.00  0.00    +0.000 NA
ATOM     19  H   UNL     1       7.875   4.854  17.760  0.00  0.00    +0.000 HD
BRANCH  18  20
ATOM     20  S   UNL     1       7.268   7.021  17.603  0.00  0.00    +0.000 S 
ATOM     21  O   UNL     1       7.798   6.812  16.271  0.00  0.00    +0.000 OA
ATOM     22  O   UNL     1       5.884   7.385  17.802  0.00  0.00    +0.000 OA
BRANCH  20  23
ATOM     23  C   UNL     1       8.291   8.167  18.391  0.00  0.00    +0.000 C 
ATOM     24  C   UNL     1       8.416   9.415  17.913  0.00  0.00    +0.000 C 
BRANCH  24  25
ATOM     25  C   UNL     1       9.258  10.436  18.556  0.00  0.00    +0.000 A 
ATOM     26  C   UNL     1      10.013  11.359  17.818  0.00  0.00    +0.000 A 
ATOM     27  C   UNL     1      10.828  12.294  18.461  0.00  0.00    +0.000 A 
ATOM     28  C   UNL     1      10.880  12.333  19.851  0.00  0.00    +0.000 A 
ATOM     29  C   UNL     1      10.103  11.451  20.598  0.00  0.00    +0.000 A 
ATOM     30  C   UNL     1       9.293  10.511  19.954  0.00  0.00    +0.000 A 
ENDBRANCH  24  25
ENDBRANCH  20  23
ENDBRANCH  18  20
ENDBRANCH  17  18
ENDBRANCH  16  17
ENDBRANCH   1  16
TORSDOF 8
ENDMDL
