MODEL 1
REMARK VINA RESULT:      -8.6      0.000      0.000
REMARK  Name = 
REMARK  4 active torsions:
REMARK  status: ('A' for Active; 'I' for Inactive)
REMARK    1  A    between atoms: C_1  and  N_2
REMARK    2  A    between atoms: C_6  and  C_7
REMARK    3  A    between atoms: C_13  and  C_14
REMARK    4  A    between atoms: C_16  and  C_17
REMARK                            x       y       z     vdW  Elec       q    Type
REMARK                         _______ _______ _______ _____ _____    ______ ____
ROOT
ATOM      1  C   UNL     1       4.115   4.041  17.592  0.00  0.00    +0.000 C 
ATOM      2  O   UNL     1       3.717   4.107  16.429  0.00  0.00    +0.000 OA
ATOM      3  N   UNL     1       3.337   3.429  18.588  0.00  0.00    +0.000 N 
ATOM      4  C   UNL     1       2.166   2.647  18.198  0.00  0.00    +0.000 C 
ATOM      5  C   UNL     1       0.895   3.165  18.865  0.00  0.00    +0.000 C 
ATOM      6  C   UNL     1       1.064   3.264  20.382  0.00  0.00    +0.000 C 
ATOM      7  C   UNL     1       2.290   4.099  20.768  0.00  0.00    +0.000 C 
ATOM      8  C   UNL     1       3.539   3.587  20.036  0.00  0.00    +0.000 C 
ENDROOT
BRANCH   1  14
ATOM      9  C   UNL     1       6.656   4.034  15.829  0.00  0.00    +0.000 C 
ATOM     10  N   UNL     1       6.540   4.602  17.156  0.00  0.00    +0.000 N 
ATOM     11  C   UNL     1       7.560   5.276  17.783  0.00  0.00    +0.000 A 
ATOM     12  C   UNL     1       7.150   5.578  19.059  0.00  0.00    +0.000 A 
ATOM     13  C   UNL     1       5.842   5.071  19.200  0.00  0.00    +0.000 A 
ATOM     14  C   UNL     1       5.420   4.576  17.969  0.00  0.00    +0.000 A 
ENDBRANCH   1  14
BRANCH   7  15
ATOM     15  C   UNL     1       2.082   5.559  20.527  0.00  0.00    +0.000 A 
ATOM     16  N   UNL     1       1.342   6.428  21.179  0.00  0.00    +0.000 NA
ATOM     17  C   UNL     1       1.510   7.585  20.448  0.00  0.00    +0.000 A 
ATOM     18  N   UNL     1       2.325   7.439  19.389  0.00  0.00    +0.000 NA
ATOM     19  O   UNL     1       2.698   6.098  19.436  0.00  0.00    +0.000 OA
BRANCH  17  20
ATOM     20  C   UNL     1       0.832   8.828  20.797  0.00  0.00    +0.000 A 
ATOM     21  C   UNL     1       0.286   8.995  22.075  0.00  0.00    +0.000 A 
ATOM     22  C   UNL     1      -0.372  10.176  22.431  0.00  0.00    +0.000 A 
ATOM     23  C   UNL     1      -0.503  11.201  21.497  0.00  0.00    +0.000 A 
ATOM     24  C   UNL     1       0.028  11.049  20.220  0.00  0.00    +0.000 A 
ATOM     25  C   UNL     1       0.698   9.872  19.869  0.00  0.00    +0.000 A 
ENDBRANCH  17  20
ENDBRANCH   7  15
TORSDOF 3
ENDMDL
MODEL 2
REMARK VINA RESULT:      -8.5      2.145      2.592
REMARK  Name = 
REMARK  4 active torsions:
REMARK  status: ('A' for Active; 'I' for Inactive)
REMARK    1  A    between atoms: C_1  and  N_2
REMARK    2  A    between atoms: C_6  and  C_7
REMARK    3  A    between atoms: C_13  and  C_14
REMARK    4  A    between atoms: C_16  and  C_17
REMARK                            x       y       z     vdW  Elec       q    Type
REMARK                         _______ _______ _______ _____ _____    ______ ____
ROOT
ATOM      1  C   UNL     1       5.152   5.664  16.892  0.00  0.00    +0.000 C 
ATOM      2  O   UNL     1       4.983   5.415  15.699  0.00  0.00    +0.000 OA
ATOM      3  N   UNL     1       4.305   5.119  17.870  0.00  0.00    +0.000 N 
ATOM      4  C   UNL     1       3.377   4.054  17.497  0.00  0.00    +0.000 C 
ATOM      5  C   UNL     1       1.932   4.428  17.820  0.00  0.00    +0.000 C 
ATOM      6  C   UNL     1       1.783   4.859  19.280  0.00  0.00    +0.000 C 
ATOM      7  C   UNL     1       2.757   5.984  19.646  0.00  0.00    +0.000 C 
ATOM      8  C   UNL     1       4.192   5.599  19.256  0.00  0.00    +0.000 C 
ENDROOT
BRANCH   1  14
ATOM      9  C   UNL     1       7.696   4.718  18.372  0.00  0.00    +0.000 C 
ATOM     10  N   UNL     1       7.406   6.074  17.959  0.00  0.00    +0.000 N 
ATOM     11  C   UNL     1       8.278   7.122  18.130  0.00  0.00    +0.000 A 
ATOM     12  C   UNL     1       7.643   8.274  17.733  0.00  0.00    +0.000 A 
ATOM     13  C   UNL     1       6.351   7.904  17.307  0.00  0.00    +0.000 A 
ATOM     14  C   UNL     1       6.253   6.516  17.332  0.00  0.00    +0.000 A 
ENDBRANCH   1  14
BRANCH   7  15
ATOM     15  C   UNL     1       2.365   7.294  19.044  0.00  0.00    +0.000 A 
ATOM     16  N   UNL     1       1.587   8.243  19.513  0.00  0.00    +0.000 NA
ATOM     17  C   UNL     1       1.561   9.159  18.483  0.00  0.00    +0.000 A 
ATOM     18  N   UNL     1       2.298   8.793  17.420  0.00  0.00    +0.000 NA
ATOM     19  O   UNL     1       2.824   7.557  17.787  0.00  0.00    +0.000 OA
BRANCH  17  20
ATOM     20  C   UNL     1       0.776  10.386  18.555  0.00  0.00    +0.000 A 
ATOM     21  C   UNL     1      -0.604  10.351  18.323  0.00  0.00    +0.000 A 
ATOM     22  C   UNL     1      -1.376  11.515  18.382  0.00  0.00    +0.000 A 
ATOM     23  C   UNL     1      -0.764  12.736  18.659  0.00  0.00    +0.000 A 
ATOM     24  C   UNL     1       0.608  12.788  18.886  0.00  0.00    +0.000 A 
ATOM     25  C   UNL     1       1.378  11.621  18.839  0.00  0.00    +0.000 A 
ENDBRANCH  17  20
ENDBRANCH   7  15
TORSDOF 3
ENDMDL
MODEL 3
REMARK VINA RESULT:      -8.5      1.002      1.164
REMARK  Name = 
REMARK  4 active torsions:
REMARK  status: ('A' for Active; 'I' for Inactive)
REMARK    1  A    between atoms: C_1  and  N_2
REMARK    2  A    between atoms: C_6  and  C_7
REMARK    3  A    between atoms: C_13  and  C_14
REMARK    4  A    between atoms: C_16  and  C_17
REMARK                            x       y       z     vdW  Elec       q    Type
REMARK                         _______ _______ _______ _____ _____    ______ ____
ROOT
ATOM      1  C   UNL     1       4.820   4.309  17.143  0.00  0.00    +0.000 C 
ATOM      2  O   UNL     1       4.470   4.394  15.966  0.00  0.00    +0.000 OA
ATOM      3  N   UNL     1       4.069   3.564  18.067  0.00  0.00    +0.000 N 
ATOM      4  C   UNL     1       3.009   2.683  17.581  0.00  0.00    +0.000 C 
ATOM      5  C   UNL     1       1.660   3.027  18.207  0.00  0.00    +0.000 C 
ATOM      6  C   UNL     1       1.748   3.061  19.733  0.00  0.00    +0.000 C 
ATOM      7  C   UNL     1       2.856   4.000  20.221  0.00  0.00    +0.000 C 
ATOM      8  C   UNL     1       4.186   3.664  19.530  0.00  0.00    +0.000 C 
ENDROOT
BRANCH   1  14
ATOM      9  C   UNL     1       5.433   7.336  16.995  0.00  0.00    +0.000 C 
ATOM     10  N   UNL     1       6.286   6.321  17.576  0.00  0.00    +0.000 N 
ATOM     11  C   UNL     1       7.478   6.599  18.200  0.00  0.00    +0.000 A 
ATOM     12  C   UNL     1       8.075   5.406  18.530  0.00  0.00    +0.000 A 
ATOM     13  C   UNL     1       7.212   4.381  18.092  0.00  0.00    +0.000 A 
ATOM     14  C   UNL     1       6.040   4.958  17.612  0.00  0.00    +0.000 A 
ENDBRANCH   1  14
BRANCH   7  15
ATOM     15  C   UNL     1       2.501   5.441  20.041  0.00  0.00    +0.000 A 
ATOM     16  N   UNL     1       1.826   6.250  20.825  0.00  0.00    +0.000 NA
ATOM     17  C   UNL     1       1.775   7.417  20.092  0.00  0.00    +0.000 A 
ATOM     18  N   UNL     1       2.399   7.334  18.904  0.00  0.00    +0.000 NA
ATOM     19  O   UNL     1       2.873   6.025  18.866  0.00  0.00    +0.000 OA
BRANCH  17  20
ATOM     20  C   UNL     1       1.080   8.606  20.572  0.00  0.00    +0.000 A 
ATOM     21  C   UNL     1       0.755   8.729  21.929  0.00  0.00    +0.000 A 
ATOM     22  C   UNL     1       0.084   9.856  22.412  0.00  0.00    +0.000 A 
ATOM     23  C   UNL     1      -0.284  10.870  21.530  0.00  0.00    +0.000 A 
ATOM     24  C   UNL     1       0.026  10.761  20.178  0.00  0.00    +0.000 A 
ATOM     25  C   UNL     1       0.708   9.638  19.698  0.00  0.00    +0.000 A 
ENDBRANCH  17  20
ENDBRANCH   7  15
TORSDOF 3
ENDMDL
MODEL 4
REMARK VINA RESULT:      -8.5      4.401      8.941
REMARK  Name = 
REMARK  4 active torsions:
REMARK  status: ('A' for Active; 'I' for Inactive)
REMARK    1  A    between atoms: C_1  and  N_2
REMARK    2  A    between atoms: C_6  and  C_7
REMARK    3  A    between atoms: C_13  and  C_14
REMARK    4  A    between atoms: C_16  and  C_17
REMARK                            x       y       z     vdW  Elec       q    Type
REMARK                         _______ _______ _______ _____ _____    ______ ____
ROOT
ATOM      1  C   UNL     1      -1.650  12.616  19.013  0.00  0.00    +0.000 C 
ATOM      2  O   UNL     1      -0.854  13.248  18.318  0.00  0.00    +0.000 OA
ATOM      3  N   UNL     1      -1.823  12.924  20.372  0.00  0.00    +0.000 N 
ATOM      4  C   UNL     1      -1.245  14.157  20.904  0.00  0.00    +0.000 C 
ATOM      5  C   UNL     1      -0.300  13.879  22.070  0.00  0.00    +0.000 C 
ATOM      6  C   UNL     1      -0.980  13.031  23.146  0.00  0.00    +0.000 C 
ATOM      7  C   UNL     1      -1.566  11.738  22.570  0.00  0.00    +0.000 C 
ATOM      8  C   UNL     1      -2.466  12.049  21.364  0.00  0.00    +0.000 C 
ENDROOT
BRANCH   1  14
ATOM      9  C   UNL     1      -4.731  12.605  18.754  0.00  0.00    +0.000 C 
ATOM     10  N   UNL     1      -3.833  11.566  18.296  0.00  0.00    +0.000 N 
ATOM     11  C   UNL     1      -4.253  10.445  17.622  0.00  0.00    +0.000 A 
ATOM     12  C   UNL     1      -3.166   9.624  17.441  0.00  0.00    +0.000 A 
ATOM     13  C   UNL     1      -2.059  10.276  18.023  0.00  0.00    +0.000 A 
ATOM     14  C   UNL     1      -2.456  11.542  18.443  0.00  0.00    +0.000 A 
ENDBRANCH   1  14
BRANCH   7  15
ATOM     15  C   UNL     1      -0.509  10.743  22.215  0.00  0.00    +0.000 A 
ATOM     16  N   UNL     1      -0.222  10.190  21.058  0.00  0.00    +0.000 NA
ATOM     17  C   UNL     1       0.798   9.318  21.379  0.00  0.00    +0.000 A 
ATOM     18  N   UNL     1       1.131   9.336  22.681  0.00  0.00    +0.000 NA
ATOM     19  O   UNL     1       0.262  10.273  23.236  0.00  0.00    +0.000 OA
BRANCH  17  20
ATOM     20  C   UNL     1       1.418   8.451  20.385  0.00  0.00    +0.000 A 
ATOM     21  C   UNL     1       1.628   8.915  19.080  0.00  0.00    +0.000 A 
ATOM     22  C   UNL     1       2.216   8.101  18.109  0.00  0.00    +0.000 A 
ATOM     23  C   UNL     1       2.588   6.798  18.434  0.00  0.00    +0.000 A 
ATOM     24  C   UNL     1       2.381   6.318  19.724  0.00  0.00    +0.000 A 
ATOM     25  C   UNL     1       1.804   7.139  20.699  0.00  0.00    +0.000 A 
ENDBRANCH  17  20
ENDBRANCH   7  15
TORSDOF 3
ENDMDL
MODEL 5
REMARK VINA RESULT:      -8.4      1.548      2.125
REMARK  Name = 
REMARK  4 active torsions:
REMARK  status: ('A' for Active; 'I' for Inactive)
REMARK    1  A    between atoms: C_1  and  N_2
REMARK    2  A    between atoms: C_6  and  C_7
REMARK    3  A    between atoms: C_13  and  C_14
REMARK    4  A    between atoms: C_16  and  C_17
REMARK                            x       y       z     vdW  Elec       q    Type
REMARK                         _______ _______ _______ _____ _____    ______ ____
ROOT
ATOM      1  C   UNL     1       4.799   4.091  17.088  0.00  0.00    +0.000 C 
ATOM      2  O   UNL     1       4.275   4.050  15.975  0.00  0.00    +0.000 OA
ATOM      3  N   UNL     1       4.425   3.187  18.095  0.00  0.00    +0.000 N 
ATOM      4  C   UNL     1       3.594   2.036  17.749  0.00  0.00    +0.000 C 
ATOM      5  C   UNL     1       2.306   2.004  18.567  0.00  0.00    +0.000 C 
ATOM      6  C   UNL     1       2.597   2.094  20.065  0.00  0.00    +0.000 C 
ATOM      7  C   UNL     1       3.458   3.315  20.408  0.00  0.00    +0.000 C 
ATOM      8  C   UNL     1       4.716   3.348  19.528  0.00  0.00    +0.000 C 
ENDROOT
BRANCH   1  14
ATOM      9  C   UNL     1       4.910   7.007  16.065  0.00  0.00    +0.000 C 
ATOM     10  N   UNL     1       5.861   6.380  16.958  0.00  0.00    +0.000 N 
ATOM     11  C   UNL     1       6.925   7.044  17.519  0.00  0.00    +0.000 A 
ATOM     12  C   UNL     1       7.679   6.130  18.215  0.00  0.00    +0.000 A 
ATOM     13  C   UNL     1       7.044   4.880  18.069  0.00  0.00    +0.000 A 
ATOM     14  C   UNL     1       5.843   5.065  17.390  0.00  0.00    +0.000 A 
ENDBRANCH   1  14
BRANCH   7  15
ATOM     15  C   UNL     1       2.694   4.595  20.308  0.00  0.00    +0.000 A 
ATOM     16  N   UNL     1       2.947   5.680  19.612  0.00  0.00    +0.000 NA
ATOM     17  C   UNL     1       1.925   6.529  19.981  0.00  0.00    +0.000 A 
ATOM     18  N   UNL     1       1.071   5.989  20.867  0.00  0.00    +0.000 NA
ATOM     19  O   UNL     1       1.582   4.712  21.089  0.00  0.00    +0.000 OA
BRANCH  17  20
ATOM     20  C   UNL     1       1.822   7.889  19.466  0.00  0.00    +0.000 A 
ATOM     21  C   UNL     1       1.222   8.890  20.241  0.00  0.00    +0.000 A 
ATOM     22  C   UNL     1       1.106  10.199  19.766  0.00  0.00    +0.000 A 
ATOM     23  C   UNL     1       1.581  10.517  18.495  0.00  0.00    +0.000 A 
ATOM     24  C   UNL     1       2.174   9.533  17.710  0.00  0.00    +0.000 A 
ATOM     25  C   UNL     1       2.300   8.225  18.190  0.00  0.00    +0.000 A 
ENDBRANCH  17  20
ENDBRANCH   7  15
TORSDOF 3
ENDMDL
MODEL 6
REMARK VINA RESULT:      -8.4      1.181      1.687
REMARK  Name = 
REMARK  4 active torsions:
REMARK  status: ('A' for Active; 'I' for Inactive)
REMARK    1  A    between atoms: C_1  and  N_2
REMARK    2  A    between atoms: C_6  and  C_7
REMARK    3  A    between atoms: C_13  and  C_14
REMARK    4  A    between atoms: C_16  and  C_17
REMARK                            x       y       z     vdW  Elec       q    Type
REMARK                         _______ _______ _______ _____ _____    ______ ____
ROOT
ATOM      1  C   UNL     1       4.441   4.291  17.442  0.00  0.00    +0.000 C 
ATOM      2  O   UNL     1       4.055   4.038  16.301  0.00  0.00    +0.000 OA
ATOM      3  N   UNL     1       3.695   3.887  18.562  0.00  0.00    +0.000 N 
ATOM      4  C   UNL     1       2.590   2.949  18.383  0.00  0.00    +0.000 C 
ATOM      5  C   UNL     1       1.274   3.520  18.906  0.00  0.00    +0.000 C 
ATOM      6  C   UNL     1       1.414   4.002  20.351  0.00  0.00    +0.000 C 
ATOM      7  C   UNL     1       2.570   4.995  20.513  0.00  0.00    +0.000 C 
ATOM      8  C   UNL     1       3.864   4.412  19.925  0.00  0.00    +0.000 C 
ENDROOT
BRANCH   1  14
ATOM      9  C   UNL     1       5.169   7.091  16.352  0.00  0.00    +0.000 C 
ATOM     10  N   UNL     1       5.996   6.268  17.209  0.00  0.00    +0.000 N 
ATOM     11  C   UNL     1       7.214   6.671  17.701  0.00  0.00    +0.000 A 
ATOM     12  C   UNL     1       7.772   5.613  18.377  0.00  0.00    +0.000 A 
ATOM     13  C   UNL     1       6.858   4.544  18.291  0.00  0.00    +0.000 A 
ATOM     14  C   UNL     1       5.697   4.997  17.670  0.00  0.00    +0.000 A 
ENDBRANCH   1  14
BRANCH   7  15
ATOM     15  C   UNL     1       2.260   6.331  19.919  0.00  0.00    +0.000 A 
ATOM     16  N   UNL     1       1.656   7.372  20.446  0.00  0.00    +0.000 NA
ATOM     17  C   UNL     1       1.611   8.266  19.398  0.00  0.00    +0.000 A 
ATOM     18  N   UNL     1       2.170   7.798  18.268  0.00  0.00    +0.000 NA
ATOM     19  O   UNL     1       2.593   6.516  18.610  0.00  0.00    +0.000 OA
BRANCH  17  20
ATOM     20  C   UNL     1       0.985   9.577  19.522  0.00  0.00    +0.000 A 
ATOM     21  C   UNL     1       1.336  10.609  18.642  0.00  0.00    +0.000 A 
ATOM     22  C   UNL     1       0.754  11.875  18.745  0.00  0.00    +0.000 A 
ATOM     23  C   UNL     1      -0.182  12.125  19.747  0.00  0.00    +0.000 A 
ATOM     24  C   UNL     1      -0.537  11.113  20.634  0.00  0.00    +0.000 A 
ATOM     25  C   UNL     1       0.038   9.842  20.522  0.00  0.00    +0.000 A 
ENDBRANCH  17  20
ENDBRANCH   7  15
TORSDOF 3
ENDMDL
MODEL 7
REMARK VINA RESULT:      -8.4      1.612      1.929
REMARK  Name = 
REMARK  4 active torsions:
REMARK  status: ('A' for Active; 'I' for Inactive)
REMARK    1  A    between atoms: C_1  and  N_2
REMARK    2  A    between atoms: C_6  and  C_7
REMARK    3  A    between atoms: C_13  and  C_14
REMARK    4  A    between atoms: C_16  and  C_17
REMARK                            x       y       z     vdW  Elec       q    Type
REMARK                         _______ _______ _______ _____ _____    ______ ____
ROOT
ATOM      1  C   UNL     1       4.370   4.362  17.541  0.00  0.00    +0.000 C 
ATOM      2  O   UNL     1       3.971   3.941  16.456  0.00  0.00    +0.000 OA
ATOM      3  N   UNL     1       3.631   4.145  18.715  0.00  0.00    +0.000 N 
ATOM      4  C   UNL     1       2.513   3.204  18.692  0.00  0.00    +0.000 C 
ATOM      5  C   UNL     1       1.210   3.866  19.130  0.00  0.00    +0.000 C 
ATOM      6  C   UNL     1       1.368   4.564  20.482  0.00  0.00    +0.000 C 
ATOM      7  C   UNL     1       2.537   5.555  20.481  0.00  0.00    +0.000 C 
ATOM      8  C   UNL     1       3.818   4.872  19.980  0.00  0.00    +0.000 C 
ENDROOT
BRANCH   1  14
ATOM      9  C   UNL     1       5.095   6.988  16.078  0.00  0.00    +0.000 C 
ATOM     10  N   UNL     1       5.935   6.276  17.018  0.00  0.00    +0.000 N 
ATOM     11  C   UNL     1       7.166   6.727  17.427  0.00  0.00    +0.000 A 
ATOM     12  C   UNL     1       7.731   5.762  18.224  0.00  0.00    +0.000 A 
ATOM     13  C   UNL     1       6.807   4.699  18.299  0.00  0.00    +0.000 A 
ATOM     14  C   UNL     1       5.637   5.079  17.648  0.00  0.00    +0.000 A 
ENDBRANCH   1  14
BRANCH   7  15
ATOM     15  C   UNL     1       2.236   6.787  19.690  0.00  0.00    +0.000 A 
ATOM     16  N   UNL     1       1.712   7.930  20.071  0.00  0.00    +0.000 NA
ATOM     17  C   UNL     1       1.626   8.638  18.891  0.00  0.00    +0.000 A 
ATOM     18  N   UNL     1       2.083   7.961  17.823  0.00  0.00    +0.000 NA
ATOM     19  O   UNL     1       2.480   6.734  18.350  0.00  0.00    +0.000 OA
BRANCH  17  20
ATOM     20  C   UNL     1       1.062   9.982  18.831  0.00  0.00    +0.000 A 
ATOM     21  C   UNL     1      -0.313  10.174  19.013  0.00  0.00    +0.000 A 
ATOM     22  C   UNL     1      -0.877  11.451  18.955  0.00  0.00    +0.000 A 
ATOM     23  C   UNL     1      -0.065  12.554  18.697  0.00  0.00    +0.000 A 
ATOM     24  C   UNL     1       1.303  12.379  18.508  0.00  0.00    +0.000 A 
ATOM     25  C   UNL     1       1.868  11.101  18.578  0.00  0.00    +0.000 A 
ENDBRANCH  17  20
ENDBRANCH   7  15
TORSDOF 3
ENDMDL
MODEL 8
REMARK VINA RESULT:      -8.3      3.655      8.189
REMARK  Name = 
REMARK  4 active torsions:
REMARK  status: ('A' for Active; 'I' for Inactive)
REMARK    1  A    between atoms: C_1  and  N_2
REMARK    2  A    between atoms: C_6  and  C_7
REMARK    3  A    between atoms: C_13  and  C_14
REMARK    4  A    between atoms: C_16  and  C_17
REMARK                            x       y       z     vdW  Elec       q    Type
REMARK                         _______ _______ _______ _____ _____    ______ ____
ROOT
ATOM      1  C   UNL     1       3.754   5.549  17.789  0.00  0.00    +0.000 C 
ATOM      2  O   UNL     1       3.025   6.497  17.496  0.00  0.00    +0.000 OA
ATOM      3  N   UNL     1       5.090   5.757  18.169  0.00  0.00    +0.000 N 
ATOM      4  C   UNL     1       5.546   7.114  18.461  0.00  0.00    +0.000 C 
ATOM      5  C   UNL     1       6.733   7.510  17.587  0.00  0.00    +0.000 C 
ATOM      6  C   UNL     1       7.857   6.476  17.674  0.00  0.00    +0.000 C 
ATOM      7  C   UNL     1       7.359   5.063  17.353  0.00  0.00    +0.000 C 
ATOM      8  C   UNL     1       6.131   4.719  18.208  0.00  0.00    +0.000 C 
ENDROOT
BRANCH   1  14
ATOM      9  C   UNL     1       2.728   3.970  20.241  0.00  0.00    +0.000 C 
ATOM     10  N   UNL     1       2.754   3.497  18.873  0.00  0.00    +0.000 N 
ATOM     11  C   UNL     1       2.258   2.277  18.482  0.00  0.00    +0.000 A 
ATOM     12  C   UNL     1       2.545   2.106  17.150  0.00  0.00    +0.000 A 
ATOM     13  C   UNL     1       3.232   3.263  16.727  0.00  0.00    +0.000 A 
ATOM     14  C   UNL     1       3.248   4.181  17.774  0.00  0.00    +0.000 A 
ENDBRANCH   1  14
BRANCH   7  15
ATOM     15  C   UNL     1       7.075   4.878  15.897  0.00  0.00    +0.000 A 
ATOM     16  N   UNL     1       6.297   4.011  15.290  0.00  0.00    +0.000 NA
ATOM     17  C   UNL     1       6.500   4.295  13.956  0.00  0.00    +0.000 A 
ATOM     18  N   UNL     1       7.366   5.302  13.747  0.00  0.00    +0.000 NA
ATOM     19  O   UNL     1       7.752   5.683  15.030  0.00  0.00    +0.000 OA
BRANCH  17  20
ATOM     20  C   UNL     1       5.847   3.540  12.893  0.00  0.00    +0.000 A 
ATOM     21  C   UNL     1       6.497   2.447  12.307  0.00  0.00    +0.000 A 
ATOM     22  C   UNL     1       5.893   1.711  11.284  0.00  0.00    +0.000 A 
ATOM     23  C   UNL     1       4.630   2.077  10.824  0.00  0.00    +0.000 A 
ATOM     24  C   UNL     1       3.973   3.164  11.392  0.00  0.00    +0.000 A 
ATOM     25  C   UNL     1       4.573   3.892  12.425  0.00  0.00    +0.000 A 
ENDBRANCH  17  20
ENDBRANCH   7  15
TORSDOF 3
ENDMDL
MODEL 9
REMARK VINA RESULT:      -8.2      1.491      2.004
REMARK  Name = 
REMARK  4 active torsions:
REMARK  status: ('A' for Active; 'I' for Inactive)
REMARK    1  A    between atoms: C_1  and  N_2
REMARK    2  A    between atoms: C_6  and  C_7
REMARK    3  A    between atoms: C_13  and  C_14
REMARK    4  A    between atoms: C_16  and  C_17
REMARK                            x       y       z     vdW  Elec       q    Type
REMARK                         _______ _______ _______ _____ _____    ______ ____
ROOT
ATOM      1  C   UNL     1       4.802   4.671  16.895  0.00  0.00    +0.000 C 
ATOM      2  O   UNL     1       4.224   4.574  15.813  0.00  0.00    +0.000 OA
ATOM      3  N   UNL     1       4.601   3.719  17.909  0.00  0.00    +0.000 N 
ATOM      4  C   UNL     1       3.901   2.477  17.592  0.00  0.00    +0.000 C 
ATOM      5  C   UNL     1       2.675   2.278  18.480  0.00  0.00    +0.000 C 
ATOM      6  C   UNL     1       3.038   2.392  19.962  0.00  0.00    +0.000 C 
ATOM      7  C   UNL     1       3.760   3.708  20.274  0.00  0.00    +0.000 C 
ATOM      8  C   UNL     1       4.952   3.904  19.325  0.00  0.00    +0.000 C 
ENDROOT
BRANCH   1  14
ATOM      9  C   UNL     1       7.833   4.381  17.433  0.00  0.00    +0.000 C 
ATOM     10  N   UNL     1       7.097   5.625  17.353  0.00  0.00    +0.000 N 
ATOM     11  C   UNL     1       7.685   6.862  17.454  0.00  0.00    +0.000 A 
ATOM     12  C   UNL     1       6.690   7.809  17.450  0.00  0.00    +0.000 A 
ATOM     13  C   UNL     1       5.467   7.118  17.340  0.00  0.00    +0.000 A 
ATOM     14  C   UNL     1       5.734   5.764  17.153  0.00  0.00    +0.000 A 
ENDBRANCH   1  14
BRANCH   7  15
ATOM     15  C   UNL     1       2.839   4.884  20.236  0.00  0.00    +0.000 A 
ATOM     16  N   UNL     1       2.995   6.064  19.679  0.00  0.00    +0.000 NA
ATOM     17  C   UNL     1       1.842   6.730  20.039  0.00  0.00    +0.000 A 
ATOM     18  N   UNL     1       1.004   5.989  20.785  0.00  0.00    +0.000 NA
ATOM     19  O   UNL     1       1.666   4.771  20.921  0.00  0.00    +0.000 OA
BRANCH  17  20
ATOM     20  C   UNL     1       1.594   8.115  19.657  0.00  0.00    +0.000 A 
ATOM     21  C   UNL     1       0.967   8.989  20.554  0.00  0.00    +0.000 A 
ATOM     22  C   UNL     1       0.715  10.319  20.208  0.00  0.00    +0.000 A 
ATOM     23  C   UNL     1       1.077  10.786  18.946  0.00  0.00    +0.000 A 
ATOM     24  C   UNL     1       1.695   9.928  18.041  0.00  0.00    +0.000 A 
ATOM     25  C   UNL     1       1.959   8.600  18.392  0.00  0.00    +0.000 A 
ENDBRANCH  17  20
ENDBRANCH   7  15
TORSDOF 3
ENDMDL
