MODEL 1
REMARK VINA RESULT:      -7.4      0.000      0.000
REMARK  Name = 
REMARK  9 active torsions:
REMARK  status: ('A' for Active; 'I' for Inactive)
REMARK    1  A    between atoms: C_1  and  C_2
REMARK    2  A    between atoms: C_4  and  C_5
REMARK    3  A    between atoms: C_6  and  C_7
REMARK    4  A    between atoms: C_7  and  C_8
REMARK    5  A    between atoms: C_8  and  N_9
REMARK    6  A    between atoms: N_9  and  C_10
REMARK    7  A    between atoms: C_13  and  S_14
REMARK    8  A    between atoms: S_14  and  N_15
REMARK    9  A    between atoms: C_19  and  C_20
REMARK                            x       y       z     vdW  Elec       q    Type
REMARK                         _______ _______ _______ _____ _____    ______ ____
ROOT
ATOM      1  C   UNL     1       2.810   5.120  19.330  0.00  0.00    +0.000 A 
ATOM      2  C   UNL     1       2.770   6.342  18.631  0.00  0.00    +0.000 A 
ATOM      3  C   UNL     1       2.176   7.484  19.168  0.00  0.00    +0.000 A 
ATOM      4  C   UNL     1       1.557   7.415  20.410  0.00  0.00    +0.000 A 
ATOM      5  C   UNL     1       1.533   6.215  21.121  0.00  0.00    +0.000 A 
ATOM      6  C   UNL     1       2.142   5.067  20.578  0.00  0.00    +0.000 A 
ENDROOT
BRANCH   4   7
ATOM      7  S   UNL     1       0.841   8.878  21.093  0.00  0.00    +0.000 S 
ATOM      8  O   UNL     1       1.064   9.979  20.187  0.00  0.00    +0.000 OA
ATOM      9  O   UNL     1      -0.463   8.560  21.626  0.00  0.00    +0.000 OA
BRANCH   7  10
ATOM     10  N   UNL     1       1.835   9.152  22.416  0.00  0.00    +0.000 NA
ATOM     11  H   UNL     1       2.779   9.382  22.102  0.00  0.00    +0.000 HD
ATOM     12  H   UNL     1       1.421   9.860  23.024  0.00  0.00    +0.000 HD
ENDBRANCH   7  10
ENDBRANCH   4   7
BRANCH   1  13
ATOM     13  N   UNL     1       3.381   3.968  18.739  0.00  0.00    +0.000 N 
ATOM     14  H   UNL     1       2.814   3.131  18.887  0.00  0.00    +0.000 HD
BRANCH  13  15
ATOM     15  C   UNL     1       4.807   3.717  19.006  0.00  0.00    +0.000 C 
BRANCH  15  16
ATOM     16  C   UNL     1       5.633   5.006  18.926  0.00  0.00    +0.000 C 
BRANCH  16  22
ATOM     17  C   UNL     1       6.936   4.576  13.785  0.00  0.00    +0.000 C 
ATOM     18  C   UNL     1       6.810   4.986  15.210  0.00  0.00    +0.000 A 
ATOM     19  N   UNL     1       7.461   5.991  15.753  0.00  0.00    +0.000 NA
ATOM     20  C   UNL     1       7.120   6.121  17.090  0.00  0.00    +0.000 A 
ATOM     21  C   UNL     1       7.761   7.211  17.872  0.00  0.00    +0.000 C 
ATOM     22  C   UNL     1       6.205   5.187  17.550  0.00  0.00    +0.000 A 
ATOM     23  S   UNL     1       5.765   4.131  16.269  0.00  0.00    +0.000 S 
ENDBRANCH  16  22
ENDBRANCH  15  16
ENDBRANCH  13  15
ENDBRANCH   1  13
BRANCH   6  24
ATOM     24  C   UNL     1       2.093   3.856  21.354  0.00  0.00    +0.000 C 
ATOM     25  N   UNL     1       2.062   2.890  21.995  0.00  0.00    +0.000 NA
ENDBRANCH   6  24
TORSDOF 7
ENDMDL
MODEL 2
REMARK VINA RESULT:      -7.3      0.919      1.883
REMARK  Name = 
REMARK  9 active torsions:
REMARK  status: ('A' for Active; 'I' for Inactive)
REMARK    1  A    between atoms: C_1  and  C_2
REMARK    2  A    between atoms: C_4  and  C_5
REMARK    3  A    between atoms: C_6  and  C_7
REMARK    4  A    between atoms: C_7  and  C_8
REMARK    5  A    between atoms: C_8  and  N_9
REMARK    6  A    between atoms: N_9  and  C_10
REMARK    7  A    between atoms: C_13  and  S_14
REMARK    8  A    between atoms: S_14  and  N_15
REMARK    9  A    between atoms: C_19  and  C_20
REMARK                            x       y       z     vdW  Elec       q    Type
REMARK                         _______ _______ _______ _____ _____    ______ ____
ROOT
ATOM      1  C   UNL     1       2.787   5.132  19.372  0.00  0.00    +0.000 A 
ATOM      2  C   UNL     1       2.829   6.382  18.723  0.00  0.00    +0.000 A 
ATOM      3  C   UNL     1       2.238   7.521  19.271  0.00  0.00    +0.000 A 
ATOM      4  C   UNL     1       1.540   7.423  20.468  0.00  0.00    +0.000 A 
ATOM      5  C   UNL     1       1.434   6.197  21.125  0.00  0.00    +0.000 A 
ATOM      6  C   UNL     1       2.041   5.052  20.573  0.00  0.00    +0.000 A 
ENDROOT
BRANCH   4   7
ATOM      7  S   UNL     1       0.829   8.881  21.167  0.00  0.00    +0.000 S 
ATOM      8  O   UNL     1       1.026   9.984  20.257  0.00  0.00    +0.000 OA
ATOM      9  O   UNL     1      -0.462   8.554  21.725  0.00  0.00    +0.000 OA
BRANCH   7  10
ATOM     10  N   UNL     1       1.847   9.161  22.470  0.00  0.00    +0.000 NA
ATOM     11  H   UNL     1       1.617   8.525  23.235  0.00  0.00    +0.000 HD
ATOM     12  H   UNL     1       2.821   9.106  22.170  0.00  0.00    +0.000 HD
ENDBRANCH   7  10
ENDBRANCH   4   7
BRANCH   1  13
ATOM     13  N   UNL     1       3.358   3.987  18.769  0.00  0.00    +0.000 N 
ATOM     14  H   UNL     1       4.166   3.635  19.285  0.00  0.00    +0.000 HD
BRANCH  13  15
ATOM     15  C   UNL     1       3.619   4.053  17.321  0.00  0.00    +0.000 C 
BRANCH  15  16
ATOM     16  C   UNL     1       5.031   3.565  16.979  0.00  0.00    +0.000 C 
BRANCH  16  22
ATOM     17  C   UNL     1       8.149   7.728  18.104  0.00  0.00    +0.000 C 
ATOM     18  C   UNL     1       7.407   6.621  17.441  0.00  0.00    +0.000 A 
ATOM     19  N   UNL     1       7.478   6.343  16.158  0.00  0.00    +0.000 NA
ATOM     20  C   UNL     1       6.680   5.252  15.855  0.00  0.00    +0.000 A 
ATOM     21  C   UNL     1       6.634   4.791  14.442  0.00  0.00    +0.000 C 
ATOM     22  C   UNL     1       5.995   4.716  16.934  0.00  0.00    +0.000 A 
ATOM     23  S   UNL     1       6.371   5.603  18.355  0.00  0.00    +0.000 S 
ENDBRANCH  16  22
ENDBRANCH  15  16
ENDBRANCH  13  15
ENDBRANCH   1  13
BRANCH   6  24
ATOM     24  C   UNL     1       1.905   3.814  21.293  0.00  0.00    +0.000 C 
ATOM     25  N   UNL     1       1.816   2.811  21.869  0.00  0.00    +0.000 NA
ENDBRANCH   6  24
TORSDOF 7
ENDMDL
MODEL 3
REMARK VINA RESULT:      -7.2      1.007      1.211
REMARK  Name = 
REMARK  9 active torsions:
REMARK  status: ('A' for Active; 'I' for Inactive)
REMARK    1  A    between atoms: C_1  and  C_2
REMARK    2  A    between atoms: C_4  and  C_5
REMARK    3  A    between atoms: C_6  and  C_7
REMARK    4  A    between atoms: C_7  and  C_8
REMARK    5  A    between atoms: C_8  and  N_9
REMARK    6  A    between atoms: N_9  and  C_10
REMARK    7  A    between atoms: C_13  and  S_14
REMARK    8  A    between atoms: S_14  and  N_15
REMARK    9  A    between atoms: C_19  and  C_20
REMARK                            x       y       z     vdW  Elec       q    Type
REMARK                         _______ _______ _______ _____ _____    ______ ____
ROOT
ATOM      1  C   UNL     1       2.867   5.378  19.281  0.00  0.00    +0.000 A 
ATOM      2  C   UNL     1       2.810   6.633  18.645  0.00  0.00    +0.000 A 
ATOM      3  C   UNL     1       2.183   7.733  19.231  0.00  0.00    +0.000 A 
ATOM      4  C   UNL     1       1.547   7.587  20.458  0.00  0.00    +0.000 A 
ATOM      5  C   UNL     1       1.539   6.352  21.105  0.00  0.00    +0.000 A 
ATOM      6  C   UNL     1       2.181   5.246  20.515  0.00  0.00    +0.000 A 
ENDROOT
BRANCH   4   7
ATOM      7  S   UNL     1       0.790   8.998  21.203  0.00  0.00    +0.000 S 
ATOM      8  O   UNL     1       0.973  10.141  20.342  0.00  0.00    +0.000 OA
ATOM      9  O   UNL     1      -0.500   8.617  21.728  0.00  0.00    +0.000 OA
BRANCH   7  10
ATOM     10  N   UNL     1       1.782   9.249  22.532  0.00  0.00    +0.000 NA
ATOM     11  H   UNL     1       2.530   8.555  22.545  0.00  0.00    +0.000 HD
ATOM     12  H   UNL     1       2.117  10.213  22.541  0.00  0.00    +0.000 HD
ENDBRANCH   7  10
ENDBRANCH   4   7
BRANCH   1  13
ATOM     13  N   UNL     1       3.471   4.270  18.642  0.00  0.00    +0.000 N 
ATOM     14  H   UNL     1       4.280   3.917  19.154  0.00  0.00    +0.000 HD
BRANCH  13  15
ATOM     15  C   UNL     1       3.749   4.400  17.201  0.00  0.00    +0.000 C 
BRANCH  15  16
ATOM     16  C   UNL     1       4.844   3.429  16.747  0.00  0.00    +0.000 C 
BRANCH  16  22
ATOM     17  C   UNL     1       7.742   5.237  12.666  0.00  0.00    +0.000 C 
ATOM     18  C   UNL     1       7.170   4.942  14.008  0.00  0.00    +0.000 A 
ATOM     19  N   UNL     1       7.637   5.427  15.137  0.00  0.00    +0.000 NA
ATOM     20  C   UNL     1       6.882   4.973  16.206  0.00  0.00    +0.000 A 
ATOM     21  C   UNL     1       7.265   5.420  17.572  0.00  0.00    +0.000 C 
ATOM     22  C   UNL     1       5.840   4.126  15.864  0.00  0.00    +0.000 A 
ATOM     23  S   UNL     1       5.811   3.905  14.161  0.00  0.00    +0.000 S 
ENDBRANCH  16  22
ENDBRANCH  15  16
ENDBRANCH  13  15
ENDBRANCH   1  13
BRANCH   6  24
ATOM     24  C   UNL     1       2.147   3.997  21.226  0.00  0.00    +0.000 C 
ATOM     25  N   UNL     1       2.140   2.992  21.804  0.00  0.00    +0.000 NA
ENDBRANCH   6  24
TORSDOF 7
ENDMDL
MODEL 4
REMARK VINA RESULT:      -7.0      3.773      7.536
REMARK  Name = 
REMARK  9 active torsions:
REMARK  status: ('A' for Active; 'I' for Inactive)
REMARK    1  A    between atoms: C_1  and  C_2
REMARK    2  A    between atoms: C_4  and  C_5
REMARK    3  A    between atoms: C_6  and  C_7
REMARK    4  A    between atoms: C_7  and  C_8
REMARK    5  A    between atoms: C_8  and  N_9
REMARK    6  A    between atoms: N_9  and  C_10
REMARK    7  A    between atoms: C_13  and  S_14
REMARK    8  A    between atoms: S_14  and  N_15
REMARK    9  A    between atoms: C_19  and  C_20
REMARK                            x       y       z     vdW  Elec       q    Type
REMARK                         _______ _______ _______ _____ _____    ______ ____
ROOT
ATOM      1  C   UNL     1       3.411   5.945  18.996  0.00  0.00    +0.000 A 
ATOM      2  C   UNL     1       3.988   6.860  18.094  0.00  0.00    +0.000 A 
ATOM      3  C   UNL     1       5.008   6.493  17.216  0.00  0.00    +0.000 A 
ATOM      4  C   UNL     1       5.515   5.200  17.257  0.00  0.00    +0.000 A 
ATOM      5  C   UNL     1       5.005   4.271  18.164  0.00  0.00    +0.000 A 
ATOM      6  C   UNL     1       3.969   4.643  19.042  0.00  0.00    +0.000 A 
ENDROOT
BRANCH   4   7
ATOM      7  S   UNL     1       6.781   4.739  16.114  0.00  0.00    +0.000 S 
ATOM      8  O   UNL     1       6.324   3.616  15.332  0.00  0.00    +0.000 OA
ATOM      9  O   UNL     1       7.330   5.933  15.515  0.00  0.00    +0.000 OA
BRANCH   7  10
ATOM     10  N   UNL     1       7.963   4.144  17.144  0.00  0.00    +0.000 NA
ATOM     11  H   UNL     1       7.534   3.789  18.000  0.00  0.00    +0.000 HD
ATOM     12  H   UNL     1       8.536   3.454  16.657  0.00  0.00    +0.000 HD
ENDBRANCH   7  10
ENDBRANCH   4   7
BRANCH   1  13
ATOM     13  N   UNL     1       2.409   6.360  19.904  0.00  0.00    +0.000 N 
ATOM     14  H   UNL     1       1.653   5.679  19.990  0.00  0.00    +0.000 HD
BRANCH  13  15
ATOM     15  C   UNL     1       1.896   7.732  19.752  0.00  0.00    +0.000 C 
BRANCH  15  16
ATOM     16  C   UNL     1       1.283   8.254  21.056  0.00  0.00    +0.000 C 
BRANCH  16  22
ATOM     17  C   UNL     1      -1.116  12.507  18.943  0.00  0.00    +0.000 C 
ATOM     18  C   UNL     1      -0.623  11.431  19.845  0.00  0.00    +0.000 A 
ATOM     19  N   UNL     1      -0.934  11.329  21.118  0.00  0.00    +0.000 NA
ATOM     20  C   UNL     1      -0.325  10.218  21.677  0.00  0.00    +0.000 A 
ATOM     21  C   UNL     1      -0.564   9.940  23.118  0.00  0.00    +0.000 C 
ATOM     22  C   UNL     1       0.462   9.485  20.802  0.00  0.00    +0.000 A 
ATOM     23  S   UNL     1       0.426  10.212  19.247  0.00  0.00    +0.000 S 
ENDBRANCH  16  22
ENDBRANCH  15  16
ENDBRANCH  13  15
ENDBRANCH   1  13
BRANCH   6  24
ATOM     24  C   UNL     1       3.477   3.646  19.954  0.00  0.00    +0.000 C 
ATOM     25  N   UNL     1       3.063   2.841  20.678  0.00  0.00    +0.000 NA
ENDBRANCH   6  24
TORSDOF 7
ENDMDL
MODEL 5
REMARK VINA RESULT:      -6.9      3.917      7.693
REMARK  Name = 
REMARK  9 active torsions:
REMARK  status: ('A' for Active; 'I' for Inactive)
REMARK    1  A    between atoms: C_1  and  C_2
REMARK    2  A    between atoms: C_4  and  C_5
REMARK    3  A    between atoms: C_6  and  C_7
REMARK    4  A    between atoms: C_7  and  C_8
REMARK    5  A    between atoms: C_8  and  N_9
REMARK    6  A    between atoms: N_9  and  C_10
REMARK    7  A    between atoms: C_13  and  S_14
REMARK    8  A    between atoms: S_14  and  N_15
REMARK    9  A    between atoms: C_19  and  C_20
REMARK                            x       y       z     vdW  Elec       q    Type
REMARK                         _______ _______ _______ _____ _____    ______ ____
ROOT
ATOM      1  C   UNL     1       3.135   6.221  17.913  0.00  0.00    +0.000 A 
ATOM      2  C   UNL     1       4.251   7.040  17.652  0.00  0.00    +0.000 A 
ATOM      3  C   UNL     1       5.382   6.562  16.989  0.00  0.00    +0.000 A 
ATOM      4  C   UNL     1       5.444   5.226  16.614  0.00  0.00    +0.000 A 
ATOM      5  C   UNL     1       4.380   4.366  16.890  0.00  0.00    +0.000 A 
ATOM      6  C   UNL     1       3.237   4.855  17.552  0.00  0.00    +0.000 A 
ENDROOT
BRANCH   4   7
ATOM      7  S   UNL     1       6.866   4.645  15.743  0.00  0.00    +0.000 S 
ATOM      8  O   UNL     1       6.516   3.450  15.013  0.00  0.00    +0.000 OA
ATOM      9  O   UNL     1       7.531   5.768  15.125  0.00  0.00    +0.000 OA
BRANCH   7  10
ATOM     10  N   UNL     1       7.854   4.151  17.005  0.00  0.00    +0.000 NA
ATOM     11  H   UNL     1       7.287   3.905  17.817  0.00  0.00    +0.000 HD
ATOM     12  H   UNL     1       8.470   3.399  16.693  0.00  0.00    +0.000 HD
ENDBRANCH   7  10
ENDBRANCH   4   7
BRANCH   1  13
ATOM     13  N   UNL     1       2.022   6.723  18.627  0.00  0.00    +0.000 N 
ATOM     14  H   UNL     1       1.168   6.727  18.067  0.00  0.00    +0.000 HD
BRANCH  13  15
ATOM     15  C   UNL     1       2.209   7.993  19.349  0.00  0.00    +0.000 C 
BRANCH  15  16
ATOM     16  C   UNL     1       1.387   9.126  18.723  0.00  0.00    +0.000 C 
BRANCH  16  22
ATOM     17  C   UNL     1      -1.102  11.141  22.972  0.00  0.00    +0.000 C 
ATOM     18  C   UNL     1      -0.331  10.940  21.715  0.00  0.00    +0.000 A 
ATOM     19  N   UNL     1       0.193  11.911  21.001  0.00  0.00    +0.000 NA
ATOM     20  C   UNL     1       0.855  11.398  19.898  0.00  0.00    +0.000 A 
ATOM     21  C   UNL     1       1.513  12.355  18.970  0.00  0.00    +0.000 C 
ATOM     22  C   UNL     1       0.813  10.017  19.786  0.00  0.00    +0.000 A 
ATOM     23  S   UNL     1      -0.074   9.358  21.100  0.00  0.00    +0.000 S 
ENDBRANCH  16  22
ENDBRANCH  15  16
ENDBRANCH  13  15
ENDBRANCH   1  13
BRANCH   6  24
ATOM     24  C   UNL     1       2.168   3.927  17.809  0.00  0.00    +0.000 C 
ATOM     25  N   UNL     1       1.299   3.193  18.030  0.00  0.00    +0.000 NA
ENDBRANCH   6  24
TORSDOF 7
ENDMDL
MODEL 6
REMARK VINA RESULT:      -6.9      4.007      7.697
REMARK  Name = 
REMARK  9 active torsions:
REMARK  status: ('A' for Active; 'I' for Inactive)
REMARK    1  A    between atoms: C_1  and  C_2
REMARK    2  A    between atoms: C_4  and  C_5
REMARK    3  A    between atoms: C_6  and  C_7
REMARK    4  A    between atoms: C_7  and  C_8
REMARK    5  A    between atoms: C_8  and  N_9
REMARK    6  A    between atoms: N_9  and  C_10
REMARK    7  A    between atoms: C_13  and  S_14
REMARK    8  A    between atoms: S_14  and  N_15
REMARK    9  A    between atoms: C_19  and  C_20
REMARK                            x       y       z     vdW  Elec       q    Type
REMARK                         _______ _______ _______ _____ _____    ______ ____
ROOT
ATOM      1  C   UNL     1       3.422   6.862  17.722  0.00  0.00    +0.000 A 
ATOM      2  C   UNL     1       4.589   7.531  17.306  0.00  0.00    +0.000 A 
ATOM      3  C   UNL     1       5.686   6.849  16.778  0.00  0.00    +0.000 A 
ATOM      4  C   UNL     1       5.660   5.462  16.702  0.00  0.00    +0.000 A 
ATOM      5  C   UNL     1       4.543   4.753  17.144  0.00  0.00    +0.000 A 
ATOM      6  C   UNL     1       3.434   5.446  17.667  0.00  0.00    +0.000 A 
ENDROOT
BRANCH   4   7
ATOM      7  S   UNL     1       7.042   4.616  15.999  0.00  0.00    +0.000 S 
ATOM      8  O   UNL     1       7.502   5.347  14.843  0.00  0.00    +0.000 OA
ATOM      9  O   UNL     1       7.927   4.198  17.060  0.00  0.00    +0.000 OA
BRANCH   7  10
ATOM     10  N   UNL     1       6.318   3.221  15.413  0.00  0.00    +0.000 NA
ATOM     11  H   UNL     1       5.302   3.320  15.431  0.00  0.00    +0.000 HD
ATOM     12  H   UNL     1       6.691   2.994  14.490  0.00  0.00    +0.000 HD
ENDBRANCH   7  10
ENDBRANCH   4   7
BRANCH   1  13
ATOM     13  N   UNL     1       2.344   7.577  18.294  0.00  0.00    +0.000 N 
ATOM     14  H   UNL     1       1.472   7.047  18.281  0.00  0.00    +0.000 HD
BRANCH  13  15
ATOM     15  C   UNL     1       2.148   8.965  17.841  0.00  0.00    +0.000 C 
BRANCH  15  16
ATOM     16  C   UNL     1       0.747   9.480  18.187  0.00  0.00    +0.000 C 
BRANCH  16  22
ATOM     17  C   UNL     1       1.165  13.796  21.271  0.00  0.00    +0.000 C 
ATOM     18  C   UNL     1       1.007  12.415  20.739  0.00  0.00    +0.000 A 
ATOM     19  N   UNL     1       0.832  11.348  21.486  0.00  0.00    +0.000 NA
ATOM     20  C   UNL     1       0.709  10.218  20.693  0.00  0.00    +0.000 A 
ATOM     21  C   UNL     1       0.505   8.909  21.368  0.00  0.00    +0.000 C 
ATOM     22  C   UNL     1       0.804  10.452  19.330  0.00  0.00    +0.000 A 
ATOM     23  S   UNL     1       1.048  12.128  19.047  0.00  0.00    +0.000 S 
ENDBRANCH  16  22
ENDBRANCH  15  16
ENDBRANCH  13  15
ENDBRANCH   1  13
BRANCH   6  24
ATOM     24  C   UNL     1       2.307   4.667  18.104  0.00  0.00    +0.000 C 
ATOM     25  N   UNL     1       1.391   4.055  18.467  0.00  0.00    +0.000 NA
ENDBRANCH   6  24
TORSDOF 7
ENDMDL
MODEL 7
REMARK VINA RESULT:      -6.9      3.794      7.395
REMARK  Name = 
REMARK  9 active torsions:
REMARK  status: ('A' for Active; 'I' for Inactive)
REMARK    1  A    between atoms: C_1  and  C_2
REMARK    2  A    between atoms: C_4  and  C_5
REMARK    3  A    between atoms: C_6  and  C_7
REMARK    4  A    between atoms: C_7  and  C_8
REMARK    5  A    between atoms: C_8  and  N_9
REMARK    6  A    between atoms: N_9  and  C_10
REMARK    7  A    between atoms: C_13  and  S_14
REMARK    8  A    between atoms: S_14  and  N_15
REMARK    9  A    between atoms: C_19  and  C_20
REMARK                            x       y       z     vdW  Elec       q    Type
REMARK                         _______ _______ _______ _____ _____    ______ ____
ROOT
ATOM      1  C   UNL     1       3.152   6.908  18.308  0.00  0.00    +0.000 A 
ATOM      2  C   UNL     1       2.401   6.411  19.390  0.00  0.00    +0.000 A 
ATOM      3  C   UNL     1       2.525   5.095  19.837  0.00  0.00    +0.000 A 
ATOM      4  C   UNL     1       3.375   4.222  19.169  0.00  0.00    +0.000 A 
ATOM      5  C   UNL     1       4.106   4.657  18.064  0.00  0.00    +0.000 A 
ATOM      6  C   UNL     1       3.985   5.989  17.623  0.00  0.00    +0.000 A 
ENDROOT
BRANCH   4   7
ATOM      7  S   UNL     1       3.549   2.570  19.768  0.00  0.00    +0.000 S 
ATOM      8  O   UNL     1       2.843   1.672  18.886  0.00  0.00    +0.000 OA
ATOM      9  O   UNL     1       4.921   2.354  20.162  0.00  0.00    +0.000 OA
BRANCH   7  10
ATOM     10  N   UNL     1       2.657   2.631  21.186  0.00  0.00    +0.000 NA
ATOM     11  H   UNL     1       2.350   3.588  21.365  0.00  0.00    +0.000 HD
ATOM     12  H   UNL     1       1.892   1.956  21.148  0.00  0.00    +0.000 HD
ENDBRANCH   7  10
ENDBRANCH   4   7
BRANCH   1  13
ATOM     13  N   UNL     1       2.971   8.235  17.851  0.00  0.00    +0.000 N 
ATOM     14  H   UNL     1       3.697   8.867  18.189  0.00  0.00    +0.000 HD
BRANCH  13  15
ATOM     15  C   UNL     1       1.626   8.816  18.002  0.00  0.00    +0.000 C 
BRANCH  15  16
ATOM     16  C   UNL     1       1.685  10.332  18.216  0.00  0.00    +0.000 C 
BRANCH  16  22
ATOM     17  C   UNL     1      -0.739  10.415  22.952  0.00  0.00    +0.000 C 
ATOM     18  C   UNL     1       0.026  10.746  21.719  0.00  0.00    +0.000 A 
ATOM     19  N   UNL     1       0.582  11.913  21.481  0.00  0.00    +0.000 NA
ATOM     20  C   UNL     1       1.227  11.900  20.255  0.00  0.00    +0.000 A 
ATOM     21  C   UNL     1       1.917  13.142  19.815  0.00  0.00    +0.000 C 
ATOM     22  C   UNL     1       1.140  10.701  19.565  0.00  0.00    +0.000 A 
ATOM     23  S   UNL     1       0.231   9.571  20.485  0.00  0.00    +0.000 S 
ENDBRANCH  16  22
ENDBRANCH  15  16
ENDBRANCH  13  15
ENDBRANCH   1  13
BRANCH   6  24
ATOM     24  C   UNL     1       4.764   6.387  16.481  0.00  0.00    +0.000 C 
ATOM     25  N   UNL     1       5.408   6.716  15.574  0.00  0.00    +0.000 NA
ENDBRANCH   6  24
TORSDOF 7
ENDMDL
MODEL 8
REMARK VINA RESULT:      -6.9      4.121      7.793
REMARK  Name = 
REMARK  9 active torsions:
REMARK  status: ('A' for Active; 'I' for Inactive)
REMARK    1  A    between atoms: C_1  and  C_2
REMARK    2  A    between atoms: C_4  and  C_5
REMARK    3  A    between atoms: C_6  and  C_7
REMARK    4  A    between atoms: C_7  and  C_8
REMARK    5  A    between atoms: C_8  and  N_9
REMARK    6  A    between atoms: N_9  and  C_10
REMARK    7  A    between atoms: C_13  and  S_14
REMARK    8  A    between atoms: S_14  and  N_15
REMARK    9  A    between atoms: C_19  and  C_20
REMARK                            x       y       z     vdW  Elec       q    Type
REMARK                         _______ _______ _______ _____ _____    ______ ____
ROOT
ATOM      1  C   UNL     1       3.165   6.425  17.983  0.00  0.00    +0.000 A 
ATOM      2  C   UNL     1       4.140   7.243  17.378  0.00  0.00    +0.000 A 
ATOM      3  C   UNL     1       5.245   6.710  16.714  0.00  0.00    +0.000 A 
ATOM      4  C   UNL     1       5.430   5.333  16.684  0.00  0.00    +0.000 A 
ATOM      5  C   UNL     1       4.514   4.486  17.307  0.00  0.00    +0.000 A 
ATOM      6  C   UNL     1       3.394   5.027  17.968  0.00  0.00    +0.000 A 
ENDROOT
BRANCH   4   7
ATOM      7  S   UNL     1       6.814   4.673  15.808  0.00  0.00    +0.000 S 
ATOM      8  O   UNL     1       6.399   3.490  15.093  0.00  0.00    +0.000 OA
ATOM      9  O   UNL     1       7.529   5.755  15.174  0.00  0.00    +0.000 OA
BRANCH   7  10
ATOM     10  N   UNL     1       7.786   4.143  17.067  0.00  0.00    +0.000 NA
ATOM     11  H   UNL     1       8.630   3.703  16.697  0.00  0.00    +0.000 HD
ATOM     12  H   UNL     1       7.974   4.912  17.712  0.00  0.00    +0.000 HD
ENDBRANCH   7  10
ENDBRANCH   4   7
BRANCH   1  13
ATOM     13  N   UNL     1       2.079   6.996  18.687  0.00  0.00    +0.000 N 
ATOM     14  H   UNL     1       1.175   6.679  18.335  0.00  0.00    +0.000 HD
BRANCH  13  15
ATOM     15  C   UNL     1       2.107   8.455  18.890  0.00  0.00    +0.000 C 
BRANCH  15  16
ATOM     16  C   UNL     1       1.215   9.183  17.879  0.00  0.00    +0.000 C 
BRANCH  16  22
ATOM     17  C   UNL     1      -1.258  12.493  21.232  0.00  0.00    +0.000 C 
ATOM     18  C   UNL     1      -0.896  11.579  20.116  0.00  0.00    +0.000 A 
ATOM     19  N   UNL     1      -1.713  11.233  19.146  0.00  0.00    +0.000 NA
ATOM     20  C   UNL     1      -1.077  10.381  18.258  0.00  0.00    +0.000 A 
ATOM     21  C   UNL     1      -1.850   9.882  17.090  0.00  0.00    +0.000 C 
ATOM     22  C   UNL     1       0.237  10.080  18.582  0.00  0.00    +0.000 A 
ATOM     23  S   UNL     1       0.675  10.894  20.030  0.00  0.00    +0.000 S 
ENDBRANCH  16  22
ENDBRANCH  15  16
ENDBRANCH  13  15
ENDBRANCH   1  13
BRANCH   6  24
ATOM     24  C   UNL     1       2.479   4.108  18.590  0.00  0.00    +0.000 C 
ATOM     25  N   UNL     1       1.754   3.352  19.088  0.00  0.00    +0.000 NA
ENDBRANCH   6  24
TORSDOF 7
ENDMDL
MODEL 9
REMARK VINA RESULT:      -6.8      3.705      7.564
REMARK  Name = 
REMARK  9 active torsions:
REMARK  status: ('A' for Active; 'I' for Inactive)
REMARK    1  A    between atoms: C_1  and  C_2
REMARK    2  A    between atoms: C_4  and  C_5
REMARK    3  A    between atoms: C_6  and  C_7
REMARK    4  A    between atoms: C_7  and  C_8
REMARK    5  A    between atoms: C_8  and  N_9
REMARK    6  A    between atoms: N_9  and  C_10
REMARK    7  A    between atoms: C_13  and  S_14
REMARK    8  A    between atoms: S_14  and  N_15
REMARK    9  A    between atoms: C_19  and  C_20
REMARK                            x       y       z     vdW  Elec       q    Type
REMARK                         _______ _______ _______ _____ _____    ______ ____
ROOT
ATOM      1  C   UNL     1       3.163   6.785  18.216  0.00  0.00    +0.000 A 
ATOM      2  C   UNL     1       2.358   6.236  19.233  0.00  0.00    +0.000 A 
ATOM      3  C   UNL     1       2.408   4.883  19.571  0.00  0.00    +0.000 A 
ATOM      4  C   UNL     1       3.238   4.029  18.855  0.00  0.00    +0.000 A 
ATOM      5  C   UNL     1       4.021   4.518  17.809  0.00  0.00    +0.000 A 
ATOM      6  C   UNL     1       3.974   5.887  17.479  0.00  0.00    +0.000 A 
ENDROOT
BRANCH   4   7
ATOM      7  S   UNL     1       3.318   2.326  19.317  0.00  0.00    +0.000 S 
ATOM      8  O   UNL     1       4.279   2.172  20.383  0.00  0.00    +0.000 OA
ATOM      9  O   UNL     1       1.977   1.796  19.395  0.00  0.00    +0.000 OA
BRANCH   7  10
ATOM     10  N   UNL     1       4.016   1.641  17.955  0.00  0.00    +0.000 NA
ATOM     11  H   UNL     1       4.769   1.009  18.228  0.00  0.00    +0.000 HD
ATOM     12  H   UNL     1       3.298   1.198  17.379  0.00  0.00    +0.000 HD
ENDBRANCH   7  10
ENDBRANCH   4   7
BRANCH   1  13
ATOM     13  N   UNL     1       3.056   8.151  17.868  0.00  0.00    +0.000 N 
ATOM     14  H   UNL     1       3.697   8.742  18.401  0.00  0.00    +0.000 HD
BRANCH  13  15
ATOM     15  C   UNL     1       1.700   8.724  17.816  0.00  0.00    +0.000 C 
BRANCH  15  16
ATOM     16  C   UNL     1       1.693  10.201  18.225  0.00  0.00    +0.000 C 
BRANCH  16  22
ATOM     17  C   UNL     1      -0.701   9.979  22.971  0.00  0.00    +0.000 C 
ATOM     18  C   UNL     1      -0.286  10.310  21.581  0.00  0.00    +0.000 A 
ATOM     19  N   UNL     1      -0.865  11.221  20.831  0.00  0.00    +0.000 NA
ATOM     20  C   UNL     1      -0.242  11.297  19.596  0.00  0.00    +0.000 A 
ATOM     21  C   UNL     1      -0.764  12.279  18.609  0.00  0.00    +0.000 C 
ATOM     22  C   UNL     1       0.815  10.417  19.423  0.00  0.00    +0.000 A 
ATOM     23  S   UNL     1       1.027   9.482  20.848  0.00  0.00    +0.000 S 
ENDBRANCH  16  22
ENDBRANCH  15  16
ENDBRANCH  13  15
ENDBRANCH   1  13
BRANCH   6  24
ATOM     24  C   UNL     1       4.804   6.340  16.395  0.00  0.00    +0.000 C 
ATOM     25  N   UNL     1       5.473   6.725  15.530  0.00  0.00    +0.000 NA
ENDBRANCH   6  24
TORSDOF 7
ENDMDL
