MODEL 1
REMARK VINA RESULT:      -8.7      0.000      0.000
REMARK  Name = 
REMARK  6 active torsions:
REMARK  status: ('A' for Active; 'I' for Inactive)
REMARK    1  A    between atoms: C_2  and  C_15
REMARK    2  A    between atoms: N_3  and  N_4
REMARK    3  A    between atoms: C_12  and  O_13
REMARK    4  A    between atoms: C_18  and  S_19
REMARK    5  A    between atoms: S_19  and  N_22
REMARK    6  A    between atoms: N_22  and  C_23
REMARK                            x       y       z     vdW  Elec       q    Type
REMARK                         _______ _______ _______ _____ _____    ______ ____
ROOT
ATOM      1  O   UNL     1       1.443   9.554  17.434  0.00  0.00    +0.000 OA
ATOM      2  C   UNL     1       1.729   8.938  18.457  0.00  0.00    +0.000 C 
ATOM      3  N   UNL     1       1.195   9.171  19.722  0.00  0.00    +0.000 N 
ATOM      4  H   UNL     1       1.381   8.570  20.511  0.00  0.00    +0.000 HD
ENDROOT
BRANCH   3   5
ATOM      5  N   UNL     1       0.280  10.158  19.830  0.00  0.00    +0.000 NA
ATOM      6  C   UNL     1      -0.283  10.442  20.955  0.00  0.00    +0.000 C 
ATOM      7  C   UNL     1      -0.067   9.815  22.310  0.00  0.00    +0.000 C 
ATOM      8  C   UNL     1      -1.016  10.575  23.258  0.00  0.00    +0.000 C 
ATOM      9  C   UNL     1      -1.708  11.568  22.379  0.00  0.00    +0.000 A 
ATOM     10  C   UNL     1      -2.676  12.495  22.740  0.00  0.00    +0.000 A 
ATOM     11  C   UNL     1      -3.203  13.338  21.756  0.00  0.00    +0.000 A 
ATOM     12  C   UNL     1      -2.769  13.252  20.422  0.00  0.00    +0.000 A 
ATOM     13  C   UNL     1      -1.797  12.320  20.068  0.00  0.00    +0.000 A 
ATOM     14  C   UNL     1      -1.286  11.496  21.057  0.00  0.00    +0.000 A 
BRANCH  13  15
ATOM     15  O   UNL     1      -1.367  12.219  18.785  0.00  0.00    +0.000 OA
ATOM     16  H   UNL     1      -1.801  11.485  18.330  0.00  0.00    +0.000 HD
ENDBRANCH  13  15
ENDBRANCH   3   5
BRANCH   2  17
ATOM     17  C   UNL     1       2.706   7.825  18.352  0.00  0.00    +0.000 A 
ATOM     18  C   UNL     1       3.475   7.630  17.199  0.00  0.00    +0.000 A 
ATOM     19  C   UNL     1       4.350   6.545  17.126  0.00  0.00    +0.000 A 
ATOM     20  C   UNL     1       4.455   5.654  18.202  0.00  0.00    +0.000 A 
ATOM     21  C   UNL     1       3.678   5.830  19.349  0.00  0.00    +0.000 A 
ATOM     22  C   UNL     1       2.802   6.918  19.420  0.00  0.00    +0.000 A 
BRANCH  20  23
ATOM     23  S   UNL     1       5.491   4.219  18.043  0.00  0.00    +0.000 S 
ATOM     24  O   UNL     1       5.668   3.978  16.628  0.00  0.00    +0.000 OA
ATOM     25  O   UNL     1       6.618   4.360  18.937  0.00  0.00    +0.000 OA
BRANCH  23  26
ATOM     26  N   UNL     1       4.530   2.954  18.608  0.00  0.00    +0.000 NA
ATOM     27  H   UNL     1       5.041   2.436  19.325  0.00  0.00    +0.000 HD
BRANCH  26  28
ATOM     28  C   UNL     1       3.108   3.204  18.874  0.00  0.00    +0.000 C 
ATOM     29  C   UNL     1       2.191   2.388  17.977  0.00  0.00    +0.000 C 
ATOM     30  C   UNL     1       0.869   2.368  18.728  0.00  0.00    +0.000 C 
ATOM     31  C   UNL     1       1.234   2.423  20.209  0.00  0.00    +0.000 C 
ATOM     32  C   UNL     1       2.735   2.704  20.271  0.00  0.00    +0.000 C 
ENDBRANCH  26  28
ENDBRANCH  23  26
ENDBRANCH  20  23
ENDBRANCH   2  17
TORSDOF 6
ENDMDL
MODEL 2
REMARK VINA RESULT:      -8.6      2.118      3.706
REMARK  Name = 
REMARK  6 active torsions:
REMARK  status: ('A' for Active; 'I' for Inactive)
REMARK    1  A    between atoms: C_2  and  C_15
REMARK    2  A    between atoms: N_3  and  N_4
REMARK    3  A    between atoms: C_12  and  O_13
REMARK    4  A    between atoms: C_18  and  S_19
REMARK    5  A    between atoms: S_19  and  N_22
REMARK    6  A    between atoms: N_22  and  C_23
REMARK                            x       y       z     vdW  Elec       q    Type
REMARK                         _______ _______ _______ _____ _____    ______ ____
ROOT
ATOM      1  O   UNL     1       1.017   8.210  21.740  0.00  0.00    +0.000 OA
ATOM      2  C   UNL     1       1.279   8.363  20.550  0.00  0.00    +0.000 C 
ATOM      3  N   UNL     1       0.914   9.458  19.772  0.00  0.00    +0.000 N 
ATOM      4  H   UNL     1       1.243   9.589  18.827  0.00  0.00    +0.000 HD
ENDROOT
BRANCH   3   5
ATOM      5  N   UNL     1       0.213  10.438  20.382  0.00  0.00    +0.000 NA
ATOM      6  C   UNL     1      -0.870  10.918  19.871  0.00  0.00    +0.000 C 
ATOM      7  C   UNL     1      -1.572  10.527  18.594  0.00  0.00    +0.000 C 
ATOM      8  C   UNL     1      -2.808  11.445  18.521  0.00  0.00    +0.000 C 
ATOM      9  C   UNL     1      -2.718  12.295  19.749  0.00  0.00    +0.000 A 
ATOM     10  C   UNL     1      -3.585  13.300  20.154  0.00  0.00    +0.000 A 
ATOM     11  C   UNL     1      -3.316  13.983  21.344  0.00  0.00    +0.000 A 
ATOM     12  C   UNL     1      -2.188  13.668  22.121  0.00  0.00    +0.000 A 
ATOM     13  C   UNL     1      -1.323  12.658  21.708  0.00  0.00    +0.000 A 
ATOM     14  C   UNL     1      -1.607  11.991  20.528  0.00  0.00    +0.000 A 
BRANCH  13  15
ATOM     15  O   UNL     1      -0.227  12.340  22.441  0.00  0.00    +0.000 OA
ATOM     16  H   UNL     1      -0.191  11.391  22.622  0.00  0.00    +0.000 HD
ENDBRANCH  13  15
ENDBRANCH   3   5
BRANCH   2  17
ATOM     17  C   UNL     1       2.080   7.312  19.871  0.00  0.00    +0.000 A 
ATOM     18  C   UNL     1       2.529   7.467  18.555  0.00  0.00    +0.000 A 
ATOM     19  C   UNL     1       3.241   6.435  17.941  0.00  0.00    +0.000 A 
ATOM     20  C   UNL     1       3.502   5.249  18.639  0.00  0.00    +0.000 A 
ATOM     21  C   UNL     1       3.041   5.078  19.946  0.00  0.00    +0.000 A 
ATOM     22  C   UNL     1       2.328   6.113  20.559  0.00  0.00    +0.000 A 
BRANCH  20  23
ATOM     23  S   UNL     1       4.311   3.908  17.801  0.00  0.00    +0.000 S 
ATOM     24  O   UNL     1       4.048   2.709  18.565  0.00  0.00    +0.000 OA
ATOM     25  O   UNL     1       4.007   3.992  16.390  0.00  0.00    +0.000 OA
BRANCH  23  26
ATOM     26  N   UNL     1       5.954   4.230  18.001  0.00  0.00    +0.000 NA
ATOM     27  H   UNL     1       6.486   3.737  17.281  0.00  0.00    +0.000 HD
BRANCH  26  28
ATOM     28  C   UNL     1       6.380   5.603  18.299  0.00  0.00    +0.000 C 
ATOM     29  C   UNL     1       7.720   5.660  19.013  0.00  0.00    +0.000 C 
ATOM     30  C   UNL     1       8.213   7.075  18.752  0.00  0.00    +0.000 C 
ATOM     31  C   UNL     1       7.649   7.464  17.389  0.00  0.00    +0.000 C 
ATOM     32  C   UNL     1       6.663   6.362  17.002  0.00  0.00    +0.000 C 
ENDBRANCH  26  28
ENDBRANCH  23  26
ENDBRANCH  20  23
ENDBRANCH   2  17
TORSDOF 6
ENDMDL
MODEL 3
REMARK VINA RESULT:      -8.6      2.600      4.191
REMARK  Name = 
REMARK  6 active torsions:
REMARK  status: ('A' for Active; 'I' for Inactive)
REMARK    1  A    between atoms: C_2  and  C_15
REMARK    2  A    between atoms: N_3  and  N_4
REMARK    3  A    between atoms: C_12  and  O_13
REMARK    4  A    between atoms: C_18  and  S_19
REMARK    5  A    between atoms: S_19  and  N_22
REMARK    6  A    between atoms: N_22  and  C_23
REMARK                            x       y       z     vdW  Elec       q    Type
REMARK                         _______ _______ _______ _____ _____    ______ ____
ROOT
ATOM      1  O   UNL     1       0.998   8.795  21.020  0.00  0.00    +0.000 OA
ATOM      2  C   UNL     1       1.362   8.643  19.857  0.00  0.00    +0.000 C 
ATOM      3  N   UNL     1       1.215   9.572  18.832  0.00  0.00    +0.000 N 
ATOM      4  H   UNL     1       1.625   9.445  17.918  0.00  0.00    +0.000 HD
ENDROOT
BRANCH   3   5
ATOM      5  N   UNL     1       0.624  10.746  19.146  0.00  0.00    +0.000 NA
ATOM      6  C   UNL     1       1.165  11.879  18.851  0.00  0.00    +0.000 C 
ATOM      7  C   UNL     1       2.462  12.153  18.130  0.00  0.00    +0.000 C 
ATOM      8  C   UNL     1       2.570  13.690  18.073  0.00  0.00    +0.000 C 
ATOM      9  C   UNL     1       1.339  14.179  18.769  0.00  0.00    +0.000 A 
ATOM     10  C   UNL     1       0.957  15.493  19.001  0.00  0.00    +0.000 A 
ATOM     11  C   UNL     1      -0.241  15.738  19.680  0.00  0.00    +0.000 A 
ATOM     12  C   UNL     1      -1.048  14.677  20.126  0.00  0.00    +0.000 A 
ATOM     13  C   UNL     1      -0.659  13.362  19.888  0.00  0.00    +0.000 A 
ATOM     14  C   UNL     1       0.529  13.140  19.213  0.00  0.00    +0.000 A 
BRANCH  13  15
ATOM     15  O   UNL     1      -1.424  12.325  20.314  0.00  0.00    +0.000 OA
ATOM     16  H   UNL     1      -2.085  12.084  19.652  0.00  0.00    +0.000 HD
ENDBRANCH  13  15
ENDBRANCH   3   5
BRANCH   2  17
ATOM     17  C   UNL     1       2.046   7.374  19.501  0.00  0.00    +0.000 A 
ATOM     18  C   UNL     1       2.235   6.353  20.438  0.00  0.00    +0.000 A 
ATOM     19  C   UNL     1       2.922   5.194  20.072  0.00  0.00    +0.000 A 
ATOM     20  C   UNL     1       3.423   5.057  18.771  0.00  0.00    +0.000 A 
ATOM     21  C   UNL     1       3.256   6.079  17.833  0.00  0.00    +0.000 A 
ATOM     22  C   UNL     1       2.567   7.239  18.203  0.00  0.00    +0.000 A 
BRANCH  20  23
ATOM     23  S   UNL     1       4.390   3.625  18.359  0.00  0.00    +0.000 S 
ATOM     24  O   UNL     1       4.045   2.592  19.310  0.00  0.00    +0.000 OA
ATOM     25  O   UNL     1       4.307   3.403  16.933  0.00  0.00    +0.000 OA
BRANCH  23  26
ATOM     26  N   UNL     1       5.972   4.078  18.726  0.00  0.00    +0.000 NA
ATOM     27  H   UNL     1       6.621   3.404  18.317  0.00  0.00    +0.000 HD
BRANCH  26  28
ATOM     28  C   UNL     1       6.351   5.492  18.621  0.00  0.00    +0.000 C 
ATOM     29  C   UNL     1       7.679   5.796  19.296  0.00  0.00    +0.000 C 
ATOM     30  C   UNL     1       8.131   7.093  18.644  0.00  0.00    +0.000 C 
ATOM     31  C   UNL     1       7.575   7.057  17.223  0.00  0.00    +0.000 C 
ATOM     32  C   UNL     1       6.629   5.858  17.163  0.00  0.00    +0.000 C 
ENDBRANCH  26  28
ENDBRANCH  23  26
ENDBRANCH  20  23
ENDBRANCH   2  17
TORSDOF 6
ENDMDL
MODEL 4
REMARK VINA RESULT:      -8.6      1.733      3.252
REMARK  Name = 
REMARK  6 active torsions:
REMARK  status: ('A' for Active; 'I' for Inactive)
REMARK    1  A    between atoms: C_2  and  C_15
REMARK    2  A    between atoms: N_3  and  N_4
REMARK    3  A    between atoms: C_12  and  O_13
REMARK    4  A    between atoms: C_18  and  S_19
REMARK    5  A    between atoms: S_19  and  N_22
REMARK    6  A    between atoms: N_22  and  C_23
REMARK                            x       y       z     vdW  Elec       q    Type
REMARK                         _______ _______ _______ _____ _____    ______ ____
ROOT
ATOM      1  O   UNL     1       1.311   9.328  17.876  0.00  0.00    +0.000 OA
ATOM      2  C   UNL     1       1.544   8.787  18.954  0.00  0.00    +0.000 C 
ATOM      3  N   UNL     1       1.251   9.316  20.208  0.00  0.00    +0.000 N 
ATOM      4  H   UNL     1       1.363   8.788  21.061  0.00  0.00    +0.000 HD
ENDROOT
BRANCH   3   5
ATOM      5  N   UNL     1       0.655  10.527  20.240  0.00  0.00    +0.000 NA
ATOM      6  C   UNL     1      -0.117  10.879  21.211  0.00  0.00    +0.000 C 
ATOM      7  C   UNL     1      -0.498  10.106  22.450  0.00  0.00    +0.000 C 
ATOM      8  C   UNL     1      -1.438  11.043  23.233  0.00  0.00    +0.000 C 
ATOM      9  C   UNL     1      -1.533  12.273  22.385  0.00  0.00    +0.000 A 
ATOM     10  C   UNL     1      -2.269  13.423  22.634  0.00  0.00    +0.000 A 
ATOM     11  C   UNL     1      -2.225  14.466  21.704  0.00  0.00    +0.000 A 
ATOM     12  C   UNL     1      -1.454  14.359  20.534  0.00  0.00    +0.000 A 
ATOM     13  C   UNL     1      -0.717  13.203  20.292  0.00  0.00    +0.000 A 
ATOM     14  C   UNL     1      -0.773  12.182  21.226  0.00  0.00    +0.000 A 
BRANCH  13  15
ATOM     15  O   UNL     1       0.031  13.079  19.167  0.00  0.00    +0.000 OA
ATOM     16  H   UNL     1      -0.518  12.839  18.409  0.00  0.00    +0.000 HD
ENDBRANCH  13  15
ENDBRANCH   3   5
BRANCH   2  17
ATOM     17  C   UNL     1       2.166   7.439  18.938  0.00  0.00    +0.000 A 
ATOM     18  C   UNL     1       2.297   6.676  20.104  0.00  0.00    +0.000 A 
ATOM     19  C   UNL     1       2.928   5.433  20.052  0.00  0.00    +0.000 A 
ATOM     20  C   UNL     1       3.430   4.951  18.836  0.00  0.00    +0.000 A 
ATOM     21  C   UNL     1       3.321   5.712  17.670  0.00  0.00    +0.000 A 
ATOM     22  C   UNL     1       2.688   6.959  17.726  0.00  0.00    +0.000 A 
BRANCH  20  23
ATOM     23  S   UNL     1       4.327   3.418  18.813  0.00  0.00    +0.000 S 
ATOM     24  O   UNL     1       4.086   2.766  20.081  0.00  0.00    +0.000 OA
ATOM     25  O   UNL     1       4.073   2.750  17.556  0.00  0.00    +0.000 OA
BRANCH  23  26
ATOM     26  N   UNL     1       5.946   3.889  18.838  0.00  0.00    +0.000 NA
ATOM     27  H   UNL     1       6.501   3.221  18.299  0.00  0.00    +0.000 HD
BRANCH  26  28
ATOM     28  C   UNL     1       6.278   5.307  18.655  0.00  0.00    +0.000 C 
ATOM     29  C   UNL     1       7.576   5.698  19.343  0.00  0.00    +0.000 C 
ATOM     30  C   UNL     1       8.001   6.969  18.624  0.00  0.00    +0.000 C 
ATOM     31  C   UNL     1       7.484   6.828  17.195  0.00  0.00    +0.000 C 
ATOM     32  C   UNL     1       6.582   5.595  17.185  0.00  0.00    +0.000 C 
ENDBRANCH  26  28
ENDBRANCH  23  26
ENDBRANCH  20  23
ENDBRANCH   2  17
TORSDOF 6
ENDMDL
MODEL 5
REMARK VINA RESULT:      -8.5      3.438      4.821
REMARK  Name = 
REMARK  6 active torsions:
REMARK  status: ('A' for Active; 'I' for Inactive)
REMARK    1  A    between atoms: C_2  and  C_15
REMARK    2  A    between atoms: N_3  and  N_4
REMARK    3  A    between atoms: C_12  and  O_13
REMARK    4  A    between atoms: C_18  and  S_19
REMARK    5  A    between atoms: S_19  and  N_22
REMARK    6  A    between atoms: N_22  and  C_23
REMARK                            x       y       z     vdW  Elec       q    Type
REMARK                         _______ _______ _______ _____ _____    ______ ____
ROOT
ATOM      1  O   UNL     1      -0.021  10.711  20.220  0.00  0.00    +0.000 OA
ATOM      2  C   UNL     1       0.817  10.584  19.332  0.00  0.00    +0.000 C 
ATOM      3  N   UNL     1       1.274  11.598  18.495  0.00  0.00    +0.000 N 
ATOM      4  H   UNL     1       2.041  11.468  17.851  0.00  0.00    +0.000 HD
ENDROOT
BRANCH   3   5
ATOM      5  N   UNL     1       0.753  12.830  18.681  0.00  0.00    +0.000 NA
ATOM      6  C   UNL     1       1.463  13.897  18.534  0.00  0.00    +0.000 C 
ATOM      7  C   UNL     1       2.912  14.026  18.134  0.00  0.00    +0.000 C 
ATOM      8  C   UNL     1       3.190  15.542  18.125  0.00  0.00    +0.000 C 
ATOM      9  C   UNL     1       1.890  16.165  18.526  0.00  0.00    +0.000 A 
ATOM     10  C   UNL     1       1.605  17.514  18.682  0.00  0.00    +0.000 A 
ATOM     11  C   UNL     1       0.316  17.890  19.071  0.00  0.00    +0.000 A 
ATOM     12  C   UNL     1      -0.679  16.925  19.305  0.00  0.00    +0.000 A 
ATOM     13  C   UNL     1      -0.386  15.574  19.144  0.00  0.00    +0.000 A 
ATOM     14  C   UNL     1       0.896  15.222  18.758  0.00  0.00    +0.000 A 
BRANCH  13  15
ATOM     15  O   UNL     1      -1.332  14.627  19.369  0.00  0.00    +0.000 OA
ATOM     16  H   UNL     1      -1.337  13.966  18.664  0.00  0.00    +0.000 HD
ENDBRANCH  13  15
ENDBRANCH   3   5
BRANCH   2  17
ATOM     17  C   UNL     1       1.428   9.244  19.135  0.00  0.00    +0.000 A 
ATOM     18  C   UNL     1       1.848   8.806  17.875  0.00  0.00    +0.000 A 
ATOM     19  C   UNL     1       2.377   7.523  17.728  0.00  0.00    +0.000 A 
ATOM     20  C   UNL     1       2.484   6.676  18.840  0.00  0.00    +0.000 A 
ATOM     21  C   UNL     1       2.050   7.098  20.099  0.00  0.00    +0.000 A 
ATOM     22  C   UNL     1       1.521   8.384  20.242  0.00  0.00    +0.000 A 
BRANCH  20  23
ATOM     23  S   UNL     1       3.055   5.010  18.610  0.00  0.00    +0.000 S 
ATOM     24  O   UNL     1       3.451   4.514  19.909  0.00  0.00    +0.000 OA
ATOM     25  O   UNL     1       2.101   4.302  17.786  0.00  0.00    +0.000 OA
BRANCH  23  26
ATOM     26  N   UNL     1       4.482   5.182  17.729  0.00  0.00    +0.000 NA
ATOM     27  H   UNL     1       4.257   5.282  16.737  0.00  0.00    +0.000 HD
BRANCH  26  28
ATOM     28  C   UNL     1       5.538   6.059  18.248  0.00  0.00    +0.000 C 
ATOM     29  C   UNL     1       6.752   5.288  18.739  0.00  0.00    +0.000 C 
ATOM     30  C   UNL     1       7.871   6.317  18.719  0.00  0.00    +0.000 C 
ATOM     31  C   UNL     1       7.533   7.272  17.578  0.00  0.00    +0.000 C 
ATOM     32  C   UNL     1       6.121   6.911  17.120  0.00  0.00    +0.000 C 
ENDBRANCH  26  28
ENDBRANCH  23  26
ENDBRANCH  20  23
ENDBRANCH   2  17
TORSDOF 6
ENDMDL
MODEL 6
REMARK VINA RESULT:      -8.5      0.587      1.075
REMARK  Name = 
REMARK  6 active torsions:
REMARK  status: ('A' for Active; 'I' for Inactive)
REMARK    1  A    between atoms: C_2  and  C_15
REMARK    2  A    between atoms: N_3  and  N_4
REMARK    3  A    between atoms: C_12  and  O_13
REMARK    4  A    between atoms: C_18  and  S_19
REMARK    5  A    between atoms: S_19  and  N_22
REMARK    6  A    between atoms: N_22  and  C_23
REMARK                            x       y       z     vdW  Elec       q    Type
REMARK                         _______ _______ _______ _____ _____    ______ ____
ROOT
ATOM      1  O   UNL     1       0.746   9.515  17.619  0.00  0.00    +0.000 OA
ATOM      2  C   UNL     1       1.275   9.161  18.669  0.00  0.00    +0.000 C 
ATOM      3  N   UNL     1       1.027   9.702  19.927  0.00  0.00    +0.000 N 
ATOM      4  H   UNL     1       1.406   9.307  20.775  0.00  0.00    +0.000 HD
ENDROOT
BRANCH   3   5
ATOM      5  N   UNL     1       0.121  10.701  19.998  0.00  0.00    +0.000 NA
ATOM      6  C   UNL     1      -0.527  10.955  21.084  0.00  0.00    +0.000 C 
ATOM      7  C   UNL     1      -0.431  10.276  22.428  0.00  0.00    +0.000 C 
ATOM      8  C   UNL     1      -1.442  11.018  23.324  0.00  0.00    +0.000 C 
ATOM      9  C   UNL     1      -2.045  12.055  22.430  0.00  0.00    +0.000 A 
ATOM     10  C   UNL     1      -3.025  12.986  22.747  0.00  0.00    +0.000 A 
ATOM     11  C   UNL     1      -3.458  13.872  21.756  0.00  0.00    +0.000 A 
ATOM     12  C   UNL     1      -2.919  13.826  20.458  0.00  0.00    +0.000 A 
ATOM     13  C   UNL     1      -1.936  12.890  20.150  0.00  0.00    +0.000 A 
ATOM     14  C   UNL     1      -1.519  12.023  21.144  0.00  0.00    +0.000 A 
BRANCH  13  15
ATOM     15  O   UNL     1      -1.405  12.828  18.902  0.00  0.00    +0.000 OA
ATOM     16  H   UNL     1      -1.503  11.943  18.526  0.00  0.00    +0.000 HD
ENDBRANCH  13  15
ENDBRANCH   3   5
BRANCH   2  17
ATOM     17  C   UNL     1       2.247   8.039  18.617  0.00  0.00    +0.000 A 
ATOM     18  C   UNL     1       2.368   7.122  19.666  0.00  0.00    +0.000 A 
ATOM     19  C   UNL     1       3.325   6.109  19.594  0.00  0.00    +0.000 A 
ATOM     20  C   UNL     1       4.164   6.014  18.476  0.00  0.00    +0.000 A 
ATOM     21  C   UNL     1       4.064   6.936  17.432  0.00  0.00    +0.000 A 
ATOM     22  C   UNL     1       3.104   7.950  17.507  0.00  0.00    +0.000 A 
BRANCH  20  23
ATOM     23  S   UNL     1       5.448   4.787  18.456  0.00  0.00    +0.000 S 
ATOM     24  O   UNL     1       6.050   4.824  17.142  0.00  0.00    +0.000 OA
ATOM     25  O   UNL     1       6.240   4.924  19.658  0.00  0.00    +0.000 OA
BRANCH  23  26
ATOM     26  N   UNL     1       4.618   3.321  18.541  0.00  0.00    +0.000 NA
ATOM     27  H   UNL     1       5.181   2.644  19.058  0.00  0.00    +0.000 HD
BRANCH  26  28
ATOM     28  C   UNL     1       3.180   3.334  18.835  0.00  0.00    +0.000 C 
ATOM     29  C   UNL     1       2.386   2.420  17.916  0.00  0.00    +0.000 C 
ATOM     30  C   UNL     1       1.098   2.162  18.682  0.00  0.00    +0.000 C 
ATOM     31  C   UNL     1       1.478   2.216  20.159  0.00  0.00    +0.000 C 
ATOM     32  C   UNL     1       2.917   2.727  20.214  0.00  0.00    +0.000 C 
ENDBRANCH  26  28
ENDBRANCH  23  26
ENDBRANCH  20  23
ENDBRANCH   2  17
TORSDOF 6
ENDMDL
MODEL 7
REMARK VINA RESULT:      -8.5      3.239      4.723
REMARK  Name = 
REMARK  6 active torsions:
REMARK  status: ('A' for Active; 'I' for Inactive)
REMARK    1  A    between atoms: C_2  and  C_15
REMARK    2  A    between atoms: N_3  and  N_4
REMARK    3  A    between atoms: C_12  and  O_13
REMARK    4  A    between atoms: C_18  and  S_19
REMARK    5  A    between atoms: S_19  and  N_22
REMARK    6  A    between atoms: N_22  and  C_23
REMARK                            x       y       z     vdW  Elec       q    Type
REMARK                         _______ _______ _______ _____ _____    ______ ____
ROOT
ATOM      1  O   UNL     1       0.288  10.181  20.345  0.00  0.00    +0.000 OA
ATOM      2  C   UNL     1       0.981  10.000  19.348  0.00  0.00    +0.000 C 
ATOM      3  N   UNL     1       1.306  10.965  18.400  0.00  0.00    +0.000 N 
ATOM      4  H   UNL     1       1.966  10.796  17.655  0.00  0.00    +0.000 HD
ENDROOT
BRANCH   3   5
ATOM      5  N   UNL     1       0.820  12.210  18.598  0.00  0.00    +0.000 NA
ATOM      6  C   UNL     1       1.574  13.254  18.523  0.00  0.00    +0.000 C 
ATOM      7  C   UNL     1       3.047  13.341  18.206  0.00  0.00    +0.000 C 
ATOM      8  C   UNL     1       3.379  14.845  18.261  0.00  0.00    +0.000 C 
ATOM      9  C   UNL     1       2.082  15.503  18.612  0.00  0.00    +0.000 A 
ATOM     10  C   UNL     1       1.837  16.857  18.796  0.00  0.00    +0.000 A 
ATOM     11  C   UNL     1       0.542  17.269  19.127  0.00  0.00    +0.000 A 
ATOM     12  C   UNL     1      -0.498  16.335  19.276  0.00  0.00    +0.000 A 
ATOM     13  C   UNL     1      -0.244  14.979  19.088  0.00  0.00    +0.000 A 
ATOM     14  C   UNL     1       1.043  14.591  18.759  0.00  0.00    +0.000 A 
BRANCH  13  15
ATOM     15  O   UNL     1      -1.234  14.062  19.230  0.00  0.00    +0.000 OA
ATOM     16  H   UNL     1      -1.814  14.052  18.457  0.00  0.00    +0.000 HD
ENDBRANCH  13  15
ENDBRANCH   3   5
BRANCH   2  17
ATOM     17  C   UNL     1       1.555   8.648  19.133  0.00  0.00    +0.000 A 
ATOM     18  C   UNL     1       1.719   7.743  20.187  0.00  0.00    +0.000 A 
ATOM     19  C   UNL     1       2.303   6.498  19.947  0.00  0.00    +0.000 A 
ATOM     20  C   UNL     1       2.726   6.158  18.655  0.00  0.00    +0.000 A 
ATOM     21  C   UNL     1       2.583   7.061  17.600  0.00  0.00    +0.000 A 
ATOM     22  C   UNL     1       1.998   8.308  17.843  0.00  0.00    +0.000 A 
BRANCH  20  23
ATOM     23  S   UNL     1       3.567   4.615  18.395  0.00  0.00    +0.000 S 
ATOM     24  O   UNL     1       3.993   4.140  19.692  0.00  0.00    +0.000 OA
ATOM     25  O   UNL     1       2.770   3.796  17.510  0.00  0.00    +0.000 OA
BRANCH  23  26
ATOM     26  N   UNL     1       4.977   5.049  17.578  0.00  0.00    +0.000 NA
ATOM     27  H   UNL     1       4.776   5.137  16.580  0.00  0.00    +0.000 HD
BRANCH  26  28
ATOM     28  C   UNL     1       5.850   6.076  18.159  0.00  0.00    +0.000 C 
ATOM     29  C   UNL     1       7.152   5.503  18.697  0.00  0.00    +0.000 C 
ATOM     30  C   UNL     1       8.085   6.702  18.745  0.00  0.00    +0.000 C 
ATOM     31  C   UNL     1       7.646   7.614  17.603  0.00  0.00    +0.000 C 
ATOM     32  C   UNL     1       6.334   7.036  17.073  0.00  0.00    +0.000 C 
ENDBRANCH  26  28
ENDBRANCH  23  26
ENDBRANCH  20  23
ENDBRANCH   2  17
TORSDOF 6
ENDMDL
MODEL 8
REMARK VINA RESULT:      -8.5      3.358      4.646
REMARK  Name = 
REMARK  6 active torsions:
REMARK  status: ('A' for Active; 'I' for Inactive)
REMARK    1  A    between atoms: C_2  and  C_15
REMARK    2  A    between atoms: N_3  and  N_4
REMARK    3  A    between atoms: C_12  and  O_13
REMARK    4  A    between atoms: C_18  and  S_19
REMARK    5  A    between atoms: S_19  and  N_22
REMARK    6  A    between atoms: N_22  and  C_23
REMARK                            x       y       z     vdW  Elec       q    Type
REMARK                         _______ _______ _______ _____ _____    ______ ____
ROOT
ATOM      1  O   UNL     1       0.635  10.775  20.787  0.00  0.00    +0.000 OA
ATOM      2  C   UNL     1       0.972  10.427  19.658  0.00  0.00    +0.000 C 
ATOM      3  N   UNL     1       0.968  11.235  18.524  0.00  0.00    +0.000 N 
ATOM      4  H   UNL     1       1.354  10.935  17.641  0.00  0.00    +0.000 HD
ENDROOT
BRANCH   3   5
ATOM      5  N   UNL     1       0.564  12.514  18.682  0.00  0.00    +0.000 NA
ATOM      6  C   UNL     1       1.382  13.504  18.566  0.00  0.00    +0.000 C 
ATOM      7  C   UNL     1       2.854  13.486  18.236  0.00  0.00    +0.000 C 
ATOM      8  C   UNL     1       3.282  14.967  18.236  0.00  0.00    +0.000 C 
ATOM      9  C   UNL     1       2.033  15.719  18.573  0.00  0.00    +0.000 A 
ATOM     10  C   UNL     1       1.876  17.090  18.711  0.00  0.00    +0.000 A 
ATOM     11  C   UNL     1       0.613  17.595  19.036  0.00  0.00    +0.000 A 
ATOM     12  C   UNL     1      -0.483  16.736  19.225  0.00  0.00    +0.000 A 
ATOM     13  C   UNL     1      -0.317  15.361  19.083  0.00  0.00    +0.000 A 
ATOM     14  C   UNL     1       0.940  14.880  18.759  0.00  0.00    +0.000 A 
BRANCH  13  15
ATOM     15  O   UNL     1      -1.362  14.514  19.264  0.00  0.00    +0.000 OA
ATOM     16  H   UNL     1      -1.132  13.803  19.876  0.00  0.00    +0.000 HD
ENDBRANCH  13  15
ENDBRANCH   3   5
BRANCH   2  17
ATOM     17  C   UNL     1       1.454   9.035  19.472  0.00  0.00    +0.000 A 
ATOM     18  C   UNL     1       1.453   8.111  20.522  0.00  0.00    +0.000 A 
ATOM     19  C   UNL     1       1.956   6.826  20.314  0.00  0.00    +0.000 A 
ATOM     20  C   UNL     1       2.462   6.464  19.059  0.00  0.00    +0.000 A 
ATOM     21  C   UNL     1       2.484   7.386  18.009  0.00  0.00    +0.000 A 
ATOM     22  C   UNL     1       1.979   8.673  18.220  0.00  0.00    +0.000 A 
BRANCH  20  23
ATOM     23  S   UNL     1       3.199   4.861  18.848  0.00  0.00    +0.000 S 
ATOM     24  O   UNL     1       3.316   4.272  20.163  0.00  0.00    +0.000 OA
ATOM     25  O   UNL     1       2.523   4.179  17.767  0.00  0.00    +0.000 OA
BRANCH  23  26
ATOM     26  N   UNL     1       4.775   5.196  18.350  0.00  0.00    +0.000 NA
ATOM     27  H   UNL     1       5.414   5.058  19.135  0.00  0.00    +0.000 HD
BRANCH  26  28
ATOM     28  C   UNL     1       5.230   4.701  17.045  0.00  0.00    +0.000 C 
ATOM     29  C   UNL     1       5.063   5.729  15.938  0.00  0.00    +0.000 C 
ATOM     30  C   UNL     1       6.033   5.265  14.862  0.00  0.00    +0.000 C 
ATOM     31  C   UNL     1       7.182   4.590  15.604  0.00  0.00    +0.000 C 
ATOM     32  C   UNL     1       6.742   4.475  17.063  0.00  0.00    +0.000 C 
ENDBRANCH  26  28
ENDBRANCH  23  26
ENDBRANCH  20  23
ENDBRANCH   2  17
TORSDOF 6
ENDMDL
MODEL 9
REMARK VINA RESULT:      -8.5      3.505      9.856
REMARK  Name = 
REMARK  6 active torsions:
REMARK  status: ('A' for Active; 'I' for Inactive)
REMARK    1  A    between atoms: C_2  and  C_15
REMARK    2  A    between atoms: N_3  and  N_4
REMARK    3  A    between atoms: C_12  and  O_13
REMARK    4  A    between atoms: C_18  and  S_19
REMARK    5  A    between atoms: S_19  and  N_22
REMARK    6  A    between atoms: N_22  and  C_23
REMARK                            x       y       z     vdW  Elec       q    Type
REMARK                         _______ _______ _______ _____ _____    ______ ____
ROOT
ATOM      1  O   UNL     1       0.722   9.642  18.385  0.00  0.00    +0.000 OA
ATOM      2  C   UNL     1       0.767   9.389  19.586  0.00  0.00    +0.000 C 
ATOM      3  N   UNL     1       1.525   8.381  20.176  0.00  0.00    +0.000 N 
ATOM      4  H   UNL     1       1.612   8.280  21.176  0.00  0.00    +0.000 HD
ENDROOT
BRANCH   3   5
ATOM      5  N   UNL     1       2.280   7.619  19.355  0.00  0.00    +0.000 NA
ATOM      6  C   UNL     1       2.325   6.336  19.471  0.00  0.00    +0.000 C 
ATOM      7  C   UNL     1       1.600   5.443  20.448  0.00  0.00    +0.000 C 
ATOM      8  C   UNL     1       2.052   4.013  20.095  0.00  0.00    +0.000 C 
ATOM      9  C   UNL     1       3.005   4.191  18.955  0.00  0.00    +0.000 A 
ATOM     10  C   UNL     1       3.706   3.208  18.270  0.00  0.00    +0.000 A 
ATOM     11  C   UNL     1       4.557   3.589  17.228  0.00  0.00    +0.000 A 
ATOM     12  C   UNL     1       4.707   4.941  16.874  0.00  0.00    +0.000 A 
ATOM     13  C   UNL     1       3.998   5.921  17.564  0.00  0.00    +0.000 A 
ATOM     14  C   UNL     1       3.160   5.524  18.592  0.00  0.00    +0.000 A 
BRANCH  13  15
ATOM     15  O   UNL     1       4.132   7.232  17.240  0.00  0.00    +0.000 OA
ATOM     16  H   UNL     1       4.757   7.674  17.830  0.00  0.00    +0.000 HD
ENDBRANCH  13  15
ENDBRANCH   3   5
BRANCH   2  17
ATOM     17  C   UNL     1      -0.028  10.239  20.508  0.00  0.00    +0.000 A 
ATOM     18  C   UNL     1      -0.119   9.954  21.875  0.00  0.00    +0.000 A 
ATOM     19  C   UNL     1      -0.913  10.754  22.698  0.00  0.00    +0.000 A 
ATOM     20  C   UNL     1      -1.618  11.836  22.156  0.00  0.00    +0.000 A 
ATOM     21  C   UNL     1      -1.549  12.118  20.790  0.00  0.00    +0.000 A 
ATOM     22  C   UNL     1      -0.752  11.314  19.968  0.00  0.00    +0.000 A 
BRANCH  20  23
ATOM     23  S   UNL     1      -2.709  12.772  23.200  0.00  0.00    +0.000 S 
ATOM     24  O   UNL     1      -3.427  11.824  24.022  0.00  0.00    +0.000 OA
ATOM     25  O   UNL     1      -1.969  13.871  23.778  0.00  0.00    +0.000 OA
BRANCH  23  26
ATOM     26  N   UNL     1      -3.848  13.413  22.134  0.00  0.00    +0.000 NA
ATOM     27  H   UNL     1      -3.367  13.912  21.385  0.00  0.00    +0.000 HD
BRANCH  26  28
ATOM     28  C   UNL     1      -4.994  12.586  21.735  0.00  0.00    +0.000 C 
ATOM     29  C   UNL     1      -6.315  13.119  22.263  0.00  0.00    +0.000 C 
ATOM     30  C   UNL     1      -7.354  12.493  21.347  0.00  0.00    +0.000 C 
ATOM     31  C   UNL     1      -6.669  12.332  19.994  0.00  0.00    +0.000 C 
ATOM     32  C   UNL     1      -5.192  12.653  20.220  0.00  0.00    +0.000 C 
ENDBRANCH  26  28
ENDBRANCH  23  26
ENDBRANCH  20  23
ENDBRANCH   2  17
TORSDOF 6
ENDMDL
