MODEL 1
REMARK VINA RESULT:      -6.4      0.000      0.000
REMARK  Name = 
REMARK  2 active torsions:
REMARK  status: ('A' for Active; 'I' for Inactive)
REMARK    1  A    between atoms: C_2  and  C_3
REMARK    2  A    between atoms: C_2  and  C_8
REMARK                            x       y       z     vdW  Elec       q    Type
REMARK                         _______ _______ _______ _____ _____    ______ ____
ROOT
ATOM      1  C   UNL     1       5.777   4.044  17.177  0.00  0.00    +0.000 C 
ATOM      2  C   UNL     1       7.206   4.616  17.193  0.00  0.00    +0.000 C 
ATOM      3  N   UNL     1       7.417   5.591  16.090  0.00  0.00    +0.000 NA
ATOM      4  C   UNL     1       7.011   4.995  14.796  0.00  0.00    +0.000 C 
ATOM      5  C   UNL     1       5.529   4.586  14.785  0.00  0.00    +0.000 C 
ATOM      6  C   UNL     1       4.927   4.856  16.171  0.00  0.00    +0.000 C 
ATOM      7  C   UNL     1       5.079   6.359  16.466  0.00  0.00    +0.000 C 
ATOM      8  C   UNL     1       6.557   6.764  16.360  0.00  0.00    +0.000 C 
ENDROOT
BRANCH   1  10
ATOM      9  O   UNL     1       5.679   4.342  19.564  0.00  0.00    +0.000 OA
ATOM     10  C   UNL     1       5.085   3.996  18.545  0.00  0.00    +0.000 C 
BRANCH  10  11
ATOM     11  C   UNL     1       3.675   3.584  18.586  0.00  0.00    +0.000 A 
ATOM     12  C   UNL     1       2.579   4.395  18.819  0.00  0.00    +0.000 A 
ATOM     13  C   UNL     1       1.342   3.685  18.748  0.00  0.00    +0.000 A 
ATOM     14  C   UNL     1       1.528   2.350  18.480  0.00  0.00    +0.000 A 
ATOM     15  S   UNL     1       3.179   1.957  18.339  0.00  0.00    +0.000 S 
ENDBRANCH  10  11
ENDBRANCH   1  10
TORSDOF 2
ENDMDL
MODEL 2
REMARK VINA RESULT:      -6.4      2.596      5.225
REMARK  Name = 
REMARK  2 active torsions:
REMARK  status: ('A' for Active; 'I' for Inactive)
REMARK    1  A    between atoms: C_2  and  C_3
REMARK    2  A    between atoms: C_2  and  C_8
REMARK                            x       y       z     vdW  Elec       q    Type
REMARK                         _______ _______ _______ _____ _____    ______ ____
ROOT
ATOM      1  C   UNL     1       3.197   4.790  19.474  0.00  0.00    +0.000 C 
ATOM      2  C   UNL     1       3.842   3.398  19.608  0.00  0.00    +0.000 C 
ATOM      3  N   UNL     1       2.815   2.325  19.684  0.00  0.00    +0.000 NA
ATOM      4  C   UNL     1       1.822   2.643  20.737  0.00  0.00    +0.000 C 
ATOM      5  C   UNL     1       1.095   3.970  20.467  0.00  0.00    +0.000 C 
ATOM      6  C   UNL     1       1.684   4.614  19.204  0.00  0.00    +0.000 C 
ATOM      7  C   UNL     1       1.482   3.631  18.037  0.00  0.00    +0.000 C 
ATOM      8  C   UNL     1       2.121   2.277  18.380  0.00  0.00    +0.000 C 
ENDROOT
BRANCH   1  10
ATOM      9  O   UNL     1       3.452   6.856  18.266  0.00  0.00    +0.000 OA
ATOM     10  C   UNL     1       3.829   5.695  18.409  0.00  0.00    +0.000 C 
BRANCH  10  11
ATOM     11  C   UNL     1       4.936   5.148  17.613  0.00  0.00    +0.000 A 
ATOM     12  C   UNL     1       4.839   4.425  16.438  0.00  0.00    +0.000 A 
ATOM     13  C   UNL     1       6.112   4.078  15.896  0.00  0.00    +0.000 A 
ATOM     14  C   UNL     1       7.147   4.531  16.678  0.00  0.00    +0.000 A 
ATOM     15  S   UNL     1       6.584   5.344  18.064  0.00  0.00    +0.000 S 
ENDBRANCH  10  11
ENDBRANCH   1  10
TORSDOF 2
ENDMDL
MODEL 3
REMARK VINA RESULT:      -6.3      2.673      5.258
REMARK  Name = 
REMARK  2 active torsions:
REMARK  status: ('A' for Active; 'I' for Inactive)
REMARK    1  A    between atoms: C_2  and  C_3
REMARK    2  A    between atoms: C_2  and  C_8
REMARK                            x       y       z     vdW  Elec       q    Type
REMARK                         _______ _______ _______ _____ _____    ______ ____
ROOT
ATOM      1  C   UNL     1       3.218   4.739  19.591  0.00  0.00    +0.000 C 
ATOM      2  C   UNL     1       3.798   3.313  19.587  0.00  0.00    +0.000 C 
ATOM      3  N   UNL     1       2.725   2.287  19.487  0.00  0.00    +0.000 NA
ATOM      4  C   UNL     1       1.692   2.525  20.523  0.00  0.00    +0.000 C 
ATOM      5  C   UNL     1       1.036   3.908  20.380  0.00  0.00    +0.000 C 
ATOM      6  C   UNL     1       1.715   4.667  19.232  0.00  0.00    +0.000 C 
ATOM      7  C   UNL     1       1.533   3.838  17.948  0.00  0.00    +0.000 C 
ATOM      8  C   UNL     1       2.097   2.425  18.155  0.00  0.00    +0.000 C 
ENDROOT
BRANCH   1  10
ATOM      9  O   UNL     1       3.431   6.814  18.391  0.00  0.00    +0.000 OA
ATOM     10  C   UNL     1       3.940   5.732  18.672  0.00  0.00    +0.000 C 
BRANCH  10  11
ATOM     11  C   UNL     1       5.283   5.372  18.194  0.00  0.00    +0.000 A 
ATOM     12  C   UNL     1       6.477   5.525  18.874  0.00  0.00    +0.000 A 
ATOM     13  C   UNL     1       7.598   5.034  18.140  0.00  0.00    +0.000 A 
ATOM     14  C   UNL     1       7.233   4.535  16.913  0.00  0.00    +0.000 A 
ATOM     15  S   UNL     1       5.558   4.680  16.644  0.00  0.00    +0.000 S 
ENDBRANCH  10  11
ENDBRANCH   1  10
TORSDOF 2
ENDMDL
MODEL 4
REMARK VINA RESULT:      -6.3      2.956      5.493
REMARK  Name = 
REMARK  2 active torsions:
REMARK  status: ('A' for Active; 'I' for Inactive)
REMARK    1  A    between atoms: C_2  and  C_3
REMARK    2  A    between atoms: C_2  and  C_8
REMARK                            x       y       z     vdW  Elec       q    Type
REMARK                         _______ _______ _______ _____ _____    ______ ____
ROOT
ATOM      1  C   UNL     1       3.740   3.922  19.243  0.00  0.00    +0.000 C 
ATOM      2  C   UNL     1       3.252   2.506  19.598  0.00  0.00    +0.000 C 
ATOM      3  N   UNL     1       1.796   2.491  19.903  0.00  0.00    +0.000 NA
ATOM      4  C   UNL     1       1.475   3.522  20.917  0.00  0.00    +0.000 C 
ATOM      5  C   UNL     1       1.841   4.938  20.442  0.00  0.00    +0.000 C 
ATOM      6  C   UNL     1       2.510   4.844  19.064  0.00  0.00    +0.000 C 
ATOM      7  C   UNL     1       1.510   4.182  18.099  0.00  0.00    +0.000 C 
ATOM      8  C   UNL     1       1.074   2.818  18.654  0.00  0.00    +0.000 C 
ENDROOT
BRANCH   1  10
ATOM      9  O   UNL     1       4.452   3.283  17.034  0.00  0.00    +0.000 OA
ATOM     10  C   UNL     1       4.651   4.001  18.011  0.00  0.00    +0.000 C 
BRANCH  10  11
ATOM     11  C   UNL     1       5.725   5.004  18.015  0.00  0.00    +0.000 A 
ATOM     12  C   UNL     1       6.661   5.216  19.012  0.00  0.00    +0.000 A 
ATOM     13  C   UNL     1       7.595   6.243  18.682  0.00  0.00    +0.000 A 
ATOM     14  C   UNL     1       7.338   6.799  17.452  0.00  0.00    +0.000 A 
ATOM     15  S   UNL     1       5.970   6.103  16.716  0.00  0.00    +0.000 S 
ENDBRANCH  10  11
ENDBRANCH   1  10
TORSDOF 2
ENDMDL
MODEL 5
REMARK VINA RESULT:      -6.2      1.810      2.149
REMARK  Name = 
REMARK  2 active torsions:
REMARK  status: ('A' for Active; 'I' for Inactive)
REMARK    1  A    between atoms: C_2  and  C_3
REMARK    2  A    between atoms: C_2  and  C_8
REMARK                            x       y       z     vdW  Elec       q    Type
REMARK                         _______ _______ _______ _____ _____    ______ ____
ROOT
ATOM      1  C   UNL     1       4.667   3.678  17.306  0.00  0.00    +0.000 C 
ATOM      2  C   UNL     1       5.532   4.180  18.476  0.00  0.00    +0.000 C 
ATOM      3  N   UNL     1       6.552   5.163  18.019  0.00  0.00    +0.000 NA
ATOM      4  C   UNL     1       7.322   4.608  16.881  0.00  0.00    +0.000 C 
ATOM      5  C   UNL     1       6.423   4.270  15.681  0.00  0.00    +0.000 C 
ATOM      6  C   UNL     1       4.961   4.546  16.059  0.00  0.00    +0.000 C 
ATOM      7  C   UNL     1       4.844   6.035  16.431  0.00  0.00    +0.000 C 
ATOM      8  C   UNL     1       5.834   6.370  17.557  0.00  0.00    +0.000 C 
ENDROOT
BRANCH   1  10
ATOM      9  O   UNL     1       2.368   3.255  16.730  0.00  0.00    +0.000 OA
ATOM     10  C   UNL     1       3.160   3.640  17.587  0.00  0.00    +0.000 C 
BRANCH  10  11
ATOM     11  C   UNL     1       2.703   4.019  18.932  0.00  0.00    +0.000 A 
ATOM     12  C   UNL     1       2.278   5.269  19.344  0.00  0.00    +0.000 A 
ATOM     13  C   UNL     1       1.860   5.288  20.708  0.00  0.00    +0.000 A 
ATOM     14  C   UNL     1       1.993   4.058  21.306  0.00  0.00    +0.000 A 
ATOM     15  S   UNL     1       2.638   2.901  20.236  0.00  0.00    +0.000 S 
ENDBRANCH  10  11
ENDBRANCH   1  10
TORSDOF 2
ENDMDL
MODEL 6
REMARK VINA RESULT:      -6.2      2.845      5.443
REMARK  Name = 
REMARK  2 active torsions:
REMARK  status: ('A' for Active; 'I' for Inactive)
REMARK    1  A    between atoms: C_2  and  C_3
REMARK    2  A    between atoms: C_2  and  C_8
REMARK                            x       y       z     vdW  Elec       q    Type
REMARK                         _______ _______ _______ _____ _____    ______ ____
ROOT
ATOM      1  C   UNL     1       3.654   3.922  19.160  0.00  0.00    +0.000 C 
ATOM      2  C   UNL     1       3.306   2.517  19.685  0.00  0.00    +0.000 C 
ATOM      3  N   UNL     1       1.875   2.419  20.078  0.00  0.00    +0.000 NA
ATOM      4  C   UNL     1       1.522   3.522  21.002  0.00  0.00    +0.000 C 
ATOM      5  C   UNL     1       1.741   4.905  20.367  0.00  0.00    +0.000 C 
ATOM      6  C   UNL     1       2.342   4.720  18.966  0.00  0.00    +0.000 C 
ATOM      7  C   UNL     1       1.351   3.885  18.136  0.00  0.00    +0.000 C 
ATOM      8  C   UNL     1       1.063   2.556  18.849  0.00  0.00    +0.000 C 
ENDROOT
BRANCH   1  10
ATOM      9  O   UNL     1       4.334   3.083  17.009  0.00  0.00    +0.000 OA
ATOM     10  C   UNL     1       4.488   3.944  17.873  0.00  0.00    +0.000 C 
BRANCH  10  11
ATOM     11  C   UNL     1       5.426   5.058  17.683  0.00  0.00    +0.000 A 
ATOM     12  C   UNL     1       5.123   6.336  17.248  0.00  0.00    +0.000 A 
ATOM     13  C   UNL     1       6.263   7.192  17.214  0.00  0.00    +0.000 A 
ATOM     14  C   UNL     1       7.409   6.543  17.606  0.00  0.00    +0.000 A 
ATOM     15  S   UNL     1       7.112   4.911  17.989  0.00  0.00    +0.000 S 
ENDBRANCH  10  11
ENDBRANCH   1  10
TORSDOF 2
ENDMDL
MODEL 7
REMARK VINA RESULT:      -6.2      2.212      4.798
REMARK  Name = 
REMARK  2 active torsions:
REMARK  status: ('A' for Active; 'I' for Inactive)
REMARK    1  A    between atoms: C_2  and  C_3
REMARK    2  A    between atoms: C_2  and  C_8
REMARK                            x       y       z     vdW  Elec       q    Type
REMARK                         _______ _______ _______ _____ _____    ______ ____
ROOT
ATOM      1  C   UNL     1       4.057   3.294  18.871  0.00  0.00    +0.000 C 
ATOM      2  C   UNL     1       3.348   2.777  17.606  0.00  0.00    +0.000 C 
ATOM      3  N   UNL     1       1.868   2.865  17.735  0.00  0.00    +0.000 NA
ATOM      4  C   UNL     1       1.426   2.219  18.993  0.00  0.00    +0.000 C 
ATOM      5  C   UNL     1       2.046   2.880  20.235  0.00  0.00    +0.000 C 
ATOM      6  C   UNL     1       3.014   3.982  19.782  0.00  0.00    +0.000 C 
ATOM      7  C   UNL     1       2.209   5.006  18.960  0.00  0.00    +0.000 C 
ATOM      8  C   UNL     1       1.508   4.299  17.790  0.00  0.00    +0.000 C 
ENDROOT
BRANCH   1  10
ATOM      9  O   UNL     1       6.079   4.449  19.481  0.00  0.00    +0.000 OA
ATOM     10  C   UNL     1       5.241   4.234  18.609  0.00  0.00    +0.000 C 
BRANCH  10  11
ATOM     11  C   UNL     1       5.370   4.815  17.265  0.00  0.00    +0.000 A 
ATOM     12  C   UNL     1       4.851   6.020  16.827  0.00  0.00    +0.000 A 
ATOM     13  C   UNL     1       5.197   6.310  15.473  0.00  0.00    +0.000 A 
ATOM     14  C   UNL     1       5.957   5.313  14.910  0.00  0.00    +0.000 A 
ATOM     15  S   UNL     1       6.228   4.032  15.997  0.00  0.00    +0.000 S 
ENDBRANCH  10  11
ENDBRANCH   1  10
TORSDOF 2
ENDMDL
MODEL 8
REMARK VINA RESULT:      -6.2      1.841      2.181
REMARK  Name = 
REMARK  2 active torsions:
REMARK  status: ('A' for Active; 'I' for Inactive)
REMARK    1  A    between atoms: C_2  and  C_3
REMARK    2  A    between atoms: C_2  and  C_8
REMARK                            x       y       z     vdW  Elec       q    Type
REMARK                         _______ _______ _______ _____ _____    ______ ____
ROOT
ATOM      1  C   UNL     1       4.238   5.009  17.164  0.00  0.00    +0.000 C 
ATOM      2  C   UNL     1       5.292   4.231  17.973  0.00  0.00    +0.000 C 
ATOM      3  N   UNL     1       6.674   4.571  17.540  0.00  0.00    +0.000 NA
ATOM      4  C   UNL     1       6.799   4.424  16.071  0.00  0.00    +0.000 C 
ATOM      5  C   UNL     1       5.830   5.343  15.311  0.00  0.00    +0.000 C 
ATOM      6  C   UNL     1       4.955   6.094  16.325  0.00  0.00    +0.000 C 
ATOM      7  C   UNL     1       5.888   6.913  17.235  0.00  0.00    +0.000 C 
ATOM      8  C   UNL     1       6.919   5.985  17.895  0.00  0.00    +0.000 C 
ENDROOT
BRANCH   1  10
ATOM      9  O   UNL     1       2.879   6.840  17.934  0.00  0.00    +0.000 OA
ATOM     10  C   UNL     1       3.115   5.635  17.999  0.00  0.00    +0.000 C 
BRANCH  10  11
ATOM     11  C   UNL     1       2.295   4.740  18.826  0.00  0.00    +0.000 A 
ATOM     12  C   UNL     1       1.518   3.682  18.389  0.00  0.00    +0.000 A 
ATOM     13  C   UNL     1       0.880   2.986  19.459  0.00  0.00    +0.000 A 
ATOM     14  C   UNL     1       1.172   3.541  20.682  0.00  0.00    +0.000 A 
ATOM     15  S   UNL     1       2.187   4.899  20.535  0.00  0.00    +0.000 S 
ENDBRANCH  10  11
ENDBRANCH   1  10
TORSDOF 2
ENDMDL
MODEL 9
REMARK VINA RESULT:      -6.2      1.688      2.376
REMARK  Name = 
REMARK  2 active torsions:
REMARK  status: ('A' for Active; 'I' for Inactive)
REMARK    1  A    between atoms: C_2  and  C_3
REMARK    2  A    between atoms: C_2  and  C_8
REMARK                            x       y       z     vdW  Elec       q    Type
REMARK                         _______ _______ _______ _____ _____    ______ ____
ROOT
ATOM      1  C   UNL     1       4.024   4.168  17.189  0.00  0.00    +0.000 C 
ATOM      2  C   UNL     1       5.182   3.886  16.216  0.00  0.00    +0.000 C 
ATOM      3  N   UNL     1       6.262   4.901  16.342  0.00  0.00    +0.000 NA
ATOM      4  C   UNL     1       5.695   6.266  16.239  0.00  0.00    +0.000 C 
ATOM      5  C   UNL     1       4.655   6.547  17.336  0.00  0.00    +0.000 C 
ATOM      6  C   UNL     1       4.461   5.277  18.176  0.00  0.00    +0.000 C 
ATOM      7  C   UNL     1       5.823   4.908  18.792  0.00  0.00    +0.000 C 
ATOM      8  C   UNL     1       6.870   4.743  17.681  0.00  0.00    +0.000 C 
ENDROOT
BRANCH   1  10
ATOM      9  O   UNL     1       3.870   1.810  17.644  0.00  0.00    +0.000 OA
ATOM     10  C   UNL     1       3.510   2.943  17.956  0.00  0.00    +0.000 C 
BRANCH  10  11
ATOM     11  C   UNL     1       2.629   3.175  19.108  0.00  0.00    +0.000 A 
ATOM     12  C   UNL     1       1.368   3.744  19.090  0.00  0.00    +0.000 A 
ATOM     13  C   UNL     1       0.762   3.783  20.381  0.00  0.00    +0.000 A 
ATOM     14  C   UNL     1       1.581   3.260  21.352  0.00  0.00    +0.000 A 
ATOM     15  S   UNL     1       3.073   2.748  20.714  0.00  0.00    +0.000 S 
ENDBRANCH  10  11
ENDBRANCH   1  10
TORSDOF 2
ENDMDL
