MODEL 1
REMARK VINA RESULT:      -7.8      0.000      0.000
REMARK  Name = 
REMARK  8 active torsions:
REMARK  status: ('A' for Active; 'I' for Inactive)
REMARK    1  A    between atoms: C_1  and  O_2
REMARK    2  A    between atoms: O_2  and  C_3
REMARK    3  A    between atoms: C_6  and  O_7
REMARK    4  A    between atoms: O_7  and  C_8
REMARK    5  A    between atoms: C_8  and  C_9
REMARK    6  A    between atoms: N_11  and  C_12
REMARK    7  A    between atoms: N_11  and  C_20
REMARK    8  A    between atoms: C_12  and  C_13
REMARK                            x       y       z     vdW  Elec       q    Type
REMARK                         _______ _______ _______ _____ _____    ______ ____
ROOT
ATOM      1  C   UNL     1       2.175   7.572  19.146  0.00  0.00    +0.000 C 
ATOM      2  O   UNL     1       1.967   8.323  18.193  0.00  0.00    +0.000 OA
ATOM      3  N   UNL     1       2.658   6.252  18.979  0.00  0.00    +0.000 N 
ENDROOT
BRANCH   3   4
ATOM      4  C   UNL     1       2.442   5.214  20.012  0.00  0.00    +0.000 C 
ATOM      5  C   UNL     1       1.055   4.555  19.872  0.00  0.00    +0.000 C 
ATOM      6  C   UNL     1       1.061   3.358  20.804  0.00  0.00    +0.000 C 
ATOM      7  S   UNL     1       2.683   2.648  20.614  0.00  0.00    +0.000 S 
ATOM      8  O   UNL     1       2.642   1.726  19.499  0.00  0.00    +0.000 OA
ATOM      9  O   UNL     1       3.176   2.271  21.921  0.00  0.00    +0.000 OA
ATOM     10  C   UNL     1       3.518   4.128  20.073  0.00  0.00    +0.000 C 
ENDBRANCH   3   4
BRANCH   1  11
ATOM     11  C   UNL     1       1.886   8.015  20.597  0.00  0.00    +0.000 C 
BRANCH  11  12
ATOM     12  O   UNL     1       0.547   7.891  21.057  0.00  0.00    +0.000 OA
BRANCH  12  16
ATOM     13  C   UNL     1      -1.155  11.485  22.379  0.00  0.00    +0.000 A 
ATOM     14  C   UNL     1      -0.927  10.416  23.247  0.00  0.00    +0.000 A 
ATOM     15  C   UNL     1      -0.345   9.228  22.784  0.00  0.00    +0.000 A 
ATOM     16  C   UNL     1      -0.016   9.090  21.435  0.00  0.00    +0.000 A 
ATOM     17  C   UNL     1      -0.240  10.161  20.570  0.00  0.00    +0.000 A 
ATOM     18  C   UNL     1      -0.817  11.350  21.034  0.00  0.00    +0.000 A 
BRANCH  13  20
ATOM     19  C   UNL     1      -3.082  12.457  23.351  0.00  0.00    +0.000 C 
ATOM     20  O   UNL     1      -1.725  12.594  22.940  0.00  0.00    +0.000 OA
ENDBRANCH  13  20
ENDBRANCH  12  16
ENDBRANCH  11  12
ENDBRANCH   1  11
BRANCH   3  21
ATOM     21  C   UNL     1       2.906   5.797  17.591  0.00  0.00    +0.000 C 
BRANCH  21  22
ATOM     22  C   UNL     1       4.360   5.724  17.180  0.00  0.00    +0.000 A 
ATOM     23  C   UNL     1       4.872   4.593  16.530  0.00  0.00    +0.000 A 
ATOM     24  C   UNL     1       6.229   4.500  16.207  0.00  0.00    +0.000 A 
ATOM     25  C   UNL     1       7.101   5.535  16.535  0.00  0.00    +0.000 A 
ATOM     26  C   UNL     1       6.610   6.656  17.197  0.00  0.00    +0.000 A 
ATOM     27 BR   UNL     1       7.795   8.052  17.672  0.00  0.00    +0.000 Br
ATOM     28  C   UNL     1       5.254   6.753  17.524  0.00  0.00    +0.000 A 
ENDBRANCH  21  22
ENDBRANCH   3  21
TORSDOF 7
ENDMDL
MODEL 2
REMARK VINA RESULT:      -7.8      0.754      1.169
REMARK  Name = 
REMARK  8 active torsions:
REMARK  status: ('A' for Active; 'I' for Inactive)
REMARK    1  A    between atoms: C_1  and  O_2
REMARK    2  A    between atoms: O_2  and  C_3
REMARK    3  A    between atoms: C_6  and  O_7
REMARK    4  A    between atoms: O_7  and  C_8
REMARK    5  A    between atoms: C_8  and  C_9
REMARK    6  A    between atoms: N_11  and  C_12
REMARK    7  A    between atoms: N_11  and  C_20
REMARK    8  A    between atoms: C_12  and  C_13
REMARK                            x       y       z     vdW  Elec       q    Type
REMARK                         _______ _______ _______ _____ _____    ______ ____
ROOT
ATOM      1  C   UNL     1       1.919   7.669  19.461  0.00  0.00    +0.000 C 
ATOM      2  O   UNL     1       1.834   8.612  18.674  0.00  0.00    +0.000 OA
ATOM      3  N   UNL     1       2.390   6.394  19.067  0.00  0.00    +0.000 N 
ENDROOT
BRANCH   3   4
ATOM      4  C   UNL     1       2.040   5.172  19.828  0.00  0.00    +0.000 C 
ATOM      5  C   UNL     1       1.436   4.089  18.913  0.00  0.00    +0.000 C 
ATOM      6  C   UNL     1       1.363   2.824  19.747  0.00  0.00    +0.000 C 
ATOM      7  S   UNL     1       2.882   2.812  20.677  0.00  0.00    +0.000 S 
ATOM      8  O   UNL     1       3.897   2.170  19.869  0.00  0.00    +0.000 OA
ATOM      9  O   UNL     1       2.589   2.401  22.032  0.00  0.00    +0.000 OA
ATOM     10  C   UNL     1       3.185   4.568  20.645  0.00  0.00    +0.000 C 
ENDBRANCH   3   4
BRANCH   1  11
ATOM     11  C   UNL     1       1.480   7.810  20.935  0.00  0.00    +0.000 C 
BRANCH  11  12
ATOM     12  O   UNL     1       1.847   9.008  21.608  0.00  0.00    +0.000 OA
BRANCH  12  16
ATOM     13  C   UNL     1      -1.387  11.578  22.313  0.00  0.00    +0.000 A 
ATOM     14  C   UNL     1      -0.534  11.752  21.223  0.00  0.00    +0.000 A 
ATOM     15  C   UNL     1       0.534  10.872  21.001  0.00  0.00    +0.000 A 
ATOM     16  C   UNL     1       0.775   9.825  21.892  0.00  0.00    +0.000 A 
ATOM     17  C   UNL     1      -0.082   9.651  22.979  0.00  0.00    +0.000 A 
ATOM     18  C   UNL     1      -1.152  10.528  23.198  0.00  0.00    +0.000 A 
BRANCH  13  20
ATOM     19  C   UNL     1      -3.223  12.368  23.582  0.00  0.00    +0.000 C 
ATOM     20  O   UNL     1      -2.395  12.495  22.429  0.00  0.00    +0.000 OA
ENDBRANCH  13  20
ENDBRANCH  12  16
ENDBRANCH  11  12
ENDBRANCH   1  11
BRANCH   3  21
ATOM     21  C   UNL     1       2.781   6.229  17.648  0.00  0.00    +0.000 C 
BRANCH  21  22
ATOM     22  C   UNL     1       4.250   5.957  17.405  0.00  0.00    +0.000 A 
ATOM     23  C   UNL     1       4.704   4.671  17.084  0.00  0.00    +0.000 A 
ATOM     24  C   UNL     1       6.067   4.408  16.921  0.00  0.00    +0.000 A 
ATOM     25  C   UNL     1       7.002   5.426  17.082  0.00  0.00    +0.000 A 
ATOM     26  C   UNL     1       6.567   6.705  17.419  0.00  0.00    +0.000 A 
ATOM     27 BR   UNL     1       7.835   8.086  17.668  0.00  0.00    +0.000 Br
ATOM     28  C   UNL     1       5.205   6.973  17.585  0.00  0.00    +0.000 A 
ENDBRANCH  21  22
ENDBRANCH   3  21
TORSDOF 7
ENDMDL
MODEL 3
REMARK VINA RESULT:      -7.6      1.338      1.783
REMARK  Name = 
REMARK  8 active torsions:
REMARK  status: ('A' for Active; 'I' for Inactive)
REMARK    1  A    between atoms: C_1  and  O_2
REMARK    2  A    between atoms: O_2  and  C_3
REMARK    3  A    between atoms: C_6  and  O_7
REMARK    4  A    between atoms: O_7  and  C_8
REMARK    5  A    between atoms: C_8  and  C_9
REMARK    6  A    between atoms: N_11  and  C_12
REMARK    7  A    between atoms: N_11  and  C_20
REMARK    8  A    between atoms: C_12  and  C_13
REMARK                            x       y       z     vdW  Elec       q    Type
REMARK                         _______ _______ _______ _____ _____    ______ ____
ROOT
ATOM      1  C   UNL     1       2.250   7.504  19.382  0.00  0.00    +0.000 C 
ATOM      2  O   UNL     1       2.430   8.396  18.553  0.00  0.00    +0.000 OA
ATOM      3  N   UNL     1       2.467   6.137  19.084  0.00  0.00    +0.000 N 
ENDROOT
BRANCH   3   4
ATOM      4  C   UNL     1       1.805   5.063  19.860  0.00  0.00    +0.000 C 
ATOM      5  C   UNL     1       1.357   3.902  18.950  0.00  0.00    +0.000 C 
ATOM      6  C   UNL     1       0.938   2.777  19.877  0.00  0.00    +0.000 C 
ATOM      7  S   UNL     1       2.148   2.798  21.184  0.00  0.00    +0.000 S 
ATOM      8  O   UNL     1       3.269   1.982  20.770  0.00  0.00    +0.000 OA
ATOM      9  O   UNL     1       1.466   2.606  22.445  0.00  0.00    +0.000 OA
ATOM     10  C   UNL     1       2.625   4.508  21.026  0.00  0.00    +0.000 C 
ENDBRANCH   3   4
BRANCH   1  11
ATOM     11  C   UNL     1       1.737   7.820  20.804  0.00  0.00    +0.000 C 
BRANCH  11  12
ATOM     12  O   UNL     1       0.332   7.968  20.968  0.00  0.00    +0.000 OA
BRANCH  12  16
ATOM     13  C   UNL     1      -0.731  11.727  22.484  0.00  0.00    +0.000 A 
ATOM     14  C   UNL     1      -0.144  11.580  21.227  0.00  0.00    +0.000 A 
ATOM     15  C   UNL     1       0.192  10.311  20.736  0.00  0.00    +0.000 A 
ATOM     16  C   UNL     1      -0.030   9.178  21.519  0.00  0.00    +0.000 A 
ATOM     17  C   UNL     1      -0.620   9.326  22.774  0.00  0.00    +0.000 A 
ATOM     18  C   UNL     1      -0.960  10.594  23.261  0.00  0.00    +0.000 A 
BRANCH  13  20
ATOM     19  C   UNL     1      -0.466  14.038  22.040  0.00  0.00    +0.000 C 
ATOM     20  O   UNL     1      -1.018  13.010  22.859  0.00  0.00    +0.000 OA
ENDBRANCH  13  20
ENDBRANCH  12  16
ENDBRANCH  11  12
ENDBRANCH   1  11
BRANCH   3  21
ATOM     21  C   UNL     1       2.924   5.812  17.714  0.00  0.00    +0.000 C 
BRANCH  21  22
ATOM     22  C   UNL     1       4.396   5.487  17.578  0.00  0.00    +0.000 A 
ATOM     23  C   UNL     1       5.245   5.499  18.693  0.00  0.00    +0.000 A 
ATOM     24  C   UNL     1       6.616   5.260  18.557  0.00  0.00    +0.000 A 
ATOM     25  C   UNL     1       7.163   5.012  17.302  0.00  0.00    +0.000 A 
ATOM     26  C   UNL     1       6.335   5.014  16.183  0.00  0.00    +0.000 A 
ATOM     27 BR   UNL     1       7.078   4.706  14.471  0.00  0.00    +0.000 Br
ATOM     28  C   UNL     1       4.964   5.254  16.313  0.00  0.00    +0.000 A 
ENDBRANCH  21  22
ENDBRANCH   3  21
TORSDOF 7
ENDMDL
MODEL 4
REMARK VINA RESULT:      -7.6      1.129      1.384
REMARK  Name = 
REMARK  8 active torsions:
REMARK  status: ('A' for Active; 'I' for Inactive)
REMARK    1  A    between atoms: C_1  and  O_2
REMARK    2  A    between atoms: O_2  and  C_3
REMARK    3  A    between atoms: C_6  and  O_7
REMARK    4  A    between atoms: O_7  and  C_8
REMARK    5  A    between atoms: C_8  and  C_9
REMARK    6  A    between atoms: N_11  and  C_12
REMARK    7  A    between atoms: N_11  and  C_20
REMARK    8  A    between atoms: C_12  and  C_13
REMARK                            x       y       z     vdW  Elec       q    Type
REMARK                         _______ _______ _______ _____ _____    ______ ____
ROOT
ATOM      1  C   UNL     1       2.158   7.661  19.311  0.00  0.00    +0.000 C 
ATOM      2  O   UNL     1       2.105   8.572  18.486  0.00  0.00    +0.000 OA
ATOM      3  N   UNL     1       2.558   6.347  18.965  0.00  0.00    +0.000 N 
ENDROOT
BRANCH   3   4
ATOM      4  C   UNL     1       2.161   5.178  19.783  0.00  0.00    +0.000 C 
ATOM      5  C   UNL     1       1.444   4.110  18.934  0.00  0.00    +0.000 C 
ATOM      6  C   UNL     1       1.324   2.881  19.814  0.00  0.00    +0.000 C 
ATOM      7  S   UNL     1       2.880   2.793  20.676  0.00  0.00    +0.000 S 
ATOM      8  O   UNL     1       3.811   2.057  19.848  0.00  0.00    +0.000 OA
ATOM      9  O   UNL     1       2.623   2.448  22.057  0.00  0.00    +0.000 OA
ATOM     10  C   UNL     1       3.299   4.523  20.569  0.00  0.00    +0.000 C 
ENDBRANCH   3   4
BRANCH   1  11
ATOM     11  C   UNL     1       1.753   7.885  20.785  0.00  0.00    +0.000 C 
BRANCH  11  12
ATOM     12  O   UNL     1       0.364   7.861  21.085  0.00  0.00    +0.000 OA
BRANCH  12  16
ATOM     13  C   UNL     1      -1.159  11.555  22.348  0.00  0.00    +0.000 A 
ATOM     14  C   UNL     1      -0.965  10.498  23.236  0.00  0.00    +0.000 A 
ATOM     15  C   UNL     1      -0.442   9.275  22.793  0.00  0.00    +0.000 A 
ATOM     16  C   UNL     1      -0.140   9.093  21.443  0.00  0.00    +0.000 A 
ATOM     17  C   UNL     1      -0.331  10.153  20.556  0.00  0.00    +0.000 A 
ATOM     18  C   UNL     1      -0.848  11.376  21.002  0.00  0.00    +0.000 A 
BRANCH  13  20
ATOM     19  C   UNL     1      -3.021  12.628  23.342  0.00  0.00    +0.000 C 
ATOM     20  O   UNL     1      -1.671  12.701  22.891  0.00  0.00    +0.000 OA
ENDBRANCH  13  20
ENDBRANCH  12  16
ENDBRANCH  11  12
ENDBRANCH   1  11
BRANCH   3  21
ATOM     21  C   UNL     1       2.915   6.104  17.549  0.00  0.00    +0.000 C 
BRANCH  21  22
ATOM     22  C   UNL     1       4.384   5.862  17.279  0.00  0.00    +0.000 A 
ATOM     23  C   UNL     1       5.365   6.289  18.185  0.00  0.00    +0.000 A 
ATOM     24  C   UNL     1       6.725   6.122  17.906  0.00  0.00    +0.000 A 
ATOM     25  C   UNL     1       7.128   5.529  16.712  0.00  0.00    +0.000 A 
ATOM     26  C   UNL     1       6.165   5.116  15.796  0.00  0.00    +0.000 A 
ATOM     27 BR   UNL     1       6.708   4.337  14.160  0.00  0.00    +0.000 Br
ATOM     28  C   UNL     1       4.805   5.283  16.069  0.00  0.00    +0.000 A 
ENDBRANCH  21  22
ENDBRANCH   3  21
TORSDOF 7
ENDMDL
MODEL 5
REMARK VINA RESULT:      -7.5      1.094      1.095
REMARK  Name = 
REMARK  8 active torsions:
REMARK  status: ('A' for Active; 'I' for Inactive)
REMARK    1  A    between atoms: C_1  and  O_2
REMARK    2  A    between atoms: O_2  and  C_3
REMARK    3  A    between atoms: C_6  and  O_7
REMARK    4  A    between atoms: O_7  and  C_8
REMARK    5  A    between atoms: C_8  and  C_9
REMARK    6  A    between atoms: N_11  and  C_12
REMARK    7  A    between atoms: N_11  and  C_20
REMARK    8  A    between atoms: C_12  and  C_13
REMARK                            x       y       z     vdW  Elec       q    Type
REMARK                         _______ _______ _______ _____ _____    ______ ____
ROOT
ATOM      1  C   UNL     1       2.107   7.549  19.289  0.00  0.00    +0.000 C 
ATOM      2  O   UNL     1       2.183   8.504  18.516  0.00  0.00    +0.000 OA
ATOM      3  N   UNL     1       2.451   6.231  18.903  0.00  0.00    +0.000 N 
ENDROOT
BRANCH   3   4
ATOM      4  C   UNL     1       1.912   5.051  19.616  0.00  0.00    +0.000 C 
ATOM      5  C   UNL     1       1.520   3.927  18.636  0.00  0.00    +0.000 C 
ATOM      6  C   UNL     1       1.233   2.706  19.488  0.00  0.00    +0.000 C 
ATOM      7  S   UNL     1       2.492   2.731  20.748  0.00  0.00    +0.000 S 
ATOM      8  O   UNL     1       3.656   2.044  20.231  0.00  0.00    +0.000 OA
ATOM      9  O   UNL     1       1.883   2.389  22.015  0.00  0.00    +0.000 OA
ATOM     10  C   UNL     1       2.823   4.482  20.706  0.00  0.00    +0.000 C 
ENDBRANCH   3   4
BRANCH   1  11
ATOM     11  C   UNL     1       1.591   7.724  20.735  0.00  0.00    +0.000 C 
BRANCH  11  12
ATOM     12  O   UNL     1       1.991   8.900  21.427  0.00  0.00    +0.000 OA
BRANCH  12  16
ATOM     13  C   UNL     1      -1.221  11.378  22.475  0.00  0.00    +0.000 A 
ATOM     14  C   UNL     1      -0.899  10.240  23.215  0.00  0.00    +0.000 A 
ATOM     15  C   UNL     1       0.188   9.433  22.852  0.00  0.00    +0.000 A 
ATOM     16  C   UNL     1       0.943   9.745  21.720  0.00  0.00    +0.000 A 
ATOM     17  C   UNL     1       0.622  10.885  20.984  0.00  0.00    +0.000 A 
ATOM     18  C   UNL     1      -0.462  11.694  21.351  0.00  0.00    +0.000 A 
BRANCH  13  20
ATOM     19  C   UNL     1      -2.034  13.426  23.341  0.00  0.00    +0.000 C 
ATOM     20  O   UNL     1      -2.299  12.091  22.922  0.00  0.00    +0.000 OA
ENDBRANCH  13  20
ENDBRANCH  12  16
ENDBRANCH  11  12
ENDBRANCH   1  11
BRANCH   3  21
ATOM     21  C   UNL     1       2.912   6.039  17.509  0.00  0.00    +0.000 C 
BRANCH  21  22
ATOM     22  C   UNL     1       4.331   5.535  17.356  0.00  0.00    +0.000 A 
ATOM     23  C   UNL     1       4.681   4.661  16.319  0.00  0.00    +0.000 A 
ATOM     24  C   UNL     1       5.977   4.146  16.216  0.00  0.00    +0.000 A 
ATOM     25  C   UNL     1       6.946   4.493  17.153  0.00  0.00    +0.000 A 
ATOM     26  C   UNL     1       6.608   5.347  18.199  0.00  0.00    +0.000 A 
ATOM     27 BR   UNL     1       7.912   5.799  19.493  0.00  0.00    +0.000 Br
ATOM     28  C   UNL     1       5.313   5.862  18.308  0.00  0.00    +0.000 A 
ENDBRANCH  21  22
ENDBRANCH   3  21
TORSDOF 7
ENDMDL
MODEL 6
REMARK VINA RESULT:      -7.5      1.185      1.514
REMARK  Name = 
REMARK  8 active torsions:
REMARK  status: ('A' for Active; 'I' for Inactive)
REMARK    1  A    between atoms: C_1  and  O_2
REMARK    2  A    between atoms: O_2  and  C_3
REMARK    3  A    between atoms: C_6  and  O_7
REMARK    4  A    between atoms: O_7  and  C_8
REMARK    5  A    between atoms: C_8  and  C_9
REMARK    6  A    between atoms: N_11  and  C_12
REMARK    7  A    between atoms: N_11  and  C_20
REMARK    8  A    between atoms: C_12  and  C_13
REMARK                            x       y       z     vdW  Elec       q    Type
REMARK                         _______ _______ _______ _____ _____    ______ ____
ROOT
ATOM      1  C   UNL     1       2.515   7.369  18.219  0.00  0.00    +0.000 C 
ATOM      2  O   UNL     1       2.683   8.002  17.176  0.00  0.00    +0.000 OA
ATOM      3  N   UNL     1       2.769   5.980  18.311  0.00  0.00    +0.000 N 
ENDROOT
BRANCH   3   4
ATOM      4  C   UNL     1       2.124   5.144  19.349  0.00  0.00    +0.000 C 
ATOM      5  C   UNL     1       1.407   3.927  18.731  0.00  0.00    +0.000 C 
ATOM      6  C   UNL     1       1.019   3.032  19.892  0.00  0.00    +0.000 C 
ATOM      7  S   UNL     1       2.418   3.091  20.993  0.00  0.00    +0.000 S 
ATOM      8  O   UNL     1       3.359   2.072  20.577  0.00  0.00    +0.000 OA
ATOM      9  O   UNL     1       1.932   3.196  22.351  0.00  0.00    +0.000 OA
ATOM     10  C   UNL     1       3.054   4.672  20.469  0.00  0.00    +0.000 C 
ENDBRANCH   3   4
BRANCH   1  11
ATOM     11  C   UNL     1       1.976   8.051  19.495  0.00  0.00    +0.000 C 
BRANCH  11  12
ATOM     12  O   UNL     1       1.420   9.352  19.349  0.00  0.00    +0.000 OA
BRANCH  12  16
ATOM     13  C   UNL     1      -0.986  10.671  22.516  0.00  0.00    +0.000 A 
ATOM     14  C   UNL     1      -0.931  11.353  21.301  0.00  0.00    +0.000 A 
ATOM     15  C   UNL     1      -0.128  10.886  20.252  0.00  0.00    +0.000 A 
ATOM     16  C   UNL     1       0.654   9.743  20.426  0.00  0.00    +0.000 A 
ATOM     17  C   UNL     1       0.595   9.060  21.640  0.00  0.00    +0.000 A 
ATOM     18  C   UNL     1      -0.212   9.525  22.686  0.00  0.00    +0.000 A 
BRANCH  13  20
ATOM     19  C   UNL     1      -2.172  12.578  23.266  0.00  0.00    +0.000 C 
ATOM     20  O   UNL     1      -1.804  11.216  23.467  0.00  0.00    +0.000 OA
ENDBRANCH  13  20
ENDBRANCH  12  16
ENDBRANCH  11  12
ENDBRANCH   1  11
BRANCH   3  21
ATOM     21  C   UNL     1       3.251   5.301  17.086  0.00  0.00    +0.000 C 
BRANCH  21  22
ATOM     22  C   UNL     1       4.748   5.095  17.002  0.00  0.00    +0.000 A 
ATOM     23  C   UNL     1       5.325   4.410  15.924  0.00  0.00    +0.000 A 
ATOM     24  C   UNL     1       6.701   4.165  15.879  0.00  0.00    +0.000 A 
ATOM     25  C   UNL     1       7.524   4.597  16.915  0.00  0.00    +0.000 A 
ATOM     26  C   UNL     1       6.963   5.263  18.000  0.00  0.00    +0.000 A 
ATOM     27 BR   UNL     1       8.073   5.826  19.425  0.00  0.00    +0.000 Br
ATOM     28  C   UNL     1       5.588   5.509  18.052  0.00  0.00    +0.000 A 
ENDBRANCH  21  22
ENDBRANCH   3  21
TORSDOF 7
ENDMDL
MODEL 7
REMARK VINA RESULT:      -7.5      1.275      1.722
REMARK  Name = 
REMARK  8 active torsions:
REMARK  status: ('A' for Active; 'I' for Inactive)
REMARK    1  A    between atoms: C_1  and  O_2
REMARK    2  A    between atoms: O_2  and  C_3
REMARK    3  A    between atoms: C_6  and  O_7
REMARK    4  A    between atoms: O_7  and  C_8
REMARK    5  A    between atoms: C_8  and  C_9
REMARK    6  A    between atoms: N_11  and  C_12
REMARK    7  A    between atoms: N_11  and  C_20
REMARK    8  A    between atoms: C_12  and  C_13
REMARK                            x       y       z     vdW  Elec       q    Type
REMARK                         _______ _______ _______ _____ _____    ______ ____
ROOT
ATOM      1  C   UNL     1       2.499   7.758  18.101  0.00  0.00    +0.000 C 
ATOM      2  O   UNL     1       2.908   8.554  17.256  0.00  0.00    +0.000 OA
ATOM      3  N   UNL     1       2.993   6.434  18.196  0.00  0.00    +0.000 N 
ENDROOT
BRANCH   3   4
ATOM      4  C   UNL     1       2.200   5.359  18.834  0.00  0.00    +0.000 C 
ATOM      5  C   UNL     1       1.745   4.304  17.805  0.00  0.00    +0.000 C 
ATOM      6  C   UNL     1       1.179   3.149  18.608  0.00  0.00    +0.000 C 
ATOM      7  S   UNL     1       2.281   2.983  19.997  0.00  0.00    +0.000 S 
ATOM      8  O   UNL     1       3.372   2.118  19.603  0.00  0.00    +0.000 OA
ATOM      9  O   UNL     1       1.491   2.751  21.186  0.00  0.00    +0.000 OA
ATOM     10  C   UNL     1       2.886   4.660  20.010  0.00  0.00    +0.000 C 
ENDBRANCH   3   4
BRANCH   1  11
ATOM     11  C   UNL     1       1.386   8.145  19.098  0.00  0.00    +0.000 C 
BRANCH  11  12
ATOM     12  O   UNL     1       1.745   8.226  20.471  0.00  0.00    +0.000 OA
BRANCH  12  16
ATOM     13  C   UNL     1      -0.502  11.144  22.470  0.00  0.00    +0.000 A 
ATOM     14  C   UNL     1       0.053  11.377  21.211  0.00  0.00    +0.000 A 
ATOM     15  C   UNL     1       0.790  10.381  20.557  0.00  0.00    +0.000 A 
ATOM     16  C   UNL     1       1.006   9.150  21.177  0.00  0.00    +0.000 A 
ATOM     17  C   UNL     1       0.447   8.917  22.434  0.00  0.00    +0.000 A 
ATOM     18  C   UNL     1      -0.294   9.911  23.085  0.00  0.00    +0.000 A 
BRANCH  13  20
ATOM     19  C   UNL     1      -2.614  12.009  23.100  0.00  0.00    +0.000 C 
ATOM     20  O   UNL     1      -1.203  12.185  23.012  0.00  0.00    +0.000 OA
ENDBRANCH  13  20
ENDBRANCH  12  16
ENDBRANCH  11  12
ENDBRANCH   1  11
BRANCH   3  21
ATOM     21  C   UNL     1       4.035   6.033  17.224  0.00  0.00    +0.000 C 
BRANCH  21  22
ATOM     22  C   UNL     1       5.464   6.204  17.693  0.00  0.00    +0.000 A 
ATOM     23  C   UNL     1       6.119   5.186  18.400  0.00  0.00    +0.000 A 
ATOM     24  C   UNL     1       7.417   5.368  18.888  0.00  0.00    +0.000 A 
ATOM     25  C   UNL     1       8.080   6.575  18.683  0.00  0.00    +0.000 A 
ATOM     26  C   UNL     1       7.435   7.601  17.999  0.00  0.00    +0.000 A 
ATOM     27 BR   UNL     1       8.320   9.253  17.743  0.00  0.00    +0.000 Br
ATOM     28  C   UNL     1       6.137   7.425  17.511  0.00  0.00    +0.000 A 
ENDBRANCH  21  22
ENDBRANCH   3  21
TORSDOF 7
ENDMDL
MODEL 8
REMARK VINA RESULT:      -7.3      1.146      1.533
REMARK  Name = 
REMARK  8 active torsions:
REMARK  status: ('A' for Active; 'I' for Inactive)
REMARK    1  A    between atoms: C_1  and  O_2
REMARK    2  A    between atoms: O_2  and  C_3
REMARK    3  A    between atoms: C_6  and  O_7
REMARK    4  A    between atoms: O_7  and  C_8
REMARK    5  A    between atoms: C_8  and  C_9
REMARK    6  A    between atoms: N_11  and  C_12
REMARK    7  A    between atoms: N_11  and  C_20
REMARK    8  A    between atoms: C_12  and  C_13
REMARK                            x       y       z     vdW  Elec       q    Type
REMARK                         _______ _______ _______ _____ _____    ______ ____
ROOT
ATOM      1  C   UNL     1       2.125   7.604  19.462  0.00  0.00    +0.000 C 
ATOM      2  O   UNL     1       2.236   8.531  18.660  0.00  0.00    +0.000 OA
ATOM      3  N   UNL     1       2.404   6.261  19.111  0.00  0.00    +0.000 N 
ENDROOT
BRANCH   3   4
ATOM      4  C   UNL     1       1.820   5.128  19.865  0.00  0.00    +0.000 C 
ATOM      5  C   UNL     1       1.453   3.956  18.932  0.00  0.00    +0.000 C 
ATOM      6  C   UNL     1       1.115   2.787  19.837  0.00  0.00    +0.000 C 
ATOM      7  S   UNL     1       2.322   2.867  21.145  0.00  0.00    +0.000 S 
ATOM      8  O   UNL     1       3.497   2.140  20.715  0.00  0.00    +0.000 OA
ATOM      9  O   UNL     1       1.657   2.603  22.402  0.00  0.00    +0.000 OA
ATOM     10  C   UNL     1       2.679   4.609  21.021  0.00  0.00    +0.000 C 
ENDBRANCH   3   4
BRANCH   1  11
ATOM     11  C   UNL     1       1.635   7.844  20.906  0.00  0.00    +0.000 C 
BRANCH  11  12
ATOM     12  O   UNL     1       0.230   7.892  21.114  0.00  0.00    +0.000 OA
BRANCH  12  16
ATOM     13  C   UNL     1      -1.172  11.721  22.079  0.00  0.00    +0.000 A 
ATOM     14  C   UNL     1      -0.864  11.359  20.767  0.00  0.00    +0.000 A 
ATOM     15  C   UNL     1      -0.409  10.068  20.467  0.00  0.00    +0.000 A 
ATOM     16  C   UNL     1      -0.226   9.136  21.490  0.00  0.00    +0.000 A 
ATOM     17  C   UNL     1      -0.538   9.498  22.800  0.00  0.00    +0.000 A 
ATOM     18  C   UNL     1      -0.998  10.788  23.098  0.00  0.00    +0.000 A 
BRANCH  13  20
ATOM     19  C   UNL     1      -0.625  13.949  22.666  0.00  0.00    +0.000 C 
ATOM     20  O   UNL     1      -1.609  13.005  22.254  0.00  0.00    +0.000 OA
ENDBRANCH  13  20
ENDBRANCH  12  16
ENDBRANCH  11  12
ENDBRANCH   1  11
BRANCH   3  21
ATOM     21  C   UNL     1       2.840   6.006  17.718  0.00  0.00    +0.000 C 
BRANCH  21  22
ATOM     22  C   UNL     1       4.331   6.096  17.476  0.00  0.00    +0.000 A 
ATOM     23  C   UNL     1       4.841   6.352  16.196  0.00  0.00    +0.000 A 
ATOM     24  C   UNL     1       6.219   6.373  15.960  0.00  0.00    +0.000 A 
ATOM     25  C   UNL     1       7.112   6.132  17.001  0.00  0.00    +0.000 A 
ATOM     26  C   UNL     1       6.619   5.859  18.274  0.00  0.00    +0.000 A 
ATOM     27 BR   UNL     1       7.827   5.502  19.685  0.00  0.00    +0.000 Br
ATOM     28  C   UNL     1       5.242   5.835  18.514  0.00  0.00    +0.000 A 
ENDBRANCH  21  22
ENDBRANCH   3  21
TORSDOF 7
ENDMDL
MODEL 9
REMARK VINA RESULT:      -7.3      3.637      8.861
REMARK  Name = 
REMARK  8 active torsions:
REMARK  status: ('A' for Active; 'I' for Inactive)
REMARK    1  A    between atoms: C_1  and  O_2
REMARK    2  A    between atoms: O_2  and  C_3
REMARK    3  A    between atoms: C_6  and  O_7
REMARK    4  A    between atoms: O_7  and  C_8
REMARK    5  A    between atoms: C_8  and  C_9
REMARK    6  A    between atoms: N_11  and  C_12
REMARK    7  A    between atoms: N_11  and  C_20
REMARK    8  A    between atoms: C_12  and  C_13
REMARK                            x       y       z     vdW  Elec       q    Type
REMARK                         _______ _______ _______ _____ _____    ______ ____
ROOT
ATOM      1  C   UNL     1       4.824   5.931  17.604  0.00  0.00    +0.000 C 
ATOM      2  O   UNL     1       5.605   6.765  18.060  0.00  0.00    +0.000 OA
ATOM      3  N   UNL     1       3.597   5.616  18.237  0.00  0.00    +0.000 N 
ENDROOT
BRANCH   3   4
ATOM      4  C   UNL     1       2.916   4.322  18.000  0.00  0.00    +0.000 C 
ATOM      5  C   UNL     1       3.778   3.134  18.469  0.00  0.00    +0.000 C 
ATOM      6  C   UNL     1       2.880   1.913  18.413  0.00  0.00    +0.000 C 
ATOM      7  S   UNL     1       1.305   2.485  19.016  0.00  0.00    +0.000 S 
ATOM      8  O   UNL     1       1.307   2.364  20.458  0.00  0.00    +0.000 OA
ATOM      9  O   UNL     1       0.263   1.921  18.187  0.00  0.00    +0.000 OA
ATOM     10  C   UNL     1       1.516   4.207  18.609  0.00  0.00    +0.000 C 
ENDBRANCH   3   4
BRANCH   1  11
ATOM     11  C   UNL     1       5.152   5.140  16.318  0.00  0.00    +0.000 C 
BRANCH  11  12
ATOM     12  O   UNL     1       6.083   5.727  15.418  0.00  0.00    +0.000 OA
BRANCH  12  16
ATOM     13  C   UNL     1       6.646   3.309  12.042  0.00  0.00    +0.000 A 
ATOM     14  C   UNL     1       5.551   3.143  12.891  0.00  0.00    +0.000 A 
ATOM     15  C   UNL     1       5.378   3.972  14.008  0.00  0.00    +0.000 A 
ATOM     16  C   UNL     1       6.322   4.957  14.300  0.00  0.00    +0.000 A 
ATOM     17  C   UNL     1       7.413   5.124  13.448  0.00  0.00    +0.000 A 
ATOM     18  C   UNL     1       7.583   4.298  12.330  0.00  0.00    +0.000 A 
BRANCH  13  20
ATOM     19  C   UNL     1       6.285   1.111  11.240  0.00  0.00    +0.000 C 
ATOM     20  O   UNL     1       6.712   2.445  10.984  0.00  0.00    +0.000 OA
ENDBRANCH  13  20
ENDBRANCH  12  16
ENDBRANCH  11  12
ENDBRANCH   1  11
BRANCH   3  21
ATOM     21  C   UNL     1       3.283   6.337  19.491  0.00  0.00    +0.000 C 
BRANCH  21  22
ATOM     22  C   UNL     1       2.358   7.526  19.344  0.00  0.00    +0.000 A 
ATOM     23  C   UNL     1       2.212   8.181  18.114  0.00  0.00    +0.000 A 
ATOM     24  C   UNL     1       1.406   9.317  17.994  0.00  0.00    +0.000 A 
ATOM     25  C   UNL     1       0.736   9.822  19.105  0.00  0.00    +0.000 A 
ATOM     26  C   UNL     1       0.885   9.192  20.336  0.00  0.00    +0.000 A 
ATOM     27 BR   UNL     1      -0.000   9.891  21.855  0.00  0.00    +0.000 Br
ATOM     28  C   UNL     1       1.691   8.057  20.463  0.00  0.00    +0.000 A 
ENDBRANCH  21  22
ENDBRANCH   3  21
TORSDOF 7
ENDMDL
