MODEL 1
REMARK VINA RESULT:      -8.0      0.000      0.000
REMARK  Name = 
REMARK  6 active torsions:
REMARK  status: ('A' for Active; 'I' for Inactive)
REMARK    1  A    between atoms: C_1  and  C_2
REMARK    2  A    between atoms: C_2  and  C_3
REMARK    3  A    between atoms: C_6  and  C_7
REMARK    4  A    between atoms: N_9  and  C_10
REMARK    5  A    between atoms: N_12  and  C_13
REMARK    6  A    between atoms: N_26  and  C_27
REMARK                            x       y       z     vdW  Elec       q    Type
REMARK                         _______ _______ _______ _____ _____    ______ ____
ROOT
ATOM      1  C   UNL     1       2.372   8.676  17.968  0.00  0.00    +0.000 C 
ATOM      2  O   UNL     1       2.640   9.512  17.115  0.00  0.00    +0.000 OA
ATOM      3  N   UNL     1       1.485   8.896  19.003  0.00  0.00    +0.000 N 
ATOM      4  H   UNL     1       1.234   8.099  19.576  0.00  0.00    +0.000 HD
ENDROOT
BRANCH   1   8
ATOM      5  C   UNL     1       2.402   3.801  18.700  0.00  0.00    +0.000 A 
ATOM      6  C   UNL     1       2.883   5.026  18.300  0.00  0.00    +0.000 A 
ATOM      7  C   UNL     1       2.231   6.250  18.434  0.00  0.00    +0.000 A 
ATOM      8  C   UNL     1       2.995   7.319  17.898  0.00  0.00    +0.000 A 
ATOM      9  C   UNL     1       4.276   7.129  17.277  0.00  0.00    +0.000 A 
ATOM     10  C   UNL     1       4.913   5.869  17.161  0.00  0.00    +0.000 A 
ATOM     11  C   UNL     1       4.175   4.802  17.702  0.00  0.00    +0.000 A 
ATOM     12  N   UNL     1       4.470   3.498  17.760  0.00  0.00    +0.000 NA
ATOM     13  N   UNL     1       3.410   2.923  18.365  0.00  0.00    +0.000 N 
ATOM     14  C   UNL     1       3.434   1.500  18.599  0.00  0.00    +0.000 C 
BRANCH   5  16
ATOM     15  C   UNL     1       1.202   3.383  20.852  0.00  0.00    +0.000 C 
ATOM     16  C   UNL     1       1.117   3.384  19.333  0.00  0.00    +0.000 C 
ENDBRANCH   5  16
ENDBRANCH   1   8
BRANCH   3  17
ATOM     17  C   UNL     1       0.755  10.164  19.250  0.00  0.00    +0.000 C 
ATOM     18  C   UNL     1      -0.755  10.114  19.561  0.00  0.00    +0.000 C 
ATOM     19  N   UNL     1      -0.514  11.233  20.430  0.00  0.00    +0.000 N 
ATOM     20  C   UNL     1       0.867  10.863  20.617  0.00  0.00    +0.000 C 
BRANCH  19  21
ATOM     21  C   UNL     1      -1.334  11.989  21.294  0.00  0.00    +0.000 A 
ATOM     22  C   UNL     1      -1.919  13.156  20.770  0.00  0.00    +0.000 A 
ATOM     23  C   UNL     1      -2.773  13.910  21.557  0.00  0.00    +0.000 A 
ATOM     24 CL   UNL     1      -3.537  15.312  20.932  0.00  0.00    +0.000 Cl
ATOM     25  N   UNL     1      -3.089  13.615  22.829  0.00  0.00    +0.000 NA
ATOM     26  C   UNL     1      -2.521  12.492  23.326  0.00  0.00    +0.000 A 
ATOM     27  C   UNL     1      -1.664  11.649  22.615  0.00  0.00    +0.000 A 
ATOM     28 CL   UNL     1      -1.065  10.260  23.441  0.00  0.00    +0.000 Cl
ENDBRANCH  19  21
ENDBRANCH   3  17
TORSDOF 4
ENDMDL
MODEL 2
REMARK VINA RESULT:      -7.8      1.666      1.919
REMARK  Name = 
REMARK  6 active torsions:
REMARK  status: ('A' for Active; 'I' for Inactive)
REMARK    1  A    between atoms: C_1  and  C_2
REMARK    2  A    between atoms: C_2  and  C_3
REMARK    3  A    between atoms: C_6  and  C_7
REMARK    4  A    between atoms: N_9  and  C_10
REMARK    5  A    between atoms: N_12  and  C_13
REMARK    6  A    between atoms: N_26  and  C_27
REMARK                            x       y       z     vdW  Elec       q    Type
REMARK                         _______ _______ _______ _____ _____    ______ ____
ROOT
ATOM      1  C   UNL     1       2.224   8.681  18.102  0.00  0.00    +0.000 C 
ATOM      2  O   UNL     1       2.372   9.522  17.226  0.00  0.00    +0.000 OA
ATOM      3  N   UNL     1       1.450   8.876  19.228  0.00  0.00    +0.000 N 
ATOM      4  H   UNL     1       1.287   8.073  19.824  0.00  0.00    +0.000 HD
ENDROOT
BRANCH   1   8
ATOM      5  C   UNL     1       2.388   3.783  18.643  0.00  0.00    +0.000 A 
ATOM      6  C   UNL     1       2.829   5.034  18.278  0.00  0.00    +0.000 A 
ATOM      7  C   UNL     1       2.153   6.236  18.476  0.00  0.00    +0.000 A 
ATOM      8  C   UNL     1       2.877   7.343  17.963  0.00  0.00    +0.000 A 
ATOM      9  C   UNL     1       4.145   7.208  17.302  0.00  0.00    +0.000 A 
ATOM     10  C   UNL     1       4.807   5.970  17.120  0.00  0.00    +0.000 A 
ATOM     11  C   UNL     1       4.109   4.865  17.638  0.00  0.00    +0.000 A 
ATOM     12  N   UNL     1       4.436   3.567  17.637  0.00  0.00    +0.000 NA
ATOM     13  N   UNL     1       3.407   2.944  18.247  0.00  0.00    +0.000 N 
ATOM     14  C   UNL     1       3.471   1.514  18.425  0.00  0.00    +0.000 C 
BRANCH   5  16
ATOM     15  C   UNL     1       1.226   3.343  20.810  0.00  0.00    +0.000 C 
ATOM     16  C   UNL     1       1.130   3.312  19.293  0.00  0.00    +0.000 C 
ENDBRANCH   5  16
ENDBRANCH   1   8
BRANCH   3  17
ATOM     17  C   UNL     1       0.714  10.123  19.554  0.00  0.00    +0.000 C 
ATOM     18  C   UNL     1      -0.230  10.736  18.499  0.00  0.00    +0.000 C 
ATOM     19  N   UNL     1      -1.056  11.128  19.607  0.00  0.00    +0.000 N 
ATOM     20  C   UNL     1      -0.546  10.064  20.436  0.00  0.00    +0.000 C 
BRANCH  19  21
ATOM     21  C   UNL     1      -2.299  11.787  19.709  0.00  0.00    +0.000 A 
ATOM     22  C   UNL     1      -2.390  12.855  20.620  0.00  0.00    +0.000 A 
ATOM     23  C   UNL     1      -3.571  13.571  20.726  0.00  0.00    +0.000 A 
ATOM     24 CL   UNL     1      -3.697  14.906  21.794  0.00  0.00    +0.000 Cl
ATOM     25  N   UNL     1      -4.679  13.310  20.014  0.00  0.00    +0.000 NA
ATOM     26  C   UNL     1      -4.586  12.281  19.142  0.00  0.00    +0.000 A 
ATOM     27  C   UNL     1      -3.440  11.508  18.940  0.00  0.00    +0.000 A 
ATOM     28 CL   UNL     1      -3.538  10.252  17.764  0.00  0.00    +0.000 Cl
ENDBRANCH  19  21
ENDBRANCH   3  17
TORSDOF 4
ENDMDL
MODEL 3
REMARK VINA RESULT:      -7.8      1.753      1.932
REMARK  Name = 
REMARK  6 active torsions:
REMARK  status: ('A' for Active; 'I' for Inactive)
REMARK    1  A    between atoms: C_1  and  C_2
REMARK    2  A    between atoms: C_2  and  C_3
REMARK    3  A    between atoms: C_6  and  C_7
REMARK    4  A    between atoms: N_9  and  C_10
REMARK    5  A    between atoms: N_12  and  C_13
REMARK    6  A    between atoms: N_26  and  C_27
REMARK                            x       y       z     vdW  Elec       q    Type
REMARK                         _______ _______ _______ _____ _____    ______ ____
ROOT
ATOM      1  C   UNL     1       2.222   8.548  18.091  0.00  0.00    +0.000 C 
ATOM      2  O   UNL     1       2.256   9.337  17.156  0.00  0.00    +0.000 OA
ATOM      3  N   UNL     1       1.556   8.793  19.275  0.00  0.00    +0.000 N 
ATOM      4  H   UNL     1       1.478   8.025  19.931  0.00  0.00    +0.000 HD
ENDROOT
BRANCH   1   8
ATOM      5  C   UNL     1       2.435   3.649  18.595  0.00  0.00    +0.000 A 
ATOM      6  C   UNL     1       2.872   4.909  18.259  0.00  0.00    +0.000 A 
ATOM      7  C   UNL     1       2.171   6.099  18.441  0.00  0.00    +0.000 A 
ATOM      8  C   UNL     1       2.899   7.221  17.966  0.00  0.00    +0.000 A 
ATOM      9  C   UNL     1       4.194   7.111  17.355  0.00  0.00    +0.000 A 
ATOM     10  C   UNL     1       4.881   5.884  17.189  0.00  0.00    +0.000 A 
ATOM     11  C   UNL     1       4.179   4.764  17.669  0.00  0.00    +0.000 A 
ATOM     12  N   UNL     1       4.525   3.471  17.671  0.00  0.00    +0.000 NA
ATOM     13  N   UNL     1       3.481   2.828  18.233  0.00  0.00    +0.000 N 
ATOM     14  C   UNL     1       3.559   1.397  18.402  0.00  0.00    +0.000 C 
BRANCH   5  16
ATOM     15  C   UNL     1       1.144   3.292  20.705  0.00  0.00    +0.000 C 
ATOM     16  C   UNL     1       1.160   3.153  19.191  0.00  0.00    +0.000 C 
ENDBRANCH   5  16
ENDBRANCH   1   8
BRANCH   3  17
ATOM     17  C   UNL     1       0.817  10.039  19.599  0.00  0.00    +0.000 C 
ATOM     18  C   UNL     1      -0.079  10.683  18.521  0.00  0.00    +0.000 C 
ATOM     19  N   UNL     1      -0.946  11.057  19.604  0.00  0.00    +0.000 N 
ATOM     20  C   UNL     1      -0.477   9.972  20.429  0.00  0.00    +0.000 C 
BRANCH  19  21
ATOM     21  C   UNL     1      -2.187  11.725  19.671  0.00  0.00    +0.000 A 
ATOM     22  C   UNL     1      -3.130  11.435  18.668  0.00  0.00    +0.000 A 
ATOM     23  C   UNL     1      -4.383  12.023  18.711  0.00  0.00    +0.000 A 
ATOM     24 CL   UNL     1      -5.568  11.653  17.529  0.00  0.00    +0.000 Cl
ATOM     25  N   UNL     1      -4.780  12.888  19.658  0.00  0.00    +0.000 NA
ATOM     26  C   UNL     1      -3.868  13.163  20.618  0.00  0.00    +0.000 A 
ATOM     27  C   UNL     1      -2.586  12.612  20.682  0.00  0.00    +0.000 A 
ATOM     28 CL   UNL     1      -1.590  13.093  22.004  0.00  0.00    +0.000 Cl
ENDBRANCH  19  21
ENDBRANCH   3  17
TORSDOF 4
ENDMDL
MODEL 4
REMARK VINA RESULT:      -7.7      3.913      9.992
REMARK  Name = 
REMARK  6 active torsions:
REMARK  status: ('A' for Active; 'I' for Inactive)
REMARK    1  A    between atoms: C_1  and  C_2
REMARK    2  A    between atoms: C_2  and  C_3
REMARK    3  A    between atoms: C_6  and  C_7
REMARK    4  A    between atoms: N_9  and  C_10
REMARK    5  A    between atoms: N_12  and  C_13
REMARK    6  A    between atoms: N_26  and  C_27
REMARK                            x       y       z     vdW  Elec       q    Type
REMARK                         _______ _______ _______ _____ _____    ______ ____
ROOT
ATOM      1  C   UNL     1       1.109   9.128  19.017  0.00  0.00    +0.000 C 
ATOM      2  O   UNL     1       0.952   9.648  17.921  0.00  0.00    +0.000 OA
ATOM      3  N   UNL     1       1.830   7.967  19.217  0.00  0.00    +0.000 N 
ATOM      4  H   UNL     1       2.012   7.693  20.176  0.00  0.00    +0.000 HD
ENDROOT
BRANCH   1   8
ATOM      5  C   UNL     1      -0.452  13.014  21.618  0.00  0.00    +0.000 A 
ATOM      6  C   UNL     1      -0.172  11.692  21.357  0.00  0.00    +0.000 A 
ATOM      7  C   UNL     1       0.396  11.187  20.190  0.00  0.00    +0.000 A 
ATOM      8  C   UNL     1       0.532   9.775  20.235  0.00  0.00    +0.000 A 
ATOM      9  C   UNL     1       0.106   8.984  21.356  0.00  0.00    +0.000 A 
ATOM     10  C   UNL     1      -0.465   9.532  22.531  0.00  0.00    +0.000 A 
ATOM     11  C   UNL     1      -0.592  10.932  22.507  0.00  0.00    +0.000 A 
ATOM     12  N   UNL     1      -1.085  11.764  23.432  0.00  0.00    +0.000 NA
ATOM     13  N   UNL     1      -0.984  12.995  22.889  0.00  0.00    +0.000 N 
ATOM     14  C   UNL     1      -1.419  14.131  23.664  0.00  0.00    +0.000 C 
BRANCH   5  16
ATOM     15  C   UNL     1       1.160  14.703  20.731  0.00  0.00    +0.000 C 
ATOM     16  C   UNL     1      -0.291  14.255  20.805  0.00  0.00    +0.000 C 
ENDBRANCH   5  16
ENDBRANCH   1   8
BRANCH   3  17
ATOM     17  C   UNL     1       2.488   7.174  18.149  0.00  0.00    +0.000 C 
ATOM     18  C   UNL     1       3.837   7.658  17.578  0.00  0.00    +0.000 C 
ATOM     19  N   UNL     1       4.171   6.266  17.452  0.00  0.00    +0.000 N 
ATOM     20  C   UNL     1       3.263   5.894  18.508  0.00  0.00    +0.000 C 
BRANCH  19  21
ATOM     21  C   UNL     1       5.323   5.577  17.015  0.00  0.00    +0.000 A 
ATOM     22  C   UNL     1       5.395   5.244  15.650  0.00  0.00    +0.000 A 
ATOM     23  C   UNL     1       6.524   4.612  15.156  0.00  0.00    +0.000 A 
ATOM     24 CL   UNL     1       6.661   4.235  13.489  0.00  0.00    +0.000 Cl
ATOM     25  N   UNL     1       7.586   4.267  15.902  0.00  0.00    +0.000 NA
ATOM     26  C   UNL     1       7.508   4.589  17.213  0.00  0.00    +0.000 A 
ATOM     27  C   UNL     1       6.429   5.243  17.812  0.00  0.00    +0.000 A 
ATOM     28 CL   UNL     1       6.546   5.569  19.500  0.00  0.00    +0.000 Cl
ENDBRANCH  19  21
ENDBRANCH   3  17
TORSDOF 4
ENDMDL
MODEL 5
REMARK VINA RESULT:      -7.6      1.585      1.835
REMARK  Name = 
REMARK  6 active torsions:
REMARK  status: ('A' for Active; 'I' for Inactive)
REMARK    1  A    between atoms: C_1  and  C_2
REMARK    2  A    between atoms: C_2  and  C_3
REMARK    3  A    between atoms: C_6  and  C_7
REMARK    4  A    between atoms: N_9  and  C_10
REMARK    5  A    between atoms: N_12  and  C_13
REMARK    6  A    between atoms: N_26  and  C_27
REMARK                            x       y       z     vdW  Elec       q    Type
REMARK                         _______ _______ _______ _____ _____    ______ ____
ROOT
ATOM      1  C   UNL     1       2.045   8.822  18.355  0.00  0.00    +0.000 C 
ATOM      2  O   UNL     1       2.032   9.544  17.366  0.00  0.00    +0.000 OA
ATOM      3  N   UNL     1       1.344   9.096  19.512  0.00  0.00    +0.000 N 
ATOM      4  H   UNL     1       1.316   8.372  20.220  0.00  0.00    +0.000 HD
ENDROOT
BRANCH   1   8
ATOM      5  C   UNL     1       3.143   4.300  19.985  0.00  0.00    +0.000 A 
ATOM      6  C   UNL     1       3.245   5.424  19.198  0.00  0.00    +0.000 A 
ATOM      7  C   UNL     1       2.481   6.584  19.315  0.00  0.00    +0.000 A 
ATOM      8  C   UNL     1       2.826   7.547  18.332  0.00  0.00    +0.000 A 
ATOM      9  C   UNL     1       3.831   7.318  17.332  0.00  0.00    +0.000 A 
ATOM     10  C   UNL     1       4.592   6.127  17.243  0.00  0.00    +0.000 A 
ATOM     11  C   UNL     1       4.273   5.169  18.221  0.00  0.00    +0.000 A 
ATOM     12  N   UNL     1       4.786   3.949  18.426  0.00  0.00    +0.000 NA
ATOM     13  N   UNL     1       4.108   3.455  19.482  0.00  0.00    +0.000 N 
ATOM     14  C   UNL     1       4.450   2.142  19.971  0.00  0.00    +0.000 C 
BRANCH   5  16
ATOM     15  C   UNL     1       0.958   3.282  20.642  0.00  0.00    +0.000 C 
ATOM     16  C   UNL     1       2.240   3.947  21.119  0.00  0.00    +0.000 C 
ENDBRANCH   5  16
ENDBRANCH   1   8
BRANCH   3  17
ATOM     17  C   UNL     1       0.505  10.299  19.739  0.00  0.00    +0.000 C 
ATOM     18  C   UNL     1      -0.709  10.200  20.686  0.00  0.00    +0.000 C 
ATOM     19  N   UNL     1      -0.405  11.554  21.059  0.00  0.00    +0.000 N 
ATOM     20  C   UNL     1       0.983  11.401  20.701  0.00  0.00    +0.000 C 
BRANCH  19  21
ATOM     21  C   UNL     1      -0.968  12.459  21.983  0.00  0.00    +0.000 A 
ATOM     22  C   UNL     1      -2.135  12.051  22.656  0.00  0.00    +0.000 A 
ATOM     23  C   UNL     1      -2.702  12.877  23.611  0.00  0.00    +0.000 A 
ATOM     24 CL   UNL     1      -4.097  12.388  24.479  0.00  0.00    +0.000 Cl
ATOM     25  N   UNL     1      -2.221  14.085  23.950  0.00  0.00    +0.000 NA
ATOM     26  C   UNL     1      -1.100  14.471  23.298  0.00  0.00    +0.000 A 
ATOM     27  C   UNL     1      -0.435  13.709  22.334  0.00  0.00    +0.000 A 
ATOM     28 CL   UNL     1       0.987  14.391  21.640  0.00  0.00    +0.000 Cl
ENDBRANCH  19  21
ENDBRANCH   3  17
TORSDOF 4
ENDMDL
MODEL 6
REMARK VINA RESULT:      -7.6      1.648      1.929
REMARK  Name = 
REMARK  6 active torsions:
REMARK  status: ('A' for Active; 'I' for Inactive)
REMARK    1  A    between atoms: C_1  and  C_2
REMARK    2  A    between atoms: C_2  and  C_3
REMARK    3  A    between atoms: C_6  and  C_7
REMARK    4  A    between atoms: N_9  and  C_10
REMARK    5  A    between atoms: N_12  and  C_13
REMARK    6  A    between atoms: N_26  and  C_27
REMARK                            x       y       z     vdW  Elec       q    Type
REMARK                         _______ _______ _______ _____ _____    ______ ____
ROOT
ATOM      1  C   UNL     1       1.831   8.204  19.647  0.00  0.00    +0.000 C 
ATOM      2  O   UNL     1       1.421   9.081  18.897  0.00  0.00    +0.000 OA
ATOM      3  N   UNL     1       1.699   8.248  21.020  0.00  0.00    +0.000 N 
ATOM      4  H   UNL     1       1.952   7.414  21.537  0.00  0.00    +0.000 HD
ENDROOT
BRANCH   1   8
ATOM      5  C   UNL     1       2.556   3.339  19.315  0.00  0.00    +0.000 A 
ATOM      6  C   UNL     1       2.735   4.671  19.019  0.00  0.00    +0.000 A 
ATOM      7  C   UNL     1       2.090   5.743  19.631  0.00  0.00    +0.000 A 
ATOM      8  C   UNL     1       2.486   6.987  19.076  0.00  0.00    +0.000 A 
ATOM      9  C   UNL     1       3.426   7.096  17.995  0.00  0.00    +0.000 A 
ATOM     10  C   UNL     1       4.067   5.984  17.398  0.00  0.00    +0.000 A 
ATOM     11  C   UNL     1       3.696   4.745  17.948  0.00  0.00    +0.000 A 
ATOM     12  N   UNL     1       4.098   3.509  17.627  0.00  0.00    +0.000 NA
ATOM     13  N   UNL     1       3.418   2.691  18.456  0.00  0.00    +0.000 N 
ATOM     14  C   UNL     1       3.652   1.270  18.372  0.00  0.00    +0.000 C 
BRANCH   5  16
ATOM     15  C   UNL     1       2.219   2.684  21.702  0.00  0.00    +0.000 C 
ATOM     16  C   UNL     1       1.668   2.635  20.286  0.00  0.00    +0.000 C 
ENDBRANCH   5  16
ENDBRANCH   1   8
BRANCH   3  17
ATOM     17  C   UNL     1       1.076   9.357  21.785  0.00  0.00    +0.000 C 
ATOM     18  C   UNL     1       0.999  10.759  21.146  0.00  0.00    +0.000 C 
ATOM     19  N   UNL     1      -0.256  10.895  21.833  0.00  0.00    +0.000 N 
ATOM     20  C   UNL     1      -0.456   9.467  21.869  0.00  0.00    +0.000 C 
BRANCH  19  21
ATOM     21  C   UNL     1      -1.235  11.910  21.879  0.00  0.00    +0.000 A 
ATOM     22  C   UNL     1      -1.377  12.615  23.089  0.00  0.00    +0.000 A 
ATOM     23  C   UNL     1      -2.287  13.654  23.176  0.00  0.00    +0.000 A 
ATOM     24 CL   UNL     1      -2.449  14.562  24.622  0.00  0.00    +0.000 Cl
ATOM     25  N   UNL     1      -3.084  14.049  22.169  0.00  0.00    +0.000 NA
ATOM     26  C   UNL     1      -2.944  13.366  21.011  0.00  0.00    +0.000 A 
ATOM     27  C   UNL     1      -2.044  12.316  20.807  0.00  0.00    +0.000 A 
ATOM     28 CL   UNL     1      -2.023  11.594  19.242  0.00  0.00    +0.000 Cl
ENDBRANCH  19  21
ENDBRANCH   3  17
TORSDOF 4
ENDMDL
MODEL 7
REMARK VINA RESULT:      -7.5      2.107      2.554
REMARK  Name = 
REMARK  6 active torsions:
REMARK  status: ('A' for Active; 'I' for Inactive)
REMARK    1  A    between atoms: C_1  and  C_2
REMARK    2  A    between atoms: C_2  and  C_3
REMARK    3  A    between atoms: C_6  and  C_7
REMARK    4  A    between atoms: N_9  and  C_10
REMARK    5  A    between atoms: N_12  and  C_13
REMARK    6  A    between atoms: N_26  and  C_27
REMARK                            x       y       z     vdW  Elec       q    Type
REMARK                         _______ _______ _______ _____ _____    ______ ____
ROOT
ATOM      1  C   UNL     1       2.016   8.674  18.279  0.00  0.00    +0.000 C 
ATOM      2  O   UNL     1       2.143   9.557  17.442  0.00  0.00    +0.000 OA
ATOM      3  N   UNL     1       1.231   8.796  19.408  0.00  0.00    +0.000 N 
ATOM      4  H   UNL     1       1.089   7.963  19.967  0.00  0.00    +0.000 HD
ENDROOT
BRANCH   1   8
ATOM      5  C   UNL     1       2.368   3.774  18.696  0.00  0.00    +0.000 A 
ATOM      6  C   UNL     1       2.752   5.048  18.346  0.00  0.00    +0.000 A 
ATOM      7  C   UNL     1       2.042   6.220  18.597  0.00  0.00    +0.000 A 
ATOM      8  C   UNL     1       2.709   7.363  18.084  0.00  0.00    +0.000 A 
ATOM      9  C   UNL     1       3.955   7.288  17.375  0.00  0.00    +0.000 A 
ATOM     10  C   UNL     1       4.652   6.078  17.139  0.00  0.00    +0.000 A 
ATOM     11  C   UNL     1       4.012   4.938  17.656  0.00  0.00    +0.000 A 
ATOM     12  N   UNL     1       4.383   3.652  17.612  0.00  0.00    +0.000 NA
ATOM     13  N   UNL     1       3.399   2.980  18.244  0.00  0.00    +0.000 N 
ATOM     14  C   UNL     1       3.519   1.550  18.386  0.00  0.00    +0.000 C 
BRANCH   5  16
ATOM     15  C   UNL     1       1.277   3.304  20.895  0.00  0.00    +0.000 C 
ATOM     16  C   UNL     1       1.152   3.244  19.380  0.00  0.00    +0.000 C 
ENDBRANCH   5  16
ENDBRANCH   1   8
BRANCH   3  17
ATOM     17  C   UNL     1       0.457  10.005  19.785  0.00  0.00    +0.000 C 
ATOM     18  C   UNL     1       1.198  11.209  20.402  0.00  0.00    +0.000 C 
ATOM     19  N   UNL     1       0.250  12.028  19.697  0.00  0.00    +0.000 N 
ATOM     20  C   UNL     1       0.024  11.009  18.703  0.00  0.00    +0.000 C 
BRANCH  19  21
ATOM     21  C   UNL     1       0.077  13.422  19.567  0.00  0.00    +0.000 A 
ATOM     22  C   UNL     1      -1.039  13.995  20.205  0.00  0.00    +0.000 A 
ATOM     23  C   UNL     1      -1.232  15.365  20.153  0.00  0.00    +0.000 A 
ATOM     24 CL   UNL     1      -2.556  16.098  20.959  0.00  0.00    +0.000 Cl
ATOM     25  N   UNL     1      -0.420  16.220  19.509  0.00  0.00    +0.000 NA
ATOM     26  C   UNL     1       0.649  15.662  18.897  0.00  0.00    +0.000 A 
ATOM     27  C   UNL     1       0.950  14.297  18.903  0.00  0.00    +0.000 A 
ATOM     28 CL   UNL     1       2.375  13.804  18.068  0.00  0.00    +0.000 Cl
ENDBRANCH  19  21
ENDBRANCH   3  17
TORSDOF 4
ENDMDL
MODEL 8
REMARK VINA RESULT:      -7.5      1.063      1.094
REMARK  Name = 
REMARK  6 active torsions:
REMARK  status: ('A' for Active; 'I' for Inactive)
REMARK    1  A    between atoms: C_1  and  C_2
REMARK    2  A    between atoms: C_2  and  C_3
REMARK    3  A    between atoms: C_6  and  C_7
REMARK    4  A    between atoms: N_9  and  C_10
REMARK    5  A    between atoms: N_12  and  C_13
REMARK    6  A    between atoms: N_26  and  C_27
REMARK                            x       y       z     vdW  Elec       q    Type
REMARK                         _______ _______ _______ _____ _____    ______ ____
ROOT
ATOM      1  C   UNL     1       1.750   8.261  19.489  0.00  0.00    +0.000 C 
ATOM      2  O   UNL     1       1.562   8.380  20.693  0.00  0.00    +0.000 OA
ATOM      3  N   UNL     1       1.382   9.211  18.559  0.00  0.00    +0.000 N 
ATOM      4  H   UNL     1       1.701   9.076  17.606  0.00  0.00    +0.000 HD
ENDROOT
BRANCH   1   8
ATOM      5  C   UNL     1       2.544   3.401  19.250  0.00  0.00    +0.000 A 
ATOM      6  C   UNL     1       2.721   4.731  18.948  0.00  0.00    +0.000 A 
ATOM      7  C   UNL     1       2.036   5.803  19.515  0.00  0.00    +0.000 A 
ATOM      8  C   UNL     1       2.445   7.045  18.965  0.00  0.00    +0.000 A 
ATOM      9  C   UNL     1       3.435   7.153  17.930  0.00  0.00    +0.000 A 
ATOM     10  C   UNL     1       4.116   6.041  17.377  0.00  0.00    +0.000 A 
ATOM     11  C   UNL     1       3.733   4.805  17.924  0.00  0.00    +0.000 A 
ATOM     12  N   UNL     1       4.163   3.570  17.637  0.00  0.00    +0.000 NA
ATOM     13  N   UNL     1       3.453   2.753  18.441  0.00  0.00    +0.000 N 
ATOM     14  C   UNL     1       3.706   1.334  18.386  0.00  0.00    +0.000 C 
BRANCH   5  16
ATOM     15  C   UNL     1       2.092   2.779  21.627  0.00  0.00    +0.000 C 
ATOM     16  C   UNL     1       1.617   2.698  20.185  0.00  0.00    +0.000 C 
ENDBRANCH   5  16
ENDBRANCH   1   8
BRANCH   3  17
ATOM     17  C   UNL     1       0.690  10.488  18.867  0.00  0.00    +0.000 C 
ATOM     18  C   UNL     1      -0.753  10.448  19.409  0.00  0.00    +0.000 C 
ATOM     19  N   UNL     1      -0.389  11.599  20.187  0.00  0.00    +0.000 N 
ATOM     20  C   UNL     1       1.007  11.238  20.173  0.00  0.00    +0.000 C 
BRANCH  19  21
ATOM     21  C   UNL     1      -1.072  12.386  21.138  0.00  0.00    +0.000 A 
ATOM     22  C   UNL     1      -1.521  13.654  20.723  0.00  0.00    +0.000 A 
ATOM     23  C   UNL     1      -2.240  14.449  21.599  0.00  0.00    +0.000 A 
ATOM     24 CL   UNL     1      -2.841  15.978  21.108  0.00  0.00    +0.000 Cl
ATOM     25  N   UNL     1      -2.543  14.103  22.861  0.00  0.00    +0.000 NA
ATOM     26  C   UNL     1      -2.106  12.885  23.254  0.00  0.00    +0.000 A 
ATOM     27  C   UNL     1      -1.392  11.995  22.447  0.00  0.00    +0.000 A 
ATOM     28 CL   UNL     1      -0.945  10.485  23.149  0.00  0.00    +0.000 Cl
ENDBRANCH  19  21
ENDBRANCH   3  17
TORSDOF 4
ENDMDL
MODEL 9
REMARK VINA RESULT:      -7.5      1.804      1.858
REMARK  Name = 
REMARK  6 active torsions:
REMARK  status: ('A' for Active; 'I' for Inactive)
REMARK    1  A    between atoms: C_1  and  C_2
REMARK    2  A    between atoms: C_2  and  C_3
REMARK    3  A    between atoms: C_6  and  C_7
REMARK    4  A    between atoms: N_9  and  C_10
REMARK    5  A    between atoms: N_12  and  C_13
REMARK    6  A    between atoms: N_26  and  C_27
REMARK                            x       y       z     vdW  Elec       q    Type
REMARK                         _______ _______ _______ _____ _____    ______ ____
ROOT
ATOM      1  C   UNL     1       1.884   8.782  18.514  0.00  0.00    +0.000 C 
ATOM      2  O   UNL     1       1.795   9.497  17.525  0.00  0.00    +0.000 OA
ATOM      3  N   UNL     1       1.241   9.043  19.708  0.00  0.00    +0.000 N 
ATOM      4  H   UNL     1       1.274   8.323  20.420  0.00  0.00    +0.000 HD
ENDROOT
BRANCH   1   8
ATOM      5  C   UNL     1       3.129   4.259  20.031  0.00  0.00    +0.000 A 
ATOM      6  C   UNL     1       3.189   5.402  19.267  0.00  0.00    +0.000 A 
ATOM      7  C   UNL     1       2.396   6.537  19.420  0.00  0.00    +0.000 A 
ATOM      8  C   UNL     1       2.699   7.530  18.453  0.00  0.00    +0.000 A 
ATOM      9  C   UNL     1       3.696   7.350  17.435  0.00  0.00    +0.000 A 
ATOM     10  C   UNL     1       4.488   6.183  17.310  0.00  0.00    +0.000 A 
ATOM     11  C   UNL     1       4.210   5.196  18.271  0.00  0.00    +0.000 A 
ATOM     12  N   UNL     1       4.758   3.986  18.443  0.00  0.00    +0.000 NA
ATOM     13  N   UNL     1       4.110   3.452  19.498  0.00  0.00    +0.000 N 
ATOM     14  C   UNL     1       4.495   2.139  19.954  0.00  0.00    +0.000 C 
BRANCH   5  16
ATOM     15  C   UNL     1       0.971   3.189  20.697  0.00  0.00    +0.000 C 
ATOM     16  C   UNL     1       2.253   3.857  21.170  0.00  0.00    +0.000 C 
ENDBRANCH   5  16
ENDBRANCH   1   8
BRANCH   3  17
ATOM     17  C   UNL     1       0.381  10.223  19.976  0.00  0.00    +0.000 C 
ATOM     18  C   UNL     1      -0.242  10.394  21.377  0.00  0.00    +0.000 C 
ATOM     19  N   UNL     1      -0.064  11.806  21.175  0.00  0.00    +0.000 N 
ATOM     20  C   UNL     1       1.022  11.595  20.250  0.00  0.00    +0.000 C 
BRANCH  19  21
ATOM     21  C   UNL     1      -0.315  12.942  21.973  0.00  0.00    +0.000 A 
ATOM     22  C   UNL     1       0.492  14.074  21.755  0.00  0.00    +0.000 A 
ATOM     23  C   UNL     1       0.258  15.234  22.475  0.00  0.00    +0.000 A 
ATOM     24 CL   UNL     1       1.194  16.644  22.199  0.00  0.00    +0.000 Cl
ATOM     25  N   UNL     1      -0.701  15.367  23.405  0.00  0.00    +0.000 NA
ATOM     26  C   UNL     1      -1.472  14.274  23.611  0.00  0.00    +0.000 A 
ATOM     27  C   UNL     1      -1.336  13.063  22.928  0.00  0.00    +0.000 A 
ATOM     28 CL   UNL     1      -2.438  11.803  23.340  0.00  0.00    +0.000 Cl
ENDBRANCH  19  21
ENDBRANCH   3  17
TORSDOF 4
ENDMDL
