MODEL 1
REMARK VINA RESULT:      -7.3      0.000      0.000
REMARK  Name = 
REMARK  8 active torsions:
REMARK  status: ('A' for Active; 'I' for Inactive)
REMARK    1  A    between atoms: C_1  and  O_2
REMARK    2  A    between atoms: O_2  and  C_3
REMARK    3  A    between atoms: C_6  and  O_7
REMARK    4  A    between atoms: O_7  and  C_8
REMARK    5  A    between atoms: C_8  and  C_9
REMARK    6  A    between atoms: C_9  and  N_10
REMARK    7  A    between atoms: C_14  and  C_16
REMARK    8  A    between atoms: C_22  and  C_23
REMARK                            x       y       z     vdW  Elec       q    Type
REMARK                         _______ _______ _______ _____ _____    ______ ____
ROOT
ATOM      1  N   UNL     1       1.077  10.222  19.348  0.00  0.00    +0.000 NA
ATOM      2  C   UNL     1       1.319  11.666  19.542  0.00  0.00    +0.000 C 
ATOM      3  C   UNL     1       0.190  12.569  19.002  0.00  0.00    +0.000 C 
ATOM      4  N   UNL     1      -1.132  12.182  19.533  0.00  0.00    +0.000 N 
ATOM      5  C   UNL     1      -1.906  13.185  20.111  0.00  0.00    +0.000 C 
ATOM      6  O   UNL     1      -1.473  14.341  20.100  0.00  0.00    +0.000 OA
ATOM      7  C   UNL     1      -1.424  10.753  19.425  0.00  0.00    +0.000 C 
ATOM      8  C   UNL     1      -0.245   9.885  19.926  0.00  0.00    +0.000 C 
ENDROOT
BRANCH   5   9
ATOM      9  C   UNL     1      -3.170  12.935  20.791  0.00  0.00    +0.000 A 
ATOM     10  C   UNL     1      -3.306  13.063  22.168  0.00  0.00    +0.000 A 
ATOM     11  C   UNL     1      -4.655  12.909  22.537  0.00  0.00    +0.000 A 
ATOM     12  C   UNL     1      -5.319  13.001  23.772  0.00  0.00    +0.000 A 
ATOM     13  C   UNL     1      -6.691  12.773  23.826  0.00  0.00    +0.000 A 
ATOM     14  C   UNL     1      -7.382  12.420  22.674  0.00  0.00    +0.000 A 
ATOM     15  C   UNL     1      -6.749  12.303  21.414  0.00  0.00    +0.000 A 
ATOM     16  C   UNL     1      -7.559  11.813  20.250  0.00  0.00    +0.000 C 
ATOM     17  C   UNL     1      -5.366  12.595  21.376  0.00  0.00    +0.000 A 
ATOM     18  N   UNL     1      -4.450  12.670  20.327  0.00  0.00    +0.000 N 
ATOM     19  H   UNL     1      -4.720  12.625  19.356  0.00  0.00    +0.000 HD
ENDBRANCH   5   9
BRANCH   1  20
ATOM     20  C   UNL     1       1.183   9.786  17.942  0.00  0.00    +0.000 C 
BRANCH  20  21
ATOM     21  C   UNL     1       2.099   8.575  17.657  0.00  0.00    +0.000 C 
BRANCH  21  22
ATOM     22  O   UNL     1       2.627   8.039  18.872  0.00  0.00    +0.000 OA
BRANCH  22  26
ATOM     23  C   UNL     1       1.751   4.039  19.693  0.00  0.00    +0.000 A 
ATOM     24  C   UNL     1       1.748   5.015  20.690  0.00  0.00    +0.000 A 
ATOM     25  C   UNL     1       2.041   6.346  20.380  0.00  0.00    +0.000 A 
ATOM     26  C   UNL     1       2.376   6.708  19.076  0.00  0.00    +0.000 A 
ATOM     27  C   UNL     1       2.390   5.729  18.081  0.00  0.00    +0.000 A 
ATOM     28  C   UNL     1       2.082   4.399  18.388  0.00  0.00    +0.000 A 
BRANCH  23  30
ATOM     29  C   UNL     1       1.450   2.564  21.512  0.00  0.00    +0.000 C 
ATOM     30  O   UNL     1       1.441   2.771  20.103  0.00  0.00    +0.000 OA
ENDBRANCH  23  30
ENDBRANCH  22  26
ENDBRANCH  21  22
ENDBRANCH  20  21
ENDBRANCH   1  20
TORSDOF 6
ENDMDL
MODEL 2
REMARK VINA RESULT:      -7.2      2.309      9.928
REMARK  Name = 
REMARK  8 active torsions:
REMARK  status: ('A' for Active; 'I' for Inactive)
REMARK    1  A    between atoms: C_1  and  O_2
REMARK    2  A    between atoms: O_2  and  C_3
REMARK    3  A    between atoms: C_6  and  O_7
REMARK    4  A    between atoms: O_7  and  C_8
REMARK    5  A    between atoms: C_8  and  C_9
REMARK    6  A    between atoms: C_9  and  N_10
REMARK    7  A    between atoms: C_14  and  C_16
REMARK    8  A    between atoms: C_22  and  C_23
REMARK                            x       y       z     vdW  Elec       q    Type
REMARK                         _______ _______ _______ _____ _____    ______ ____
ROOT
ATOM      1  N   UNL     1      -0.689  10.194  21.034  0.00  0.00    +0.000 NA
ATOM      2  C   UNL     1      -0.377  10.550  19.634  0.00  0.00    +0.000 C 
ATOM      3  C   UNL     1       1.090  10.289  19.233  0.00  0.00    +0.000 C 
ATOM      4  N   UNL     1       1.508   8.905  19.530  0.00  0.00    +0.000 N 
ATOM      5  C   UNL     1       2.097   8.181  18.496  0.00  0.00    +0.000 C 
ATOM      6  O   UNL     1       2.286   8.748  17.415  0.00  0.00    +0.000 OA
ATOM      7  C   UNL     1       1.185   8.459  20.884  0.00  0.00    +0.000 C 
ATOM      8  C   UNL     1      -0.279   8.789  21.264  0.00  0.00    +0.000 C 
ENDROOT
BRANCH   5   9
ATOM      9  C   UNL     1       2.442   6.770  18.596  0.00  0.00    +0.000 A 
ATOM     10  C   UNL     1       3.759   6.335  18.679  0.00  0.00    +0.000 A 
ATOM     11  C   UNL     1       3.797   4.949  18.914  0.00  0.00    +0.000 A 
ATOM     12  C   UNL     1       4.856   4.049  19.129  0.00  0.00    +0.000 A 
ATOM     13  C   UNL     1       4.575   2.700  19.319  0.00  0.00    +0.000 A 
ATOM     14  C   UNL     1       3.263   2.248  19.256  0.00  0.00    +0.000 A 
ATOM     15  C   UNL     1       2.170   3.117  19.028  0.00  0.00    +0.000 A 
ATOM     16  C   UNL     1       0.802   2.521  18.872  0.00  0.00    +0.000 C 
ATOM     17  C   UNL     1       2.477   4.492  18.896  0.00  0.00    +0.000 A 
ATOM     18  N   UNL     1       1.676   5.624  18.754  0.00  0.00    +0.000 N 
ATOM     19  H   UNL     1       0.672   5.604  18.848  0.00  0.00    +0.000 HD
ENDBRANCH   5   9
BRANCH   1  20
ATOM     20  C   UNL     1      -0.088  11.106  22.026  0.00  0.00    +0.000 C 
BRANCH  20  21
ATOM     21  C   UNL     1      -0.833  12.434  22.290  0.00  0.00    +0.000 C 
BRANCH  21  22
ATOM     22  O   UNL     1      -1.689  12.321  23.428  0.00  0.00    +0.000 OA
BRANCH  22  26
ATOM     23  C   UNL     1      -5.787  12.886  22.855  0.00  0.00    +0.000 A 
ATOM     24  C   UNL     1      -5.232  12.749  24.127  0.00  0.00    +0.000 A 
ATOM     25  C   UNL     1      -3.855  12.567  24.285  0.00  0.00    +0.000 A 
ATOM     26  C   UNL     1      -3.024  12.482  23.168  0.00  0.00    +0.000 A 
ATOM     27  C   UNL     1      -3.582  12.607  21.894  0.00  0.00    +0.000 A 
ATOM     28  C   UNL     1      -4.959  12.805  21.738  0.00  0.00    +0.000 A 
BRANCH  23  30
ATOM     29  C   UNL     1      -7.916  11.888  22.636  0.00  0.00    +0.000 C 
ATOM     30  O   UNL     1      -7.142  13.070  22.816  0.00  0.00    +0.000 OA
ENDBRANCH  23  30
ENDBRANCH  22  26
ENDBRANCH  21  22
ENDBRANCH  20  21
ENDBRANCH   1  20
TORSDOF 6
ENDMDL
MODEL 3
REMARK VINA RESULT:      -7.1      2.033      9.737
REMARK  Name = 
REMARK  8 active torsions:
REMARK  status: ('A' for Active; 'I' for Inactive)
REMARK    1  A    between atoms: C_1  and  O_2
REMARK    2  A    between atoms: O_2  and  C_3
REMARK    3  A    between atoms: C_6  and  O_7
REMARK    4  A    between atoms: O_7  and  C_8
REMARK    5  A    between atoms: C_8  and  C_9
REMARK    6  A    between atoms: C_9  and  N_10
REMARK    7  A    between atoms: C_14  and  C_16
REMARK    8  A    between atoms: C_22  and  C_23
REMARK                            x       y       z     vdW  Elec       q    Type
REMARK                         _______ _______ _______ _____ _____    ______ ____
ROOT
ATOM      1  N   UNL     1      -0.523  11.048  20.178  0.00  0.00    +0.000 NA
ATOM      2  C   UNL     1      -0.000  11.085  18.796  0.00  0.00    +0.000 C 
ATOM      3  C   UNL     1       1.442  10.555  18.657  0.00  0.00    +0.000 C 
ATOM      4  N   UNL     1       1.596   9.208  19.241  0.00  0.00    +0.000 N 
ATOM      5  C   UNL     1       2.176   8.228  18.439  0.00  0.00    +0.000 C 
ATOM      6  O   UNL     1       2.575   8.548  17.316  0.00  0.00    +0.000 OA
ATOM      7  C   UNL     1       1.053   9.076  20.592  0.00  0.00    +0.000 C 
ATOM      8  C   UNL     1      -0.372   9.669  20.700  0.00  0.00    +0.000 C 
ENDROOT
BRANCH   5   9
ATOM      9  C   UNL     1       2.276   6.827  18.826  0.00  0.00    +0.000 A 
ATOM     10  C   UNL     1       2.216   6.422  20.154  0.00  0.00    +0.000 A 
ATOM     11  C   UNL     1       2.190   5.017  20.230  0.00  0.00    +0.000 A 
ATOM     12  C   UNL     1       2.078   4.125  21.311  0.00  0.00    +0.000 A 
ATOM     13  C   UNL     1       2.100   2.755  21.068  0.00  0.00    +0.000 A 
ATOM     14  C   UNL     1       2.271   2.282  19.773  0.00  0.00    +0.000 A 
ATOM     15  C   UNL     1       2.402   3.145  18.660  0.00  0.00    +0.000 A 
ATOM     16  C   UNL     1       2.689   2.541  17.317  0.00  0.00    +0.000 C 
ATOM     17  C   UNL     1       2.318   4.532  18.926  0.00  0.00    +0.000 A 
ATOM     18  N   UNL     1       2.315   5.650  18.093  0.00  0.00    +0.000 N 
ATOM     19  H   UNL     1       2.257   5.588  17.088  0.00  0.00    +0.000 HD
ENDBRANCH   5   9
BRANCH   1  20
ATOM     20  C   UNL     1       0.099  12.040  21.075  0.00  0.00    +0.000 C 
BRANCH  20  21
ATOM     21  C   UNL     1      -0.810  12.663  22.158  0.00  0.00    +0.000 C 
BRANCH  21  22
ATOM     22  O   UNL     1      -1.974  13.250  21.571  0.00  0.00    +0.000 OA
BRANCH  22  26
ATOM     23  C   UNL     1      -5.590  12.770  23.605  0.00  0.00    +0.000 A 
ATOM     24  C   UNL     1      -5.538  12.947  22.223  0.00  0.00    +0.000 A 
ATOM     25  C   UNL     1      -4.311  13.100  21.572  0.00  0.00    +0.000 A 
ATOM     26  C   UNL     1      -3.123  13.114  22.303  0.00  0.00    +0.000 A 
ATOM     27  C   UNL     1      -3.175  12.949  23.688  0.00  0.00    +0.000 A 
ATOM     28  C   UNL     1      -4.404  12.781  24.338  0.00  0.00    +0.000 A 
BRANCH  23  30
ATOM     29  C   UNL     1      -7.593  13.822  24.281  0.00  0.00    +0.000 C 
ATOM     30  O   UNL     1      -6.841  12.621  24.138  0.00  0.00    +0.000 OA
ENDBRANCH  23  30
ENDBRANCH  22  26
ENDBRANCH  21  22
ENDBRANCH  20  21
ENDBRANCH   1  20
TORSDOF 6
ENDMDL
MODEL 4
REMARK VINA RESULT:      -7.1      2.113      9.805
REMARK  Name = 
REMARK  8 active torsions:
REMARK  status: ('A' for Active; 'I' for Inactive)
REMARK    1  A    between atoms: C_1  and  O_2
REMARK    2  A    between atoms: O_2  and  C_3
REMARK    3  A    between atoms: C_6  and  O_7
REMARK    4  A    between atoms: O_7  and  C_8
REMARK    5  A    between atoms: C_8  and  C_9
REMARK    6  A    between atoms: C_9  and  N_10
REMARK    7  A    between atoms: C_14  and  C_16
REMARK    8  A    between atoms: C_22  and  C_23
REMARK                            x       y       z     vdW  Elec       q    Type
REMARK                         _______ _______ _______ _____ _____    ______ ____
ROOT
ATOM      1  N   UNL     1      -0.754  10.487  20.899  0.00  0.00    +0.000 NA
ATOM      2  C   UNL     1      -0.451  10.659  19.463  0.00  0.00    +0.000 C 
ATOM      3  C   UNL     1       1.023  10.385  19.096  0.00  0.00    +0.000 C 
ATOM      4  N   UNL     1       1.477   9.065  19.575  0.00  0.00    +0.000 N 
ATOM      5  C   UNL     1       2.085   8.225  18.646  0.00  0.00    +0.000 C 
ATOM      6  O   UNL     1       2.259   8.646  17.498  0.00  0.00    +0.000 OA
ATOM      7  C   UNL     1       1.165   8.797  20.978  0.00  0.00    +0.000 C 
ATOM      8  C   UNL     1      -0.306   9.137  21.315  0.00  0.00    +0.000 C 
ENDROOT
BRANCH   5   9
ATOM      9  C   UNL     1       2.468   6.849  18.934  0.00  0.00    +0.000 A 
ATOM     10  C   UNL     1       3.603   6.267  18.384  0.00  0.00    +0.000 A 
ATOM     11  C   UNL     1       3.812   4.993  18.942  0.00  0.00    +0.000 A 
ATOM     12  C   UNL     1       4.827   4.035  18.772  0.00  0.00    +0.000 A 
ATOM     13  C   UNL     1       4.749   2.830  19.464  0.00  0.00    +0.000 A 
ATOM     14  C   UNL     1       3.656   2.568  20.280  0.00  0.00    +0.000 A 
ATOM     15  C   UNL     1       2.607   3.498  20.467  0.00  0.00    +0.000 A 
ATOM     16  C   UNL     1       1.419   3.080  21.283  0.00  0.00    +0.000 C 
ATOM     17  C   UNL     1       2.738   4.737  19.798  0.00  0.00    +0.000 A 
ATOM     18  N   UNL     1       1.969   5.899  19.814  0.00  0.00    +0.000 N 
ATOM     19  H   UNL     1       1.205   6.046  20.456  0.00  0.00    +0.000 HD
ENDBRANCH   5   9
BRANCH   1  20
ATOM     20  C   UNL     1      -0.178  11.540  21.758  0.00  0.00    +0.000 C 
BRANCH  20  21
ATOM     21  C   UNL     1      -1.125  12.190  22.790  0.00  0.00    +0.000 C 
BRANCH  21  22
ATOM     22  O   UNL     1      -1.797  13.319  22.225  0.00  0.00    +0.000 OA
BRANCH  22  26
ATOM     23  C   UNL     1      -5.778  12.692  21.130  0.00  0.00    +0.000 A 
ATOM     24  C   UNL     1      -5.404  12.919  22.454  0.00  0.00    +0.000 A 
ATOM     25  C   UNL     1      -4.063  13.131  22.787  0.00  0.00    +0.000 A 
ATOM     26  C   UNL     1      -3.077  13.080  21.802  0.00  0.00    +0.000 A 
ATOM     27  C   UNL     1      -3.450  12.841  20.478  0.00  0.00    +0.000 A 
ATOM     28  C   UNL     1      -4.795  12.643  20.143  0.00  0.00    +0.000 A 
BRANCH  23  30
ATOM     29  C   UNL     1      -7.464  11.965  19.645  0.00  0.00    +0.000 C 
ATOM     30  O   UNL     1      -7.116  12.507  20.915  0.00  0.00    +0.000 OA
ENDBRANCH  23  30
ENDBRANCH  22  26
ENDBRANCH  21  22
ENDBRANCH  20  21
ENDBRANCH   1  20
TORSDOF 6
ENDMDL
MODEL 5
REMARK VINA RESULT:      -7.1      2.540     10.312
REMARK  Name = 
REMARK  8 active torsions:
REMARK  status: ('A' for Active; 'I' for Inactive)
REMARK    1  A    between atoms: C_1  and  O_2
REMARK    2  A    between atoms: O_2  and  C_3
REMARK    3  A    between atoms: C_6  and  O_7
REMARK    4  A    between atoms: O_7  and  C_8
REMARK    5  A    between atoms: C_8  and  C_9
REMARK    6  A    between atoms: C_9  and  N_10
REMARK    7  A    between atoms: C_14  and  C_16
REMARK    8  A    between atoms: C_22  and  C_23
REMARK                            x       y       z     vdW  Elec       q    Type
REMARK                         _______ _______ _______ _____ _____    ______ ____
ROOT
ATOM      1  N   UNL     1      -0.729  10.018  21.169  0.00  0.00    +0.000 NA
ATOM      2  C   UNL     1      -0.566  10.544  19.798  0.00  0.00    +0.000 C 
ATOM      3  C   UNL     1       0.884  10.491  19.274  0.00  0.00    +0.000 C 
ATOM      4  N   UNL     1       1.467   9.140  19.391  0.00  0.00    +0.000 N 
ATOM      5  C   UNL     1       2.045   8.594  18.248  0.00  0.00    +0.000 C 
ATOM      6  O   UNL     1       2.089   9.283  17.224  0.00  0.00    +0.000 OA
ATOM      7  C   UNL     1       1.299   8.528  20.708  0.00  0.00    +0.000 C 
ATOM      8  C   UNL     1      -0.157   8.652  21.219  0.00  0.00    +0.000 C 
ENDROOT
BRANCH   5   9
ATOM      9  C   UNL     1       2.543   7.227  18.173  0.00  0.00    +0.000 A 
ATOM     10  C   UNL     1       1.693   6.128  18.211  0.00  0.00    +0.000 A 
ATOM     11  C   UNL     1       2.419   4.947  17.974  0.00  0.00    +0.000 A 
ATOM     12  C   UNL     1       2.032   3.600  17.854  0.00  0.00    +0.000 A 
ATOM     13  C   UNL     1       3.004   2.630  17.631  0.00  0.00    +0.000 A 
ATOM     14  C   UNL     1       4.343   2.991  17.567  0.00  0.00    +0.000 A 
ATOM     15  C   UNL     1       4.776   4.331  17.696  0.00  0.00    +0.000 A 
ATOM     16  C   UNL     1       6.251   4.607  17.719  0.00  0.00    +0.000 C 
ATOM     17  C   UNL     1       3.765   5.305  17.865  0.00  0.00    +0.000 A 
ATOM     18  N   UNL     1       3.803   6.697  17.937  0.00  0.00    +0.000 N 
ATOM     19  H   UNL     1       4.635   7.235  17.748  0.00  0.00    +0.000 HD
ENDBRANCH   5   9
BRANCH   1  20
ATOM     20  C   UNL     1      -0.151  10.888  22.211  0.00  0.00    +0.000 C 
BRANCH  20  21
ATOM     21  C   UNL     1      -0.586  12.370  22.198  0.00  0.00    +0.000 C 
BRANCH  21  22
ATOM     22  O   UNL     1      -1.055  12.775  23.486  0.00  0.00    +0.000 OA
BRANCH  22  26
ATOM     23  C   UNL     1      -5.036  14.036  23.511  0.00  0.00    +0.000 A 
ATOM     24  C   UNL     1      -4.634  12.873  22.855  0.00  0.00    +0.000 A 
ATOM     25  C   UNL     1      -3.294  12.475  22.871  0.00  0.00    +0.000 A 
ATOM     26  C   UNL     1      -2.336  13.260  23.511  0.00  0.00    +0.000 A 
ATOM     27  C   UNL     1      -2.736  14.430  24.158  0.00  0.00    +0.000 A 
ATOM     28  C   UNL     1      -4.080  14.820  24.154  0.00  0.00    +0.000 A 
BRANCH  23  30
ATOM     29  C   UNL     1      -7.235  13.397  24.090  0.00  0.00    +0.000 C 
ATOM     30  O   UNL     1      -6.371  14.326  23.440  0.00  0.00    +0.000 OA
ENDBRANCH  23  30
ENDBRANCH  22  26
ENDBRANCH  21  22
ENDBRANCH  20  21
ENDBRANCH   1  20
TORSDOF 6
ENDMDL
MODEL 6
REMARK VINA RESULT:      -7.0      2.178     10.172
REMARK  Name = 
REMARK  8 active torsions:
REMARK  status: ('A' for Active; 'I' for Inactive)
REMARK    1  A    between atoms: C_1  and  O_2
REMARK    2  A    between atoms: O_2  and  C_3
REMARK    3  A    between atoms: C_6  and  O_7
REMARK    4  A    between atoms: O_7  and  C_8
REMARK    5  A    between atoms: C_8  and  C_9
REMARK    6  A    between atoms: C_9  and  N_10
REMARK    7  A    between atoms: C_14  and  C_16
REMARK    8  A    between atoms: C_22  and  C_23
REMARK                            x       y       z     vdW  Elec       q    Type
REMARK                         _______ _______ _______ _____ _____    ______ ____
ROOT
ATOM      1  N   UNL     1      -0.760  10.547  20.703  0.00  0.00    +0.000 NA
ATOM      2  C   UNL     1      -0.349  10.789  19.305  0.00  0.00    +0.000 C 
ATOM      3  C   UNL     1       1.130  10.453  19.019  0.00  0.00    +0.000 C 
ATOM      4  N   UNL     1       1.479   9.082  19.440  0.00  0.00    +0.000 N 
ATOM      5  C   UNL     1       2.104   8.267  18.500  0.00  0.00    +0.000 C 
ATOM      6  O   UNL     1       2.380   8.747  17.397  0.00  0.00    +0.000 OA
ATOM      7  C   UNL     1       1.055   8.747  20.799  0.00  0.00    +0.000 C 
ATOM      8  C   UNL     1      -0.416   9.150  21.059  0.00  0.00    +0.000 C 
ENDROOT
BRANCH   5   9
ATOM      9  C   UNL     1       2.391   6.856  18.723  0.00  0.00    +0.000 A 
ATOM     10  C   UNL     1       3.049   6.078  17.778  0.00  0.00    +0.000 A 
ATOM     11  C   UNL     1       3.324   4.804  18.308  0.00  0.00    +0.000 A 
ATOM     12  C   UNL     1       4.005   3.687  17.793  0.00  0.00    +0.000 A 
ATOM     13  C   UNL     1       4.101   2.533  18.564  0.00  0.00    +0.000 A 
ATOM     14  C   UNL     1       3.493   2.480  19.812  0.00  0.00    +0.000 A 
ATOM     15  C   UNL     1       2.787   3.576  20.361  0.00  0.00    +0.000 A 
ATOM     16  C   UNL     1       2.077   3.386  21.669  0.00  0.00    +0.000 C 
ATOM     17  C   UNL     1       2.753   4.756  19.582  0.00  0.00    +0.000 A 
ATOM     18  N   UNL     1       2.242   6.029  19.827  0.00  0.00    +0.000 N 
ATOM     19  H   UNL     1       1.895   6.319  20.728  0.00  0.00    +0.000 HD
ENDBRANCH   5   9
BRANCH   1  20
ATOM     20  C   UNL     1      -0.190  11.509  21.665  0.00  0.00    +0.000 C 
BRANCH  20  21
ATOM     21  C   UNL     1      -1.026  11.806  22.930  0.00  0.00    +0.000 C 
BRANCH  21  22
ATOM     22  O   UNL     1      -1.315  13.202  23.035  0.00  0.00    +0.000 OA
BRANCH  22  26
ATOM     23  C   UNL     1      -5.423  13.939  23.191  0.00  0.00    +0.000 A 
ATOM     24  C   UNL     1      -4.888  12.898  22.432  0.00  0.00    +0.000 A 
ATOM     25  C   UNL     1      -3.508  12.675  22.405  0.00  0.00    +0.000 A 
ATOM     26  C   UNL     1      -2.646  13.515  23.109  0.00  0.00    +0.000 A 
ATOM     27  C   UNL     1      -3.180  14.563  23.861  0.00  0.00    +0.000 A 
ATOM     28  C   UNL     1      -4.563  14.777  23.898  0.00  0.00    +0.000 A 
BRANCH  23  30
ATOM     29  C   UNL     1      -7.487  13.420  24.214  0.00  0.00    +0.000 C 
ATOM     30  O   UNL     1      -6.784  14.061  23.153  0.00  0.00    +0.000 OA
ENDBRANCH  23  30
ENDBRANCH  22  26
ENDBRANCH  21  22
ENDBRANCH  20  21
ENDBRANCH   1  20
TORSDOF 6
ENDMDL
MODEL 7
REMARK VINA RESULT:      -6.9      1.348      1.720
REMARK  Name = 
REMARK  8 active torsions:
REMARK  status: ('A' for Active; 'I' for Inactive)
REMARK    1  A    between atoms: C_1  and  O_2
REMARK    2  A    between atoms: O_2  and  C_3
REMARK    3  A    between atoms: C_6  and  O_7
REMARK    4  A    between atoms: O_7  and  C_8
REMARK    5  A    between atoms: C_8  and  C_9
REMARK    6  A    between atoms: C_9  and  N_10
REMARK    7  A    between atoms: C_14  and  C_16
REMARK    8  A    between atoms: C_22  and  C_23
REMARK                            x       y       z     vdW  Elec       q    Type
REMARK                         _______ _______ _______ _____ _____    ______ ____
ROOT
ATOM      1  N   UNL     1       1.173  10.824  19.838  0.00  0.00    +0.000 NA
ATOM      2  C   UNL     1       1.289  12.247  20.218  0.00  0.00    +0.000 C 
ATOM      3  C   UNL     1       0.173  13.143  19.641  0.00  0.00    +0.000 C 
ATOM      4  N   UNL     1      -1.173  12.623  19.955  0.00  0.00    +0.000 N 
ATOM      5  C   UNL     1      -2.078  13.507  20.536  0.00  0.00    +0.000 C 
ATOM      6  O   UNL     1      -1.729  14.679  20.705  0.00  0.00    +0.000 OA
ATOM      7  C   UNL     1      -1.350  11.203  19.656  0.00  0.00    +0.000 C 
ATOM      8  C   UNL     1      -0.182  10.349  20.205  0.00  0.00    +0.000 C 
ENDROOT
BRANCH   5   9
ATOM      9  C   UNL     1      -3.394  13.110  21.019  0.00  0.00    +0.000 A 
ATOM     10  C   UNL     1      -3.770  13.265  22.348  0.00  0.00    +0.000 A 
ATOM     11  C   UNL     1      -5.130  12.940  22.506  0.00  0.00    +0.000 A 
ATOM     12  C   UNL     1      -5.995  12.982  23.613  0.00  0.00    +0.000 A 
ATOM     13  C   UNL     1      -7.316  12.571  23.461  0.00  0.00    +0.000 A 
ATOM     14  C   UNL     1      -7.756  12.088  22.236  0.00  0.00    +0.000 A 
ATOM     15  C   UNL     1      -6.914  12.016  21.101  0.00  0.00    +0.000 A 
ATOM     16  C   UNL     1      -7.452  11.381  19.852  0.00  0.00    +0.000 C 
ATOM     17  C   UNL     1      -5.594  12.493  21.266  0.00  0.00    +0.000 A 
ATOM     18  N   UNL     1      -4.535  12.657  20.374  0.00  0.00    +0.000 N 
ATOM     19  H   UNL     1      -4.633  12.543  19.376  0.00  0.00    +0.000 HD
ENDBRANCH   5   9
BRANCH   1  20
ATOM     20  C   UNL     1       1.476  10.561  18.419  0.00  0.00    +0.000 C 
BRANCH  20  21
ATOM     21  C   UNL     1       1.379   9.093  17.947  0.00  0.00    +0.000 C 
BRANCH  21  22
ATOM     22  O   UNL     1       2.599   8.674  17.331  0.00  0.00    +0.000 OA
BRANCH  22  26
ATOM     23  C   UNL     1       4.192   4.983  18.464  0.00  0.00    +0.000 A 
ATOM     24  C   UNL     1       4.886   5.864  17.634  0.00  0.00    +0.000 A 
ATOM     25  C   UNL     1       4.327   7.094  17.278  0.00  0.00    +0.000 A 
ATOM     26  C   UNL     1       3.050   7.440  17.719  0.00  0.00    +0.000 A 
ATOM     27  C   UNL     1       2.350   6.554  18.540  0.00  0.00    +0.000 A 
ATOM     28  C   UNL     1       2.917   5.328  18.908  0.00  0.00    +0.000 A 
BRANCH  23  30
ATOM     29  C   UNL     1       4.180   2.971  19.701  0.00  0.00    +0.000 C 
ATOM     30  O   UNL     1       4.836   3.812  18.757  0.00  0.00    +0.000 OA
ENDBRANCH  23  30
ENDBRANCH  22  26
ENDBRANCH  21  22
ENDBRANCH  20  21
ENDBRANCH   1  20
TORSDOF 6
ENDMDL
MODEL 8
REMARK VINA RESULT:      -6.9      2.359      9.445
REMARK  Name = 
REMARK  8 active torsions:
REMARK  status: ('A' for Active; 'I' for Inactive)
REMARK    1  A    between atoms: C_1  and  O_2
REMARK    2  A    between atoms: O_2  and  C_3
REMARK    3  A    between atoms: C_6  and  O_7
REMARK    4  A    between atoms: O_7  and  C_8
REMARK    5  A    between atoms: C_8  and  C_9
REMARK    6  A    between atoms: C_9  and  N_10
REMARK    7  A    between atoms: C_14  and  C_16
REMARK    8  A    between atoms: C_22  and  C_23
REMARK                            x       y       z     vdW  Elec       q    Type
REMARK                         _______ _______ _______ _____ _____    ______ ____
ROOT
ATOM      1  N   UNL     1      -1.607  12.187  18.681  0.00  0.00    +0.000 NA
ATOM      2  C   UNL     1      -0.712  12.551  19.799  0.00  0.00    +0.000 C 
ATOM      3  C   UNL     1      -0.596  11.465  20.888  0.00  0.00    +0.000 C 
ATOM      4  N   UNL     1      -0.225  10.152  20.325  0.00  0.00    +0.000 N 
ATOM      5  C   UNL     1       0.859   9.494  20.900  0.00  0.00    +0.000 C 
ATOM      6  O   UNL     1       1.411  10.013  21.874  0.00  0.00    +0.000 OA
ATOM      7  C   UNL     1      -1.034   9.744  19.176  0.00  0.00    +0.000 C 
ATOM      8  C   UNL     1      -1.169  10.881  18.135  0.00  0.00    +0.000 C 
ENDROOT
BRANCH   5   9
ATOM      9  C   UNL     1       1.422   8.258  20.372  0.00  0.00    +0.000 A 
ATOM     10  C   UNL     1       2.023   8.196  19.121  0.00  0.00    +0.000 A 
ATOM     11  C   UNL     1       2.606   6.930  18.928  0.00  0.00    +0.000 A 
ATOM     12  C   UNL     1       3.366   6.383  17.878  0.00  0.00    +0.000 A 
ATOM     13  C   UNL     1       3.800   5.064  17.968  0.00  0.00    +0.000 A 
ATOM     14  C   UNL     1       3.448   4.291  19.066  0.00  0.00    +0.000 A 
ATOM     15  C   UNL     1       2.674   4.798  20.136  0.00  0.00    +0.000 A 
ATOM     16  C   UNL     1       2.258   3.855  21.227  0.00  0.00    +0.000 C 
ATOM     17  C   UNL     1       2.295   6.157  20.049  0.00  0.00    +0.000 A 
ATOM     18  N   UNL     1       1.623   7.004  20.929  0.00  0.00    +0.000 N 
ATOM     19  H   UNL     1       1.401   6.747  21.879  0.00  0.00    +0.000 HD
ENDBRANCH   5   9
BRANCH   1  20
ATOM     20  C   UNL     1      -3.037  12.174  19.045  0.00  0.00    +0.000 C 
BRANCH  20  21
ATOM     21  C   UNL     1      -4.017  11.610  17.993  0.00  0.00    +0.000 C 
BRANCH  21  22
ATOM     22  O   UNL     1      -5.282  12.270  18.069  0.00  0.00    +0.000 OA
BRANCH  22  26
ATOM     23  C   UNL     1      -7.311  11.992  21.709  0.00  0.00    +0.000 A 
ATOM     24  C   UNL     1      -6.488  13.076  21.403  0.00  0.00    +0.000 A 
ATOM     25  C   UNL     1      -5.827  13.141  20.173  0.00  0.00    +0.000 A 
ATOM     26  C   UNL     1      -5.953  12.103  19.251  0.00  0.00    +0.000 A 
ATOM     27  C   UNL     1      -6.767  11.012  19.561  0.00  0.00    +0.000 A 
ATOM     28  C   UNL     1      -7.440  10.955  20.787  0.00  0.00    +0.000 A 
BRANCH  23  30
ATOM     29  C   UNL     1      -7.230  12.786  23.931  0.00  0.00    +0.000 C 
ATOM     30  O   UNL     1      -7.916  12.034  22.934  0.00  0.00    +0.000 OA
ENDBRANCH  23  30
ENDBRANCH  22  26
ENDBRANCH  21  22
ENDBRANCH  20  21
ENDBRANCH   1  20
TORSDOF 6
ENDMDL
MODEL 9
REMARK VINA RESULT:      -6.9      3.708      9.735
REMARK  Name = 
REMARK  8 active torsions:
REMARK  status: ('A' for Active; 'I' for Inactive)
REMARK    1  A    between atoms: C_1  and  O_2
REMARK    2  A    between atoms: O_2  and  C_3
REMARK    3  A    between atoms: C_6  and  O_7
REMARK    4  A    between atoms: O_7  and  C_8
REMARK    5  A    between atoms: C_8  and  C_9
REMARK    6  A    between atoms: C_9  and  N_10
REMARK    7  A    between atoms: C_14  and  C_16
REMARK    8  A    between atoms: C_22  and  C_23
REMARK                            x       y       z     vdW  Elec       q    Type
REMARK                         _______ _______ _______ _____ _____    ______ ____
ROOT
ATOM      1  N   UNL     1      -0.620  10.204  20.944  0.00  0.00    +0.000 NA
ATOM      2  C   UNL     1      -0.303  10.541  19.541  0.00  0.00    +0.000 C 
ATOM      3  C   UNL     1       1.163  10.264  19.145  0.00  0.00    +0.000 C 
ATOM      4  N   UNL     1       1.570   8.880  19.459  0.00  0.00    +0.000 N 
ATOM      5  C   UNL     1       2.155   8.140  18.434  0.00  0.00    +0.000 C 
ATOM      6  O   UNL     1       2.350   8.693  17.348  0.00  0.00    +0.000 OA
ATOM      7  C   UNL     1       1.241   8.453  20.818  0.00  0.00    +0.000 C 
ATOM      8  C   UNL     1      -0.220   8.799  21.192  0.00  0.00    +0.000 C 
ENDROOT
BRANCH   5   9
ATOM      9  C   UNL     1       2.489   6.727  18.552  0.00  0.00    +0.000 A 
ATOM     10  C   UNL     1       3.800   6.287  18.686  0.00  0.00    +0.000 A 
ATOM     11  C   UNL     1       3.823   4.901  18.926  0.00  0.00    +0.000 A 
ATOM     12  C   UNL     1       4.869   3.997  19.183  0.00  0.00    +0.000 A 
ATOM     13  C   UNL     1       4.574   2.650  19.367  0.00  0.00    +0.000 A 
ATOM     14  C   UNL     1       3.263   2.205  19.257  0.00  0.00    +0.000 A 
ATOM     15  C   UNL     1       2.184   3.078  18.985  0.00  0.00    +0.000 A 
ATOM     16  C   UNL     1       0.820   2.487  18.780  0.00  0.00    +0.000 C 
ATOM     17  C   UNL     1       2.502   4.450  18.860  0.00  0.00    +0.000 A 
ATOM     18  N   UNL     1       1.712   5.586  18.685  0.00  0.00    +0.000 N 
ATOM     19  H   UNL     1       0.705   5.570  18.742  0.00  0.00    +0.000 HD
ENDBRANCH   5   9
BRANCH   1  20
ATOM     20  C   UNL     1      -0.014  11.123  21.927  0.00  0.00    +0.000 C 
BRANCH  20  21
ATOM     21  C   UNL     1      -0.389  12.616  21.804  0.00  0.00    +0.000 C 
BRANCH  21  22
ATOM     22  O   UNL     1       0.749  13.449  22.036  0.00  0.00    +0.000 OA
BRANCH  22  26
ATOM     23  C   UNL     1       2.634  14.994  18.645  0.00  0.00    +0.000 A 
ATOM     24  C   UNL     1       3.352  14.392  19.679  0.00  0.00    +0.000 A 
ATOM     25  C   UNL     1       2.690  13.880  20.798  0.00  0.00    +0.000 A 
ATOM     26  C   UNL     1       1.305  13.999  20.912  0.00  0.00    +0.000 A 
ATOM     27  C   UNL     1       0.588  14.611  19.883  0.00  0.00    +0.000 A 
ATOM     28  C   UNL     1       1.250  15.111  18.755  0.00  0.00    +0.000 A 
BRANCH  23  30
ATOM     29  C   UNL     1       3.057  16.762  17.138  0.00  0.00    +0.000 C 
ATOM     30  O   UNL     1       3.380  15.451  17.593  0.00  0.00    +0.000 OA
ENDBRANCH  23  30
ENDBRANCH  22  26
ENDBRANCH  21  22
ENDBRANCH  20  21
ENDBRANCH   1  20
TORSDOF 6
ENDMDL
