MODEL 1
REMARK VINA RESULT:      -7.9      0.000      0.000
REMARK  Name = 
REMARK  6 active torsions:
REMARK  status: ('A' for Active; 'I' for Inactive)
REMARK    1  A    between atoms: C_1  and  C_2
REMARK    2  A    between atoms: C_3  and  N_4
REMARK    3  A    between atoms: N_6  and  C_7
REMARK    4  A    between atoms: C_16  and  C_17
REMARK    5  A    between atoms: C_17  and  O_19
REMARK    6  A    between atoms: N_21  and  C_22
REMARK                            x       y       z     vdW  Elec       q    Type
REMARK                         _______ _______ _______ _____ _____    ______ ____
ROOT
ATOM      1  C   UNL     1       1.279   8.562  19.905  0.00  0.00    +0.000 A 
ATOM      2  N   UNL     1       1.701   7.312  20.260  0.00  0.00    +0.000 NA
ATOM      3  C   UNL     1       2.584   6.643  19.468  0.00  0.00    +0.000 A 
ATOM      4  C   UNL     1       3.103   7.239  18.309  0.00  0.00    +0.000 A 
ATOM      5  C   UNL     1       2.721   8.534  17.967  0.00  0.00    +0.000 A 
ATOM      6  C   UNL     1       1.802   9.195  18.769  0.00  0.00    +0.000 A 
ATOM      7  F   UNL     1       1.436  10.436  18.417  0.00  0.00    +0.000 F 
ATOM      8  C   UNL     1       4.038   6.489  17.439  0.00  0.00    +0.000 A 
ATOM      9  O   UNL     1       4.503   6.988  16.419  0.00  0.00    +0.000 OA
ATOM     10  C   UNL     1       4.400   5.109  17.810  0.00  0.00    +0.000 A 
ATOM     11  C   UNL     1       3.849   4.625  18.942  0.00  0.00    +0.000 A 
ATOM     12  N   UNL     1       2.990   5.305  19.782  0.00  0.00    +0.000 N 
ENDROOT
BRANCH   1  17
ATOM     13  C   UNL     1      -0.645  11.414  20.568  0.00  0.00    +0.000 C 
ATOM     14  C   UNL     1       0.243  10.445  21.332  0.00  0.00    +0.000 C 
ATOM     15  C   UNL     1      -0.451   9.784  22.541  0.00  0.00    +0.000 C 
ATOM     16  C   UNL     1      -0.519   8.505  21.690  0.00  0.00    +0.000 C 
ATOM     17  N   UNL     1       0.272   9.158  20.688  0.00  0.00    +0.000 N 
BRANCH  15  18
ATOM     18  N   UNL     1       0.507   9.634  23.650  0.00  0.00    +0.000 NA
ATOM     19  H   UNL     1       0.995  10.493  23.908  0.00  0.00    +0.000 HD
ATOM     20  H   UNL     1       1.230   8.935  23.483  0.00  0.00    +0.000 HD
ENDBRANCH  15  18
ENDBRANCH   1  17
BRANCH  12  21
ATOM     21  C   UNL     1       2.413   4.620  20.964  0.00  0.00    +0.000 C 
ATOM     22  C   UNL     1       1.216   3.697  20.935  0.00  0.00    +0.000 C 
ATOM     23  C   UNL     1       2.587   3.130  21.140  0.00  0.00    +0.000 C 
ENDBRANCH  12  21
BRANCH  10  24
ATOM     24  C   UNL     1       5.305   4.242  17.028  0.00  0.00    +0.000 C 
ATOM     25  O   UNL     1       4.996   3.742  15.953  0.00  0.00    +0.000 OA
BRANCH  24  26
ATOM     26  O   UNL     1       6.512   4.042  17.592  0.00  0.00    +0.000 OA
ATOM     27  H   UNL     1       7.177   4.742  17.385  0.00  0.00    +0.000 HD
ENDBRANCH  24  26
ENDBRANCH  10  24
TORSDOF 5
ENDMDL
MODEL 2
REMARK VINA RESULT:      -7.5      2.480      3.904
REMARK  Name = 
REMARK  6 active torsions:
REMARK  status: ('A' for Active; 'I' for Inactive)
REMARK    1  A    between atoms: C_1  and  C_2
REMARK    2  A    between atoms: C_3  and  N_4
REMARK    3  A    between atoms: N_6  and  C_7
REMARK    4  A    between atoms: C_16  and  C_17
REMARK    5  A    between atoms: C_17  and  O_19
REMARK    6  A    between atoms: N_21  and  C_22
REMARK                            x       y       z     vdW  Elec       q    Type
REMARK                         _______ _______ _______ _____ _____    ______ ____
ROOT
ATOM      1  C   UNL     1       1.740   8.030  19.622  0.00  0.00    +0.000 A 
ATOM      2  N   UNL     1       2.579   7.398  18.749  0.00  0.00    +0.000 NA
ATOM      3  C   UNL     1       2.959   6.111  18.983  0.00  0.00    +0.000 A 
ATOM      4  C   UNL     1       2.464   5.407  20.090  0.00  0.00    +0.000 A 
ATOM      5  C   UNL     1       1.566   6.023  20.957  0.00  0.00    +0.000 A 
ATOM      6  C   UNL     1       1.206   7.342  20.721  0.00  0.00    +0.000 A 
ATOM      7  F   UNL     1       0.350   7.924  21.573  0.00  0.00    +0.000 F 
ATOM      8  C   UNL     1       2.911   4.019  20.351  0.00  0.00    +0.000 A 
ATOM      9  O   UNL     1       2.495   3.384  21.315  0.00  0.00    +0.000 OA
ATOM     10  C   UNL     1       3.886   3.402  19.434  0.00  0.00    +0.000 A 
ATOM     11  C   UNL     1       4.302   4.161  18.398  0.00  0.00    +0.000 A 
ATOM     12  N   UNL     1       3.892   5.449  18.119  0.00  0.00    +0.000 N 
ENDROOT
BRANCH   1  17
ATOM     13  C   UNL     1       0.788  11.108  20.996  0.00  0.00    +0.000 C 
ATOM     14  C   UNL     1       0.374  10.206  19.844  0.00  0.00    +0.000 C 
ATOM     15  C   UNL     1       0.386  10.905  18.469  0.00  0.00    +0.000 C 
ATOM     16  C   UNL     1       1.667  10.108  18.174  0.00  0.00    +0.000 C 
ATOM     17  N   UNL     1       1.478   9.396  19.404  0.00  0.00    +0.000 N 
BRANCH  15  18
ATOM     18  N   UNL     1      -0.740  10.424  17.650  0.00  0.00    +0.000 NA
ATOM     19  H   UNL     1      -1.177  11.139  17.068  0.00  0.00    +0.000 HD
ATOM     20  H   UNL     1      -1.493   9.997  18.190  0.00  0.00    +0.000 HD
ENDBRANCH  15  18
ENDBRANCH   1  17
BRANCH  12  21
ATOM     21  C   UNL     1       4.484   6.183  16.976  0.00  0.00    +0.000 C 
ATOM     22  C   UNL     1       5.881   6.761  16.943  0.00  0.00    +0.000 C 
ATOM     23  C   UNL     1       5.562   5.541  16.135  0.00  0.00    +0.000 C 
ENDBRANCH  12  21
BRANCH  10  24
ATOM     24  C   UNL     1       4.429   2.037  19.582  0.00  0.00    +0.000 C 
ATOM     25  O   UNL     1       5.156   1.698  20.509  0.00  0.00    +0.000 OA
BRANCH  24  26
ATOM     26  O   UNL     1       4.057   1.179  18.613  0.00  0.00    +0.000 OA
ATOM     27  H   UNL     1       4.732   0.492  18.398  0.00  0.00    +0.000 HD
ENDBRANCH  24  26
ENDBRANCH  10  24
TORSDOF 5
ENDMDL
MODEL 3
REMARK VINA RESULT:      -7.4      1.392      1.637
REMARK  Name = 
REMARK  6 active torsions:
REMARK  status: ('A' for Active; 'I' for Inactive)
REMARK    1  A    between atoms: C_1  and  C_2
REMARK    2  A    between atoms: C_3  and  N_4
REMARK    3  A    between atoms: N_6  and  C_7
REMARK    4  A    between atoms: C_16  and  C_17
REMARK    5  A    between atoms: C_17  and  O_19
REMARK    6  A    between atoms: N_21  and  C_22
REMARK                            x       y       z     vdW  Elec       q    Type
REMARK                         _______ _______ _______ _____ _____    ______ ____
ROOT
ATOM      1  C   UNL     1       2.228   7.813  19.178  0.00  0.00    +0.000 A 
ATOM      2  N   UNL     1       2.849   6.619  19.412  0.00  0.00    +0.000 NA
ATOM      3  C   UNL     1       3.727   6.119  18.498  0.00  0.00    +0.000 A 
ATOM      4  C   UNL     1       4.037   6.837  17.334  0.00  0.00    +0.000 A 
ATOM      5  C   UNL     1       3.450   8.080  17.111  0.00  0.00    +0.000 A 
ATOM      6  C   UNL     1       2.539   8.566  18.038  0.00  0.00    +0.000 A 
ATOM      7  F   UNL     1       1.974   9.759  17.800  0.00  0.00    +0.000 F 
ATOM      8  C   UNL     1       4.968   6.268  16.333  0.00  0.00    +0.000 A 
ATOM      9  O   UNL     1       5.252   6.876  15.305  0.00  0.00    +0.000 OA
ATOM     10  C   UNL     1       5.550   4.937  16.580  0.00  0.00    +0.000 A 
ATOM     11  C   UNL     1       5.190   4.326  17.729  0.00  0.00    +0.000 A 
ATOM     12  N   UNL     1       4.340   4.837  18.689  0.00  0.00    +0.000 N 
ENDROOT
BRANCH   1  17
ATOM     13  C   UNL     1      -0.421   9.998  19.874  0.00  0.00    +0.000 C 
ATOM     14  C   UNL     1       0.875   9.546  20.527  0.00  0.00    +0.000 C 
ATOM     15  C   UNL     1       0.693   8.985  21.952  0.00  0.00    +0.000 C 
ATOM     16  C   UNL     1       0.924   7.594  21.340  0.00  0.00    +0.000 C 
ATOM     17  N   UNL     1       1.237   8.223  20.090  0.00  0.00    +0.000 N 
BRANCH  15  18
ATOM     18  N   UNL     1       1.828   9.388  22.801  0.00  0.00    +0.000 NA
ATOM     19  H   UNL     1       2.346  10.199  22.460  0.00  0.00    +0.000 HD
ATOM     20  H   UNL     1       2.517   8.652  22.950  0.00  0.00    +0.000 HD
ENDBRANCH  15  18
ENDBRANCH   1  17
BRANCH  12  21
ATOM     21  C   UNL     1       3.987   4.023  19.875  0.00  0.00    +0.000 C 
ATOM     22  C   UNL     1       2.863   3.014  19.935  0.00  0.00    +0.000 C 
ATOM     23  C   UNL     1       4.284   2.543  19.898  0.00  0.00    +0.000 C 
ENDBRANCH  12  21
BRANCH  10  24
ATOM     24  C   UNL     1       6.476   4.243  15.663  0.00  0.00    +0.000 C 
ATOM     25  O   UNL     1       6.103   3.584  14.699  0.00  0.00    +0.000 OA
BRANCH  24  26
ATOM     26  O   UNL     1       7.780   4.396  15.965  0.00  0.00    +0.000 OA
ATOM     27  H   UNL     1       8.398   4.149  15.235  0.00  0.00    +0.000 HD
ENDBRANCH  24  26
ENDBRANCH  10  24
TORSDOF 5
ENDMDL
MODEL 4
REMARK VINA RESULT:      -7.3      0.911      1.001
REMARK  Name = 
REMARK  6 active torsions:
REMARK  status: ('A' for Active; 'I' for Inactive)
REMARK    1  A    between atoms: C_1  and  C_2
REMARK    2  A    between atoms: C_3  and  N_4
REMARK    3  A    between atoms: N_6  and  C_7
REMARK    4  A    between atoms: C_16  and  C_17
REMARK    5  A    between atoms: C_17  and  O_19
REMARK    6  A    between atoms: N_21  and  C_22
REMARK                            x       y       z     vdW  Elec       q    Type
REMARK                         _______ _______ _______ _____ _____    ______ ____
ROOT
ATOM      1  C   UNL     1       1.347   8.746  19.301  0.00  0.00    +0.000 A 
ATOM      2  N   UNL     1       1.705   7.528  19.808  0.00  0.00    +0.000 NA
ATOM      3  C   UNL     1       2.665   6.790  19.184  0.00  0.00    +0.000 A 
ATOM      4  C   UNL     1       3.326   7.282  18.049  0.00  0.00    +0.000 A 
ATOM      5  C   UNL     1       3.006   8.545  17.556  0.00  0.00    +0.000 A 
ATOM      6  C   UNL     1       2.010   9.276  18.186  0.00  0.00    +0.000 A 
ATOM      7  F   UNL     1       1.706  10.485  17.690  0.00  0.00    +0.000 F 
ATOM      8  C   UNL     1       4.344   6.455  17.361  0.00  0.00    +0.000 A 
ATOM      9  O   UNL     1       4.933   6.863  16.365  0.00  0.00    +0.000 OA
ATOM     10  C   UNL     1       4.640   5.110  17.887  0.00  0.00    +0.000 A 
ATOM     11  C   UNL     1       3.952   4.728  18.983  0.00  0.00    +0.000 A 
ATOM     12  N   UNL     1       3.011   5.481  19.656  0.00  0.00    +0.000 N 
ENDROOT
BRANCH   1  17
ATOM     13  C   UNL     1      -1.551  10.666  18.871  0.00  0.00    +0.000 C 
ATOM     14  C   UNL     1      -0.258  10.731  19.669  0.00  0.00    +0.000 C 
ATOM     15  C   UNL     1      -0.470  10.882  21.189  0.00  0.00    +0.000 C 
ATOM     16  C   UNL     1      -0.058   9.405  21.305  0.00  0.00    +0.000 C 
ATOM     17  N   UNL     1       0.265   9.412  19.907  0.00  0.00    +0.000 N 
BRANCH  15  18
ATOM     18  N   UNL     1       0.562  11.768  21.755  0.00  0.00    +0.000 NA
ATOM     19  H   UNL     1       0.626  11.748  22.774  0.00  0.00    +0.000 HD
ATOM     20  H   UNL     1       0.456  12.748  21.495  0.00  0.00    +0.000 HD
ENDBRANCH  15  18
ENDBRANCH   1  17
BRANCH  12  21
ATOM     21  C   UNL     1       2.289   4.902  20.814  0.00  0.00    +0.000 C 
ATOM     22  C   UNL     1       1.091   3.984  20.722  0.00  0.00    +0.000 C 
ATOM     23  C   UNL     1       2.421   3.433  21.135  0.00  0.00    +0.000 C 
ENDBRANCH  12  21
BRANCH  10  24
ATOM     24  C   UNL     1       5.616   4.175  17.293  0.00  0.00    +0.000 C 
ATOM     25  O   UNL     1       5.436   3.601  16.225  0.00  0.00    +0.000 OA
BRANCH  24  26
ATOM     26  O   UNL     1       6.736   4.000  18.021  0.00  0.00    +0.000 OA
ATOM     27  H   UNL     1       6.693   4.383  18.930  0.00  0.00    +0.000 HD
ENDBRANCH  24  26
ENDBRANCH  10  24
TORSDOF 5
ENDMDL
MODEL 5
REMARK VINA RESULT:      -7.2      3.231      6.619
REMARK  Name = 
REMARK  6 active torsions:
REMARK  status: ('A' for Active; 'I' for Inactive)
REMARK    1  A    between atoms: C_1  and  C_2
REMARK    2  A    between atoms: C_3  and  N_4
REMARK    3  A    between atoms: N_6  and  C_7
REMARK    4  A    between atoms: C_16  and  C_17
REMARK    5  A    between atoms: C_17  and  O_19
REMARK    6  A    between atoms: N_21  and  C_22
REMARK                            x       y       z     vdW  Elec       q    Type
REMARK                         _______ _______ _______ _____ _____    ______ ____
ROOT
ATOM      1  C   UNL     1       4.551   5.684  17.471  0.00  0.00    +0.000 A 
ATOM      2  N   UNL     1       3.870   5.254  18.575  0.00  0.00    +0.000 NA
ATOM      3  C   UNL     1       2.981   6.083  19.190  0.00  0.00    +0.000 A 
ATOM      4  C   UNL     1       2.722   7.363  18.678  0.00  0.00    +0.000 A 
ATOM      5  C   UNL     1       3.371   7.791  17.523  0.00  0.00    +0.000 A 
ATOM      6  C   UNL     1       4.291   6.946  16.921  0.00  0.00    +0.000 A 
ATOM      7  F   UNL     1       4.916   7.379  15.816  0.00  0.00    +0.000 F 
ATOM      8  C   UNL     1       1.778   8.267  19.375  0.00  0.00    +0.000 A 
ATOM      9  O   UNL     1       1.537   9.393  18.949  0.00  0.00    +0.000 OA
ATOM     10  C   UNL     1       1.129   7.799  20.613  0.00  0.00    +0.000 A 
ATOM     11  C   UNL     1       1.444   6.553  21.024  0.00  0.00    +0.000 A 
ATOM     12  N   UNL     1       2.305   5.681  20.388  0.00  0.00    +0.000 N 
ENDROOT
BRANCH   1  17
ATOM     13  C   UNL     1       7.800   4.411  17.778  0.00  0.00    +0.000 C 
ATOM     14  C   UNL     1       6.945   5.089  16.719  0.00  0.00    +0.000 C 
ATOM     15  C   UNL     1       6.835   4.293  15.403  0.00  0.00    +0.000 C 
ATOM     16  C   UNL     1       5.402   3.944  15.836  0.00  0.00    +0.000 C 
ATOM     17  N   UNL     1       5.547   4.838  16.949  0.00  0.00    +0.000 N 
BRANCH  15  18
ATOM     18  N   UNL     1       6.833   5.218  14.255  0.00  0.00    +0.000 NA
ATOM     19  H   UNL     1       6.115   5.025  13.556  0.00  0.00    +0.000 HD
ATOM     20  H   UNL     1       7.719   5.255  13.750  0.00  0.00    +0.000 HD
ENDBRANCH  15  18
ENDBRANCH   1  17
BRANCH  12  21
ATOM     21  C   UNL     1       2.602   4.361  20.992  0.00  0.00    +0.000 C 
ATOM     22  C   UNL     1       1.564   3.345  21.415  0.00  0.00    +0.000 C 
ATOM     23  C   UNL     1       2.395   3.096  20.195  0.00  0.00    +0.000 C 
ENDBRANCH  12  21
BRANCH  10  24
ATOM     24  C   UNL     1       0.183   8.599  21.417  0.00  0.00    +0.000 C 
ATOM     25  O   UNL     1      -0.836   8.136  21.917  0.00  0.00    +0.000 OA
BRANCH  24  26
ATOM     26  O   UNL     1       0.531   9.892  21.566  0.00  0.00    +0.000 OA
ATOM     27  H   UNL     1      -0.053  10.527  21.086  0.00  0.00    +0.000 HD
ENDBRANCH  24  26
ENDBRANCH  10  24
TORSDOF 5
ENDMDL
MODEL 6
REMARK VINA RESULT:      -7.1      0.868      1.043
REMARK  Name = 
REMARK  6 active torsions:
REMARK  status: ('A' for Active; 'I' for Inactive)
REMARK    1  A    between atoms: C_1  and  C_2
REMARK    2  A    between atoms: C_3  and  N_4
REMARK    3  A    between atoms: N_6  and  C_7
REMARK    4  A    between atoms: C_16  and  C_17
REMARK    5  A    between atoms: C_17  and  O_19
REMARK    6  A    between atoms: N_21  and  C_22
REMARK                            x       y       z     vdW  Elec       q    Type
REMARK                         _______ _______ _______ _____ _____    ______ ____
ROOT
ATOM      1  C   UNL     1       1.772   8.259  19.382  0.00  0.00    +0.000 A 
ATOM      2  N   UNL     1       2.280   7.046  19.753  0.00  0.00    +0.000 NA
ATOM      3  C   UNL     1       3.225   6.442  18.980  0.00  0.00    +0.000 A 
ATOM      4  C   UNL     1       3.718   7.069  17.826  0.00  0.00    +0.000 A 
ATOM      5  C   UNL     1       3.245   8.329  17.469  0.00  0.00    +0.000 A 
ATOM      6  C   UNL     1       2.266   8.923  18.252  0.00  0.00    +0.000 A 
ATOM      7  F   UNL     1       1.813  10.131  17.886  0.00  0.00    +0.000 F 
ATOM      8  C   UNL     1       4.722   6.387  16.977  0.00  0.00    +0.000 A 
ATOM      9  O   UNL     1       5.165   6.915  15.962  0.00  0.00    +0.000 OA
ATOM     10  C   UNL     1       5.181   5.041  17.363  0.00  0.00    +0.000 A 
ATOM     11  C   UNL     1       4.647   4.522  18.488  0.00  0.00    +0.000 A 
ATOM     12  N   UNL     1       3.725   5.139  19.309  0.00  0.00    +0.000 N 
ENDROOT
BRANCH   1  17
ATOM     13  C   UNL     1      -0.620  10.790  19.767  0.00  0.00    +0.000 C 
ATOM     14  C   UNL     1       0.470  10.127  20.594  0.00  0.00    +0.000 C 
ATOM     15  C   UNL     1      -0.029   9.551  21.935  0.00  0.00    +0.000 C 
ATOM     16  C   UNL     1       0.103   8.163  21.288  0.00  0.00    +0.000 C 
ATOM     17  N   UNL     1       0.709   8.781  20.144  0.00  0.00    +0.000 N 
BRANCH  15  18
ATOM     18  N   UNL     1       0.991   9.750  22.979  0.00  0.00    +0.000 NA
ATOM     19  H   UNL     1       0.747  10.448  23.683  0.00  0.00    +0.000 HD
ATOM     20  H   UNL     1       1.907  10.017  22.619  0.00  0.00    +0.000 HD
ENDBRANCH  15  18
ENDBRANCH   1  17
BRANCH  12  21
ATOM     21  C   UNL     1       3.181   4.419  20.485  0.00  0.00    +0.000 C 
ATOM     22  C   UNL     1       1.866   3.672  20.516  0.00  0.00    +0.000 C 
ATOM     23  C   UNL     1       3.154   2.909  20.507  0.00  0.00    +0.000 C 
ENDBRANCH  12  21
BRANCH  10  24
ATOM     24  C   UNL     1       6.161   4.240  16.602  0.00  0.00    +0.000 C 
ATOM     25  O   UNL     1       7.353   4.519  16.536  0.00  0.00    +0.000 OA
BRANCH  24  26
ATOM     26  O   UNL     1       5.642   3.164  15.982  0.00  0.00    +0.000 OA
ATOM     27  H   UNL     1       4.655   3.134  15.978  0.00  0.00    +0.000 HD
ENDBRANCH  24  26
ENDBRANCH  10  24
TORSDOF 5
ENDMDL
MODEL 7
REMARK VINA RESULT:      -7.0      2.910      6.395
REMARK  Name = 
REMARK  6 active torsions:
REMARK  status: ('A' for Active; 'I' for Inactive)
REMARK    1  A    between atoms: C_1  and  C_2
REMARK    2  A    between atoms: C_3  and  N_4
REMARK    3  A    between atoms: N_6  and  C_7
REMARK    4  A    between atoms: C_16  and  C_17
REMARK    5  A    between atoms: C_17  and  O_19
REMARK    6  A    between atoms: N_21  and  C_22
REMARK                            x       y       z     vdW  Elec       q    Type
REMARK                         _______ _______ _______ _____ _____    ______ ____
ROOT
ATOM      1  C   UNL     1       2.406   6.410  19.536  0.00  0.00    +0.000 A 
ATOM      2  N   UNL     1       1.601   7.224  20.282  0.00  0.00    +0.000 NA
ATOM      3  C   UNL     1       1.395   8.514  19.894  0.00  0.00    +0.000 A 
ATOM      4  C   UNL     1       1.966   9.008  18.712  0.00  0.00    +0.000 A 
ATOM      5  C   UNL     1       2.745   8.171  17.917  0.00  0.00    +0.000 A 
ATOM      6  C   UNL     1       2.966   6.867  18.336  0.00  0.00    +0.000 A 
ATOM      7  F   UNL     1       3.728   6.078  17.564  0.00  0.00    +0.000 F 
ATOM      8  C   UNL     1       1.762  10.421  18.319  0.00  0.00    +0.000 A 
ATOM      9  O   UNL     1       2.253  10.877  17.292  0.00  0.00    +0.000 OA
ATOM     10  C   UNL     1       0.959  11.293  19.196  0.00  0.00    +0.000 A 
ATOM     11  C   UNL     1       0.453  10.725  20.310  0.00  0.00    +0.000 A 
ATOM     12  N   UNL     1       0.611   9.408  20.694  0.00  0.00    +0.000 N 
ENDROOT
BRANCH   1  17
ATOM     13  C   UNL     1       4.148   3.396  19.145  0.00  0.00    +0.000 C 
ATOM     14  C   UNL     1       2.717   3.854  19.376  0.00  0.00    +0.000 C 
ATOM     15  C   UNL     1       2.054   3.226  20.619  0.00  0.00    +0.000 C 
ATOM     16  C   UNL     1       2.232   4.594  21.297  0.00  0.00    +0.000 C 
ATOM     17  N   UNL     1       2.688   5.128  20.045  0.00  0.00    +0.000 N 
BRANCH  15  18
ATOM     18  N   UNL     1       0.633   2.949  20.344  0.00  0.00    +0.000 NA
ATOM     19  H   UNL     1       0.469   2.287  19.585  0.00  0.00    +0.000 HD
ATOM     20  H   UNL     1       0.084   3.779  20.121  0.00  0.00    +0.000 HD
ENDBRANCH  15  18
ENDBRANCH   1  17
BRANCH  12  21
ATOM     21  C   UNL     1       0.046   8.939  21.981  0.00  0.00    +0.000 C 
ATOM     22  C   UNL     1       0.578   9.302  23.349  0.00  0.00    +0.000 C 
ATOM     23  C   UNL     1      -0.713   9.893  22.872  0.00  0.00    +0.000 C 
ENDBRANCH  12  21
BRANCH  10  24
ATOM     24  C   UNL     1       0.689  12.722  18.937  0.00  0.00    +0.000 C 
ATOM     25  O   UNL     1       1.095  13.626  19.658  0.00  0.00    +0.000 OA
BRANCH  24  26
ATOM     26  O   UNL     1      -0.043  12.960  17.832  0.00  0.00    +0.000 OA
ATOM     27  H   UNL     1      -0.395  13.880  17.769  0.00  0.00    +0.000 HD
ENDBRANCH  24  26
ENDBRANCH  10  24
TORSDOF 5
ENDMDL
MODEL 8
REMARK VINA RESULT:      -6.8      3.881      5.791
REMARK  Name = 
REMARK  6 active torsions:
REMARK  status: ('A' for Active; 'I' for Inactive)
REMARK    1  A    between atoms: C_1  and  C_2
REMARK    2  A    between atoms: C_3  and  N_4
REMARK    3  A    between atoms: N_6  and  C_7
REMARK    4  A    between atoms: C_16  and  C_17
REMARK    5  A    between atoms: C_17  and  O_19
REMARK    6  A    between atoms: N_21  and  C_22
REMARK                            x       y       z     vdW  Elec       q    Type
REMARK                         _______ _______ _______ _____ _____    ______ ____
ROOT
ATOM      1  C   UNL     1       3.571   4.118  18.072  0.00  0.00    +0.000 A 
ATOM      2  N   UNL     1       4.551   5.057  17.919  0.00  0.00    +0.000 NA
ATOM      3  C   UNL     1       5.297   5.081  16.779  0.00  0.00    +0.000 A 
ATOM      4  C   UNL     1       5.043   4.177  15.737  0.00  0.00    +0.000 A 
ATOM      5  C   UNL     1       4.011   3.251  15.861  0.00  0.00    +0.000 A 
ATOM      6  C   UNL     1       3.275   3.221  17.036  0.00  0.00    +0.000 A 
ATOM      7  F   UNL     1       2.294   2.314  17.143  0.00  0.00    +0.000 F 
ATOM      8  C   UNL     1       5.882   4.192  14.516  0.00  0.00    +0.000 A 
ATOM      9  O   UNL     1       5.681   3.409  13.592  0.00  0.00    +0.000 OA
ATOM     10  C   UNL     1       6.987   5.163  14.426  0.00  0.00    +0.000 A 
ATOM     11  C   UNL     1       7.150   5.989  15.480  0.00  0.00    +0.000 A 
ATOM     12  N   UNL     1       6.375   6.012  16.622  0.00  0.00    +0.000 N 
ENDROOT
BRANCH   1  17
ATOM     13  C   UNL     1       0.789   3.012  19.891  0.00  0.00    +0.000 C 
ATOM     14  C   UNL     1       1.540   4.312  19.649  0.00  0.00    +0.000 C 
ATOM     15  C   UNL     1       2.019   5.004  20.942  0.00  0.00    +0.000 C 
ATOM     16  C   UNL     1       3.432   4.526  20.570  0.00  0.00    +0.000 C 
ATOM     17  N   UNL     1       2.916   4.056  19.316  0.00  0.00    +0.000 N 
BRANCH  15  18
ATOM     18  N   UNL     1       1.898   6.466  20.803  0.00  0.00    +0.000 NA
ATOM     19  H   UNL     1       2.455   7.003  21.470  0.00  0.00    +0.000 HD
ATOM     20  H   UNL     1       0.943   6.814  20.884  0.00  0.00    +0.000 HD
ENDBRANCH  15  18
ENDBRANCH   1  17
BRANCH  12  21
ATOM     21  C   UNL     1       6.713   6.939  17.728  0.00  0.00    +0.000 C 
ATOM     22  C   UNL     1       7.970   6.870  18.567  0.00  0.00    +0.000 C 
ATOM     23  C   UNL     1       7.809   7.963  17.555  0.00  0.00    +0.000 C 
ENDBRANCH  12  21
BRANCH  10  24
ATOM     24  C   UNL     1       7.910   5.277  13.279  0.00  0.00    +0.000 C 
ATOM     25  O   UNL     1       8.956   5.915  13.316  0.00  0.00    +0.000 OA
BRANCH  24  26
ATOM     26  O   UNL     1       7.514   4.615  12.175  0.00  0.00    +0.000 OA
ATOM     27  H   UNL     1       7.739   5.068  11.327  0.00  0.00    +0.000 HD
ENDBRANCH  24  26
ENDBRANCH  10  24
TORSDOF 5
ENDMDL
MODEL 9
REMARK VINA RESULT:      -6.7      2.456      3.925
REMARK  Name = 
REMARK  6 active torsions:
REMARK  status: ('A' for Active; 'I' for Inactive)
REMARK    1  A    between atoms: C_1  and  C_2
REMARK    2  A    between atoms: C_3  and  N_4
REMARK    3  A    between atoms: N_6  and  C_7
REMARK    4  A    between atoms: C_16  and  C_17
REMARK    5  A    between atoms: C_17  and  O_19
REMARK    6  A    between atoms: N_21  and  C_22
REMARK                            x       y       z     vdW  Elec       q    Type
REMARK                         _______ _______ _______ _____ _____    ______ ____
ROOT
ATOM      1  C   UNL     1       1.416   8.323  19.709  0.00  0.00    +0.000 A 
ATOM      2  N   UNL     1       2.306   7.749  18.845  0.00  0.00    +0.000 NA
ATOM      3  C   UNL     1       2.739   6.476  19.064  0.00  0.00    +0.000 A 
ATOM      4  C   UNL     1       2.249   5.727  20.144  0.00  0.00    +0.000 A 
ATOM      5  C   UNL     1       1.302   6.284  21.000  0.00  0.00    +0.000 A 
ATOM      6  C   UNL     1       0.888   7.589  20.780  0.00  0.00    +0.000 A 
ATOM      7  F   UNL     1      -0.015   8.114  21.621  0.00  0.00    +0.000 F 
ATOM      8  C   UNL     1       2.753   4.355  20.390  0.00  0.00    +0.000 A 
ATOM      9  O   UNL     1       2.342   3.682  21.330  0.00  0.00    +0.000 OA
ATOM     10  C   UNL     1       3.778   3.803  19.486  0.00  0.00    +0.000 A 
ATOM     11  C   UNL     1       4.184   4.601  18.477  0.00  0.00    +0.000 A 
ATOM     12  N   UNL     1       3.723   5.875  18.212  0.00  0.00    +0.000 N 
ENDROOT
BRANCH   1  17
ATOM     13  C   UNL     1      -0.994  10.680  18.759  0.00  0.00    +0.000 C 
ATOM     14  C   UNL     1       0.440  10.322  18.404  0.00  0.00    +0.000 C 
ATOM     15  C   UNL     1       1.430  11.497  18.544  0.00  0.00    +0.000 C 
ATOM     16  C   UNL     1       1.939  10.801  19.817  0.00  0.00    +0.000 C 
ATOM     17  N   UNL     1       1.098   9.680  19.511  0.00  0.00    +0.000 N 
BRANCH  15  18
ATOM     18  N   UNL     1       2.434  11.439  17.468  0.00  0.00    +0.000 NA
ATOM     19  H   UNL     1       2.238  12.047  16.672  0.00  0.00    +0.000 HD
ATOM     20  H   UNL     1       2.579  10.505  17.085  0.00  0.00    +0.000 HD
ENDBRANCH  15  18
ENDBRANCH   1  17
BRANCH  12  21
ATOM     21  C   UNL     1       4.309   6.659  17.099  0.00  0.00    +0.000 C 
ATOM     22  C   UNL     1       5.769   7.030  16.972  0.00  0.00    +0.000 C 
ATOM     23  C   UNL     1       5.187   5.983  16.073  0.00  0.00    +0.000 C 
ENDBRANCH  12  21
BRANCH  10  24
ATOM     24  C   UNL     1       4.379   2.461  19.622  0.00  0.00    +0.000 C 
ATOM     25  O   UNL     1       5.116   2.144  20.549  0.00  0.00    +0.000 OA
BRANCH  24  26
ATOM     26  O   UNL     1       4.050   1.599  18.641  0.00  0.00    +0.000 OA
ATOM     27  H   UNL     1       4.730   0.905  18.465  0.00  0.00    +0.000 HD
ENDBRANCH  24  26
ENDBRANCH  10  24
TORSDOF 5
ENDMDL
