MODEL 1
REMARK VINA RESULT:      -7.8      0.000      0.000
REMARK  Name = 
REMARK  7 active torsions:
REMARK  status: ('A' for Active; 'I' for Inactive)
REMARK    1  A    between atoms: C_1  and  O_2
REMARK    2  A    between atoms: O_2  and  C_3
REMARK    3  A    between atoms: C_7  and  C_8
REMARK    4  A    between atoms: C_8  and  N_9
REMARK    5  A    between atoms: C_15  and  O_16
REMARK    6  A    between atoms: O_16  and  C_17
REMARK    7  A    between atoms: C_17  and  C_18
REMARK                            x       y       z     vdW  Elec       q    Type
REMARK                         _______ _______ _______ _____ _____    ______ ____
ROOT
ATOM      1  C   UNL     1       1.354   8.130  20.180  0.00  0.00    +0.000 A 
ATOM      2  C   UNL     1       1.084   9.288  19.435  0.00  0.00    +0.000 A 
ATOM      3  C   UNL     1       1.699   9.518  18.216  0.00  0.00    +0.000 A 
ATOM      4  C   UNL     1       2.550   8.555  17.694  0.00  0.00    +0.000 A 
ATOM      5  C   UNL     1       2.815   7.344  18.377  0.00  0.00    +0.000 A 
ATOM      6  C   UNL     1       2.264   7.162  19.684  0.00  0.00    +0.000 A 
ENDROOT
BRANCH   1   8
ATOM      7  C   UNL     1      -0.190   9.239  21.685  0.00  0.00    +0.000 C 
ATOM      8  O   UNL     1       0.607   8.125  21.330  0.00  0.00    +0.000 OA
ENDBRANCH   1   8
BRANCH   5   9
ATOM      9  C   UNL     1       3.712   6.374  17.614  0.00  0.00    +0.000 C 
BRANCH   9  10
ATOM     10  N   UNL     1       4.874   5.967  18.370  0.00  0.00    +0.000 N 
ATOM     11  C   UNL     1       5.896   5.383  17.731  0.00  0.00    +0.000 A 
ATOM     12  N   UNL     1       6.078   5.546  16.385  0.00  0.00    +0.000 NA
ATOM     13  C   UNL     1       7.172   4.872  16.139  0.00  0.00    +0.000 A 
ATOM     14  N   UNL     1       7.618   4.313  17.291  0.00  0.00    +0.000 N 
ATOM     15  N   UNL     1       6.813   4.615  18.317  0.00  0.00    +0.000 NA
ATOM     16  H   UNL     1       4.716   5.672  19.318  0.00  0.00    +0.000 HD
ATOM     17  H   UNL     1       8.433   3.730  17.448  0.00  0.00    +0.000 HD
ENDBRANCH   9  10
ENDBRANCH   5   9
BRANCH   6  18
ATOM     18  O   UNL     1       2.528   6.100  20.525  0.00  0.00    +0.000 OA
BRANCH  18  19
ATOM     19  C   UNL     1       1.741   4.927  20.330  0.00  0.00    +0.000 C 
BRANCH  19  20
ATOM     20  C   UNL     1       2.418   3.812  19.598  0.00  0.00    +0.000 A 
ATOM     21  C   UNL     1       3.462   3.083  20.170  0.00  0.00    +0.000 A 
ATOM     22  C   UNL     1       3.992   1.991  19.481  0.00  0.00    +0.000 A 
ATOM     23  C   UNL     1       3.483   1.626  18.231  0.00  0.00    +0.000 A 
ATOM     24  C   UNL     1       2.429   2.337  17.667  0.00  0.00    +0.000 A 
ATOM     25  C   UNL     1       1.903   3.416  18.356  0.00  0.00    +0.000 A 
ATOM     26  F   UNL     1       0.851   4.058  17.824  0.00  0.00    +0.000 F 
ENDBRANCH  19  20
ENDBRANCH  18  19
ENDBRANCH   6  18
TORSDOF 6
ENDMDL
MODEL 2
REMARK VINA RESULT:      -7.7      2.688      5.964
REMARK  Name = 
REMARK  7 active torsions:
REMARK  status: ('A' for Active; 'I' for Inactive)
REMARK    1  A    between atoms: C_1  and  O_2
REMARK    2  A    between atoms: O_2  and  C_3
REMARK    3  A    between atoms: C_7  and  C_8
REMARK    4  A    between atoms: C_8  and  N_9
REMARK    5  A    between atoms: C_15  and  O_16
REMARK    6  A    between atoms: O_16  and  C_17
REMARK    7  A    between atoms: C_17  and  C_18
REMARK                            x       y       z     vdW  Elec       q    Type
REMARK                         _______ _______ _______ _____ _____    ______ ____
ROOT
ATOM      1  C   UNL     1       5.847   6.074  16.813  0.00  0.00    +0.000 A 
ATOM      2  C   UNL     1       6.496   5.558  15.682  0.00  0.00    +0.000 A 
ATOM      3  C   UNL     1       6.307   4.245  15.281  0.00  0.00    +0.000 A 
ATOM      4  C   UNL     1       5.411   3.447  15.976  0.00  0.00    +0.000 A 
ATOM      5  C   UNL     1       4.687   3.933  17.091  0.00  0.00    +0.000 A 
ATOM      6  C   UNL     1       4.969   5.253  17.566  0.00  0.00    +0.000 A 
ENDROOT
BRANCH   1   8
ATOM      7  C   UNL     1       7.438   7.767  17.504  0.00  0.00    +0.000 C 
ATOM      8  O   UNL     1       6.177   7.394  16.984  0.00  0.00    +0.000 OA
ENDBRANCH   1   8
BRANCH   5   9
ATOM      9  C   UNL     1       3.692   2.937  17.678  0.00  0.00    +0.000 C 
BRANCH   9  10
ATOM     10  N   UNL     1       4.070   2.470  18.992  0.00  0.00    +0.000 N 
ATOM     11  C   UNL     1       3.184   2.553  19.994  0.00  0.00    +0.000 A 
ATOM     12  N   UNL     1       1.842   2.646  19.748  0.00  0.00    +0.000 NA
ATOM     13  C   UNL     1       1.312   2.670  20.945  0.00  0.00    +0.000 A 
ATOM     14  N   UNL     1       2.301   2.612  21.870  0.00  0.00    +0.000 N 
ATOM     15  N   UNL     1       3.505   2.550  21.287  0.00  0.00    +0.000 NA
ATOM     16  H   UNL     1       5.038   2.567  19.246  0.00  0.00    +0.000 HD
ATOM     17  H   UNL     1       2.235   2.615  22.882  0.00  0.00    +0.000 HD
ENDBRANCH   9  10
ENDBRANCH   5   9
BRANCH   6  18
ATOM     18  O   UNL     1       4.443   5.823  18.707  0.00  0.00    +0.000 OA
BRANCH  18  19
ATOM     19  C   UNL     1       3.022   5.922  18.769  0.00  0.00    +0.000 C 
BRANCH  19  20
ATOM     20  C   UNL     1       2.476   7.314  18.839  0.00  0.00    +0.000 A 
ATOM     21  C   UNL     1       2.537   8.182  17.749  0.00  0.00    +0.000 A 
ATOM     22  C   UNL     1       1.926   9.434  17.837  0.00  0.00    +0.000 A 
ATOM     23  C   UNL     1       1.256   9.817  19.003  0.00  0.00    +0.000 A 
ATOM     24  C   UNL     1       1.176   8.945  20.084  0.00  0.00    +0.000 A 
ATOM     25  C   UNL     1       1.778   7.702  19.990  0.00  0.00    +0.000 A 
ATOM     26  F   UNL     1       1.646   6.853  21.021  0.00  0.00    +0.000 F 
ENDBRANCH  19  20
ENDBRANCH  18  19
ENDBRANCH   6  18
TORSDOF 6
ENDMDL
MODEL 3
REMARK VINA RESULT:      -7.6      2.733      5.989
REMARK  Name = 
REMARK  7 active torsions:
REMARK  status: ('A' for Active; 'I' for Inactive)
REMARK    1  A    between atoms: C_1  and  O_2
REMARK    2  A    between atoms: O_2  and  C_3
REMARK    3  A    between atoms: C_7  and  C_8
REMARK    4  A    between atoms: C_8  and  N_9
REMARK    5  A    between atoms: C_15  and  O_16
REMARK    6  A    between atoms: O_16  and  C_17
REMARK    7  A    between atoms: C_17  and  C_18
REMARK                            x       y       z     vdW  Elec       q    Type
REMARK                         _______ _______ _______ _____ _____    ______ ____
ROOT
ATOM      1  C   UNL     1       6.051   6.202  16.703  0.00  0.00    +0.000 A 
ATOM      2  C   UNL     1       6.841   5.479  15.797  0.00  0.00    +0.000 A 
ATOM      3  C   UNL     1       6.528   4.175  15.451  0.00  0.00    +0.000 A 
ATOM      4  C   UNL     1       5.375   3.597  15.963  0.00  0.00    +0.000 A 
ATOM      5  C   UNL     1       4.513   4.299  16.838  0.00  0.00    +0.000 A 
ATOM      6  C   UNL     1       4.900   5.604  17.277  0.00  0.00    +0.000 A 
ENDROOT
BRANCH   1   8
ATOM      7  C   UNL     1       7.699   7.703  17.658  0.00  0.00    +0.000 C 
ATOM      8  O   UNL     1       6.554   7.468  16.860  0.00  0.00    +0.000 OA
ENDBRANCH   1   8
BRANCH   5   9
ATOM      9  C   UNL     1       3.256   3.530  17.234  0.00  0.00    +0.000 C 
BRANCH   9  10
ATOM     10  N   UNL     1       3.432   2.743  18.433  0.00  0.00    +0.000 N 
ATOM     11  C   UNL     1       2.701   3.032  19.517  0.00  0.00    +0.000 A 
ATOM     12  N   UNL     1       1.525   3.724  19.416  0.00  0.00    +0.000 NA
ATOM     13  C   UNL     1       1.094   3.779  20.650  0.00  0.00    +0.000 A 
ATOM     14  N   UNL     1       1.987   3.158  21.460  0.00  0.00    +0.000 N 
ATOM     15  N   UNL     1       3.026   2.686  20.762  0.00  0.00    +0.000 NA
ATOM     16  H   UNL     1       4.354   2.377  18.603  0.00  0.00    +0.000 HD
ATOM     17  H   UNL     1       1.958   3.027  22.465  0.00  0.00    +0.000 HD
ENDBRANCH   9  10
ENDBRANCH   5   9
BRANCH   6  18
ATOM     18  O   UNL     1       4.235   6.363  18.219  0.00  0.00    +0.000 OA
BRANCH  18  19
ATOM     19  C   UNL     1       3.238   7.255  17.726  0.00  0.00    +0.000 C 
BRANCH  19  20
ATOM     20  C   UNL     1       2.315   7.822  18.758  0.00  0.00    +0.000 A 
ATOM     21  C   UNL     1       2.169   7.237  20.015  0.00  0.00    +0.000 A 
ATOM     22  C   UNL     1       1.369   7.862  20.973  0.00  0.00    +0.000 A 
ATOM     23  C   UNL     1       0.721   9.066  20.680  0.00  0.00    +0.000 A 
ATOM     24  C   UNL     1       0.882   9.663  19.433  0.00  0.00    +0.000 A 
ATOM     25  C   UNL     1       1.680   9.042  18.489  0.00  0.00    +0.000 A 
ATOM     26  F   UNL     1       1.868   9.658  17.311  0.00  0.00    +0.000 F 
ENDBRANCH  19  20
ENDBRANCH  18  19
ENDBRANCH   6  18
TORSDOF 6
ENDMDL
MODEL 4
REMARK VINA RESULT:      -7.6      1.035      1.419
REMARK  Name = 
REMARK  7 active torsions:
REMARK  status: ('A' for Active; 'I' for Inactive)
REMARK    1  A    between atoms: C_1  and  O_2
REMARK    2  A    between atoms: O_2  and  C_3
REMARK    3  A    between atoms: C_7  and  C_8
REMARK    4  A    between atoms: C_8  and  N_9
REMARK    5  A    between atoms: C_15  and  O_16
REMARK    6  A    between atoms: O_16  and  C_17
REMARK    7  A    between atoms: C_17  and  C_18
REMARK                            x       y       z     vdW  Elec       q    Type
REMARK                         _______ _______ _______ _____ _____    ______ ____
ROOT
ATOM      1  C   UNL     1       1.090   8.321  20.292  0.00  0.00    +0.000 A 
ATOM      2  C   UNL     1       0.890   9.504  19.566  0.00  0.00    +0.000 A 
ATOM      3  C   UNL     1       1.584   9.755  18.394  0.00  0.00    +0.000 A 
ATOM      4  C   UNL     1       2.446   8.788  17.898  0.00  0.00    +0.000 A 
ATOM      5  C   UNL     1       2.644   7.553  18.560  0.00  0.00    +0.000 A 
ATOM      6  C   UNL     1       2.010   7.347  19.825  0.00  0.00    +0.000 A 
ENDROOT
BRANCH   1   8
ATOM      7  C   UNL     1       0.055   9.468  22.160  0.00  0.00    +0.000 C 
ATOM      8  O   UNL     1       0.274   8.300  21.394  0.00  0.00    +0.000 OA
ENDBRANCH   1   8
BRANCH   5   9
ATOM      9  C   UNL     1       3.567   6.586  17.824  0.00  0.00    +0.000 C 
BRANCH   9  10
ATOM     10  N   UNL     1       4.507   5.927  18.701  0.00  0.00    +0.000 N 
ATOM     11  C   UNL     1       5.600   5.356  18.177  0.00  0.00    +0.000 A 
ATOM     12  N   UNL     1       6.077   5.732  16.951  0.00  0.00    +0.000 NA
ATOM     13  C   UNL     1       7.149   4.995  16.801  0.00  0.00    +0.000 A 
ATOM     14  N   UNL     1       7.295   4.198  17.887  0.00  0.00    +0.000 N 
ATOM     15  N   UNL     1       6.312   4.401  18.772  0.00  0.00    +0.000 NA
ATOM     16  H   UNL     1       4.129   5.490  19.524  0.00  0.00    +0.000 HD
ATOM     17  H   UNL     1       8.014   3.510  18.086  0.00  0.00    +0.000 HD
ENDBRANCH   9  10
ENDBRANCH   5   9
BRANCH   6  18
ATOM     18  O   UNL     1       2.200   6.256  20.649  0.00  0.00    +0.000 OA
BRANCH  18  19
ATOM     19  C   UNL     1       1.308   5.159  20.464  0.00  0.00    +0.000 C 
BRANCH  19  20
ATOM     20  C   UNL     1       1.840   4.029  19.640  0.00  0.00    +0.000 A 
ATOM     21  C   UNL     1       1.560   3.917  18.278  0.00  0.00    +0.000 A 
ATOM     22  C   UNL     1       2.161   2.898  17.537  0.00  0.00    +0.000 A 
ATOM     23  C   UNL     1       3.039   1.998  18.149  0.00  0.00    +0.000 A 
ATOM     24  C   UNL     1       3.336   2.120  19.503  0.00  0.00    +0.000 A 
ATOM     25  C   UNL     1       2.742   3.135  20.232  0.00  0.00    +0.000 A 
ATOM     26  F   UNL     1       3.081   3.272  21.524  0.00  0.00    +0.000 F 
ENDBRANCH  19  20
ENDBRANCH  18  19
ENDBRANCH   6  18
TORSDOF 6
ENDMDL
MODEL 5
REMARK VINA RESULT:      -7.5      2.932      5.930
REMARK  Name = 
REMARK  7 active torsions:
REMARK  status: ('A' for Active; 'I' for Inactive)
REMARK    1  A    between atoms: C_1  and  O_2
REMARK    2  A    between atoms: O_2  and  C_3
REMARK    3  A    between atoms: C_7  and  C_8
REMARK    4  A    between atoms: C_8  and  N_9
REMARK    5  A    between atoms: C_15  and  O_16
REMARK    6  A    between atoms: O_16  and  C_17
REMARK    7  A    between atoms: C_17  and  C_18
REMARK                            x       y       z     vdW  Elec       q    Type
REMARK                         _______ _______ _______ _____ _____    ______ ____
ROOT
ATOM      1  C   UNL     1       2.350   3.228  18.862  0.00  0.00    +0.000 A 
ATOM      2  C   UNL     1       1.907   2.564  20.015  0.00  0.00    +0.000 A 
ATOM      3  C   UNL     1       1.655   3.253  21.190  0.00  0.00    +0.000 A 
ATOM      4  C   UNL     1       1.783   4.634  21.205  0.00  0.00    +0.000 A 
ATOM      5  C   UNL     1       2.173   5.361  20.054  0.00  0.00    +0.000 A 
ATOM      6  C   UNL     1       2.539   4.634  18.879  0.00  0.00    +0.000 A 
ENDROOT
BRANCH   1   8
ATOM      7  C   UNL     1       3.597   1.437  17.805  0.00  0.00    +0.000 C 
ATOM      8  O   UNL     1       2.504   2.334  17.833  0.00  0.00    +0.000 OA
ENDBRANCH   1   8
BRANCH   5   9
ATOM      9  C   UNL     1       2.184   6.875  20.240  0.00  0.00    +0.000 C 
BRANCH   9  10
ATOM     10  N   UNL     1       2.480   7.591  19.021  0.00  0.00    +0.000 N 
ATOM     11  C   UNL     1       1.795   8.706  18.735  0.00  0.00    +0.000 A 
ATOM     12  N   UNL     1       1.160   9.419  19.715  0.00  0.00    +0.000 NA
ATOM     13  C   UNL     1       0.646  10.435  19.071  0.00  0.00    +0.000 A 
ATOM     14  N   UNL     1       0.948  10.324  17.754  0.00  0.00    +0.000 N 
ATOM     15  N   UNL     1       1.669   9.223  17.514  0.00  0.00    +0.000 NA
ATOM     16  H   UNL     1       2.781   7.040  18.235  0.00  0.00    +0.000 HD
ATOM     17  H   UNL     1       0.700  10.938  16.985  0.00  0.00    +0.000 HD
ENDBRANCH   9  10
ENDBRANCH   5   9
BRANCH   6  18
ATOM     18  O   UNL     1       3.055   5.185  17.723  0.00  0.00    +0.000 OA
BRANCH  18  19
ATOM     19  C   UNL     1       4.317   4.681  17.290  0.00  0.00    +0.000 C 
BRANCH  19  20
ATOM     20  C   UNL     1       5.511   5.460  17.745  0.00  0.00    +0.000 A 
ATOM     21  C   UNL     1       6.291   5.047  18.824  0.00  0.00    +0.000 A 
ATOM     22  C   UNL     1       7.449   5.758  19.144  0.00  0.00    +0.000 A 
ATOM     23  C   UNL     1       7.828   6.873  18.390  0.00  0.00    +0.000 A 
ATOM     24  C   UNL     1       7.064   7.275  17.300  0.00  0.00    +0.000 A 
ATOM     25  C   UNL     1       5.919   6.563  16.983  0.00  0.00    +0.000 A 
ATOM     26  F   UNL     1       5.223   6.932  15.897  0.00  0.00    +0.000 F 
ENDBRANCH  19  20
ENDBRANCH  18  19
ENDBRANCH   6  18
TORSDOF 6
ENDMDL
MODEL 6
REMARK VINA RESULT:      -7.5      3.383      6.326
REMARK  Name = 
REMARK  7 active torsions:
REMARK  status: ('A' for Active; 'I' for Inactive)
REMARK    1  A    between atoms: C_1  and  O_2
REMARK    2  A    between atoms: O_2  and  C_3
REMARK    3  A    between atoms: C_7  and  C_8
REMARK    4  A    between atoms: C_8  and  N_9
REMARK    5  A    between atoms: C_15  and  O_16
REMARK    6  A    between atoms: O_16  and  C_17
REMARK    7  A    between atoms: C_17  and  C_18
REMARK                            x       y       z     vdW  Elec       q    Type
REMARK                         _______ _______ _______ _____ _____    ______ ____
ROOT
ATOM      1  C   UNL     1       2.454   3.621  18.770  0.00  0.00    +0.000 A 
ATOM      2  C   UNL     1       1.964   3.038  19.948  0.00  0.00    +0.000 A 
ATOM      3  C   UNL     1       1.646   3.810  21.053  0.00  0.00    +0.000 A 
ATOM      4  C   UNL     1       1.755   5.190  20.970  0.00  0.00    +0.000 A 
ATOM      5  C   UNL     1       2.191   5.834  19.788  0.00  0.00    +0.000 A 
ATOM      6  C   UNL     1       2.623   5.027  18.689  0.00  0.00    +0.000 A 
ENDROOT
BRANCH   1   8
ATOM      7  C   UNL     1       3.497   1.540  18.091  0.00  0.00    +0.000 C 
ATOM      8  O   UNL     1       2.670   2.655  17.821  0.00  0.00    +0.000 OA
ENDBRANCH   1   8
BRANCH   5   9
ATOM      9  C   UNL     1       2.173   7.358  19.859  0.00  0.00    +0.000 C 
BRANCH   9  10
ATOM     10  N   UNL     1       1.809   7.858  21.164  0.00  0.00    +0.000 N 
ATOM     11  C   UNL     1       1.082   8.979  21.255  0.00  0.00    +0.000 A 
ATOM     12  N   UNL     1       0.321   9.418  20.205  0.00  0.00    +0.000 NA
ATOM     13  C   UNL     1      -0.256  10.495  20.674  0.00  0.00    +0.000 A 
ATOM     14  N   UNL     1       0.157  10.701  21.949  0.00  0.00    +0.000 N 
ATOM     15  N   UNL     1       1.021   9.754  22.336  0.00  0.00    +0.000 NA
ATOM     16  H   UNL     1       2.460   7.689  21.912  0.00  0.00    +0.000 HD
ATOM     17  H   UNL     1      -0.094  11.443  22.593  0.00  0.00    +0.000 HD
ENDBRANCH   9  10
ENDBRANCH   5   9
BRANCH   6  18
ATOM     18  O   UNL     1       3.189   5.498  17.521  0.00  0.00    +0.000 OA
BRANCH  18  19
ATOM     19  C   UNL     1       4.388   4.856  17.094  0.00  0.00    +0.000 C 
BRANCH  19  20
ATOM     20  C   UNL     1       5.660   5.491  17.562  0.00  0.00    +0.000 A 
ATOM     21  C   UNL     1       6.236   6.567  16.887  0.00  0.00    +0.000 A 
ATOM     22  C   UNL     1       7.369   7.183  17.421  0.00  0.00    +0.000 A 
ATOM     23  C   UNL     1       7.921   6.732  18.624  0.00  0.00    +0.000 A 
ATOM     24  C   UNL     1       7.336   5.673  19.311  0.00  0.00    +0.000 A 
ATOM     25  C   UNL     1       6.210   5.068  18.779  0.00  0.00    +0.000 A 
ATOM     26  F   UNL     1       5.627   4.084  19.481  0.00  0.00    +0.000 F 
ENDBRANCH  19  20
ENDBRANCH  18  19
ENDBRANCH   6  18
TORSDOF 6
ENDMDL
MODEL 7
REMARK VINA RESULT:      -7.4      1.301      1.623
REMARK  Name = 
REMARK  7 active torsions:
REMARK  status: ('A' for Active; 'I' for Inactive)
REMARK    1  A    between atoms: C_1  and  O_2
REMARK    2  A    between atoms: O_2  and  C_3
REMARK    3  A    between atoms: C_7  and  C_8
REMARK    4  A    between atoms: C_8  and  N_9
REMARK    5  A    between atoms: C_15  and  O_16
REMARK    6  A    between atoms: O_16  and  C_17
REMARK    7  A    between atoms: C_17  and  C_18
REMARK                            x       y       z     vdW  Elec       q    Type
REMARK                         _______ _______ _______ _____ _____    ______ ____
ROOT
ATOM      1  C   UNL     1       1.425   8.144  20.081  0.00  0.00    +0.000 A 
ATOM      2  C   UNL     1       1.208   9.308  19.328  0.00  0.00    +0.000 A 
ATOM      3  C   UNL     1       1.867   9.521  18.129  0.00  0.00    +0.000 A 
ATOM      4  C   UNL     1       2.708   8.535  17.634  0.00  0.00    +0.000 A 
ATOM      5  C   UNL     1       2.920   7.318  18.325  0.00  0.00    +0.000 A 
ATOM      6  C   UNL     1       2.324   7.152  19.614  0.00  0.00    +0.000 A 
ENDROOT
BRANCH   1   8
ATOM      7  C   UNL     1       0.366   9.370  21.885  0.00  0.00    +0.000 C 
ATOM      8  O   UNL     1       0.642   8.160  21.207  0.00  0.00    +0.000 OA
ENDBRANCH   1   8
BRANCH   5   9
ATOM      9  C   UNL     1       3.815   6.325  17.589  0.00  0.00    +0.000 C 
BRANCH   9  10
ATOM     10  N   UNL     1       5.124   6.857  17.293  0.00  0.00    +0.000 N 
ATOM     11  C   UNL     1       5.928   6.187  16.457  0.00  0.00    +0.000 A 
ATOM     12  N   UNL     1       5.424   5.287  15.558  0.00  0.00    +0.000 NA
ATOM     13  C   UNL     1       6.483   4.876  14.909  0.00  0.00    +0.000 A 
ATOM     14  N   UNL     1       7.580   5.493  15.413  0.00  0.00    +0.000 N 
ATOM     15  N   UNL     1       7.252   6.324  16.409  0.00  0.00    +0.000 NA
ATOM     16  H   UNL     1       5.579   7.376  18.026  0.00  0.00    +0.000 HD
ATOM     17  H   UNL     1       8.552   5.397  15.141  0.00  0.00    +0.000 HD
ENDBRANCH   9  10
ENDBRANCH   5   9
BRANCH   6  18
ATOM     18  O   UNL     1       2.534   6.084  20.463  0.00  0.00    +0.000 OA
BRANCH  18  19
ATOM     19  C   UNL     1       1.625   4.992  20.343  0.00  0.00    +0.000 C 
BRANCH  19  20
ATOM     20  C   UNL     1       2.097   3.853  19.494  0.00  0.00    +0.000 A 
ATOM     21  C   UNL     1       1.785   3.769  18.137  0.00  0.00    +0.000 A 
ATOM     22  C   UNL     1       2.332   2.737  17.372  0.00  0.00    +0.000 A 
ATOM     23  C   UNL     1       3.187   1.797  17.956  0.00  0.00    +0.000 A 
ATOM     24  C   UNL     1       3.517   1.891  19.304  0.00  0.00    +0.000 A 
ATOM     25  C   UNL     1       2.976   2.918  20.057  0.00  0.00    +0.000 A 
ATOM     26  F   UNL     1       3.346   3.026  21.343  0.00  0.00    +0.000 F 
ENDBRANCH  19  20
ENDBRANCH  18  19
ENDBRANCH   6  18
TORSDOF 6
ENDMDL
MODEL 8
REMARK VINA RESULT:      -7.4      1.123      1.123
REMARK  Name = 
REMARK  7 active torsions:
REMARK  status: ('A' for Active; 'I' for Inactive)
REMARK    1  A    between atoms: C_1  and  O_2
REMARK    2  A    between atoms: O_2  and  C_3
REMARK    3  A    between atoms: C_7  and  C_8
REMARK    4  A    between atoms: C_8  and  N_9
REMARK    5  A    between atoms: C_15  and  O_16
REMARK    6  A    between atoms: O_16  and  C_17
REMARK    7  A    between atoms: C_17  and  C_18
REMARK                            x       y       z     vdW  Elec       q    Type
REMARK                         _______ _______ _______ _____ _____    ______ ____
ROOT
ATOM      1  C   UNL     1       1.441   8.273  20.066  0.00  0.00    +0.000 A 
ATOM      2  C   UNL     1       1.131   9.375  19.254  0.00  0.00    +0.000 A 
ATOM      3  C   UNL     1       1.705   9.530  18.003  0.00  0.00    +0.000 A 
ATOM      4  C   UNL     1       2.553   8.544  17.520  0.00  0.00    +0.000 A 
ATOM      5  C   UNL     1       2.857   7.385  18.273  0.00  0.00    +0.000 A 
ATOM      6  C   UNL     1       2.350   7.285  19.607  0.00  0.00    +0.000 A 
ENDROOT
BRANCH   1   8
ATOM      7  C   UNL     1       1.178   9.130  22.318  0.00  0.00    +0.000 C 
ATOM      8  O   UNL     1       0.730   8.336  21.236  0.00  0.00    +0.000 OA
ENDBRANCH   1   8
BRANCH   5   9
ATOM      9  C   UNL     1       3.744   6.378  17.548  0.00  0.00    +0.000 C 
BRANCH   9  10
ATOM     10  N   UNL     1       5.077   6.876  17.300  0.00  0.00    +0.000 N 
ATOM     11  C   UNL     1       5.879   6.206  16.461  0.00  0.00    +0.000 A 
ATOM     12  N   UNL     1       5.368   5.351  15.523  0.00  0.00    +0.000 NA
ATOM     13  C   UNL     1       6.430   4.925  14.887  0.00  0.00    +0.000 A 
ATOM     14  N   UNL     1       7.533   5.491  15.435  0.00  0.00    +0.000 N 
ATOM     15  N   UNL     1       7.207   6.301  16.449  0.00  0.00    +0.000 NA
ATOM     16  H   UNL     1       5.529   7.357  18.059  0.00  0.00    +0.000 HD
ATOM     17  H   UNL     1       8.508   5.372  15.183  0.00  0.00    +0.000 HD
ENDBRANCH   9  10
ENDBRANCH   5   9
BRANCH   6  18
ATOM     18  O   UNL     1       2.655   6.285  20.508  0.00  0.00    +0.000 OA
BRANCH  18  19
ATOM     19  C   UNL     1       1.806   5.139  20.494  0.00  0.00    +0.000 C 
BRANCH  19  20
ATOM     20  C   UNL     1       2.362   3.936  19.799  0.00  0.00    +0.000 A 
ATOM     21  C   UNL     1       3.734   3.703  19.716  0.00  0.00    +0.000 A 
ATOM     22  C   UNL     1       4.194   2.516  19.142  0.00  0.00    +0.000 A 
ATOM     23  C   UNL     1       3.290   1.566  18.657  0.00  0.00    +0.000 A 
ATOM     24  C   UNL     1       1.920   1.786  18.757  0.00  0.00    +0.000 A 
ATOM     25  C   UNL     1       1.469   2.962  19.332  0.00  0.00    +0.000 A 
ATOM     26  F   UNL     1       0.145   3.134  19.469  0.00  0.00    +0.000 F 
ENDBRANCH  19  20
ENDBRANCH  18  19
ENDBRANCH   6  18
TORSDOF 6
ENDMDL
MODEL 9
REMARK VINA RESULT:      -7.4      1.033      1.245
REMARK  Name = 
REMARK  7 active torsions:
REMARK  status: ('A' for Active; 'I' for Inactive)
REMARK    1  A    between atoms: C_1  and  O_2
REMARK    2  A    between atoms: O_2  and  C_3
REMARK    3  A    between atoms: C_7  and  C_8
REMARK    4  A    between atoms: C_8  and  N_9
REMARK    5  A    between atoms: C_15  and  O_16
REMARK    6  A    between atoms: O_16  and  C_17
REMARK    7  A    between atoms: C_17  and  C_18
REMARK                            x       y       z     vdW  Elec       q    Type
REMARK                         _______ _______ _______ _____ _____    ______ ____
ROOT
ATOM      1  C   UNL     1       1.499   8.142  20.171  0.00  0.00    +0.000 A 
ATOM      2  C   UNL     1       1.198   9.296  19.431  0.00  0.00    +0.000 A 
ATOM      3  C   UNL     1       1.724   9.496  18.166  0.00  0.00    +0.000 A 
ATOM      4  C   UNL     1       2.512   8.507  17.595  0.00  0.00    +0.000 A 
ATOM      5  C   UNL     1       2.802   7.299  18.274  0.00  0.00    +0.000 A 
ATOM      6  C   UNL     1       2.348   7.147  19.622  0.00  0.00    +0.000 A 
ENDROOT
BRANCH   1   8
ATOM      7  C   UNL     1       0.808   9.345  22.159  0.00  0.00    +0.000 C 
ATOM      8  O   UNL     1       0.842   8.169  21.373  0.00  0.00    +0.000 OA
ENDBRANCH   1   8
BRANCH   5   9
ATOM      9  C   UNL     1       3.617   6.299  17.459  0.00  0.00    +0.000 C 
BRANCH   9  10
ATOM     10  N   UNL     1       4.777   6.893  16.836  0.00  0.00    +0.000 N 
ATOM     11  C   UNL     1       5.967   6.793  17.444  0.00  0.00    +0.000 A 
ATOM     12  N   UNL     1       6.211   5.816  18.369  0.00  0.00    +0.000 NA
ATOM     13  C   UNL     1       7.461   6.014  18.703  0.00  0.00    +0.000 A 
ATOM     14  N   UNL     1       7.940   7.081  18.016  0.00  0.00    +0.000 N 
ATOM     15  N   UNL     1       7.001   7.602  17.217  0.00  0.00    +0.000 NA
ATOM     16  H   UNL     1       4.624   7.726  16.294  0.00  0.00    +0.000 HD
ATOM     17  H   UNL     1       8.863   7.500  18.044  0.00  0.00    +0.000 HD
ENDBRANCH   9  10
ENDBRANCH   5   9
BRANCH   6  18
ATOM     18  O   UNL     1       2.652   6.090  20.455  0.00  0.00    +0.000 OA
BRANCH  18  19
ATOM     19  C   UNL     1       1.844   4.923  20.318  0.00  0.00    +0.000 C 
BRANCH  19  20
ATOM     20  C   UNL     1       2.483   3.781  19.592  0.00  0.00    +0.000 A 
ATOM     21  C   UNL     1       3.488   3.009  20.174  0.00  0.00    +0.000 A 
ATOM     22  C   UNL     1       3.980   1.896  19.489  0.00  0.00    +0.000 A 
ATOM     23  C   UNL     1       3.470   1.553  18.233  0.00  0.00    +0.000 A 
ATOM     24  C   UNL     1       2.452   2.309  17.659  0.00  0.00    +0.000 A 
ATOM     25  C   UNL     1       1.964   3.408  18.344  0.00  0.00    +0.000 A 
ATOM     26  F   UNL     1       0.946   4.094  17.801  0.00  0.00    +0.000 F 
ENDBRANCH  19  20
ENDBRANCH  18  19
ENDBRANCH   6  18
TORSDOF 6
ENDMDL
