MODEL 1
REMARK VINA RESULT:      -8.8      0.000      0.000
REMARK  Name = 
REMARK  8 active torsions:
REMARK  status: ('A' for Active; 'I' for Inactive)
REMARK    1  A    between atoms: C_1  and  C_2
REMARK    2  A    between atoms: C_5  and  S_6
REMARK    3  A    between atoms: S_6  and  N_9
REMARK    4  A    between atoms: N_9  and  C_10
REMARK    5  A    between atoms: C_10  and  C_11
REMARK    6  A    between atoms: C_11  and  N_12
REMARK    7  A    between atoms: C_11  and  C_20
REMARK    8  A    between atoms: N_12  and  C_13
REMARK                            x       y       z     vdW  Elec       q    Type
REMARK                         _______ _______ _______ _____ _____    ______ ____
ROOT
ATOM      1  C   UNL     1       2.483   6.292  18.858  0.00  0.00    +0.000 C 
ENDROOT
BRANCH   1   2
ATOM      2  C   UNL     1       2.022   4.865  19.151  0.00  0.00    +0.000 A 
ATOM      3  C   UNL     1       1.709   3.944  18.140  0.00  0.00    +0.000 A 
ATOM      4  C   UNL     1       1.085   2.732  18.455  0.00  0.00    +0.000 A 
ATOM      5  C   UNL     1       0.790   2.414  19.779  0.00  0.00    +0.000 A 
ATOM      6  C   UNL     1       1.172   3.279  20.799  0.00  0.00    +0.000 A 
ATOM      7  C   UNL     1       1.797   4.487  20.488  0.00  0.00    +0.000 A 
ENDBRANCH   1   2
BRANCH   1   8
ATOM      8  N   UNL     1       2.523   7.086  20.103  0.00  0.00    +0.000 N 
ATOM      9  H   UNL     1       3.475   7.309  20.385  0.00  0.00    +0.000 HD
BRANCH   8  10
ATOM     10  C   UNL     1       1.657   8.185  20.223  0.00  0.00    +0.000 A 
ATOM     11  C   UNL     1       1.334   9.010  19.134  0.00  0.00    +0.000 A 
ATOM     12  C   UNL     1       0.466  10.099  19.265  0.00  0.00    +0.000 A 
ATOM     13  C   UNL     1      -0.141  10.357  20.487  0.00  0.00    +0.000 A 
ATOM     14  C   UNL     1       0.103   9.504  21.560  0.00  0.00    +0.000 A 
ATOM     15 CL   UNL     1      -0.695   9.787  23.059  0.00  0.00    +0.000 Cl
ATOM     16  C   UNL     1       0.984   8.422  21.431  0.00  0.00    +0.000 A 
ENDBRANCH   8  10
ENDBRANCH   1   8
BRANCH   1  17
ATOM     17  C   UNL     1       3.856   6.337  18.121  0.00  0.00    +0.000 C 
BRANCH  17  18
ATOM     18  N   UNL     1       5.000   6.179  19.057  0.00  0.00    +0.000 NA
ATOM     19  H   UNL     1       5.583   7.010  19.197  0.00  0.00    +0.000 HD
BRANCH  18  20
ATOM     20  S   UNL     1       5.974   4.822  18.858  0.00  0.00    +0.000 S 
ATOM     21  O   UNL     1       5.224   3.720  19.423  0.00  0.00    +0.000 OA
ATOM     22  O   UNL     1       7.307   5.144  19.326  0.00  0.00    +0.000 OA
BRANCH  20  27
ATOM     23  C   UNL     1       6.335   3.818  12.875  0.00  0.00    +0.000 C 
ATOM     24  C   UNL     1       6.233   4.092  14.348  0.00  0.00    +0.000 A 
ATOM     25  C   UNL     1       7.160   4.924  14.989  0.00  0.00    +0.000 A 
ATOM     26  C   UNL     1       7.064   5.171  16.360  0.00  0.00    +0.000 A 
ATOM     27  C   UNL     1       6.025   4.593  17.099  0.00  0.00    +0.000 A 
ATOM     28  C   UNL     1       5.105   3.747  16.476  0.00  0.00    +0.000 A 
ATOM     29  C   UNL     1       5.208   3.503  15.102  0.00  0.00    +0.000 A 
ENDBRANCH  20  27
ENDBRANCH  18  20
ENDBRANCH  17  18
ENDBRANCH   1  17
TORSDOF 7
ENDMDL
MODEL 2
REMARK VINA RESULT:      -8.6      0.682      1.528
REMARK  Name = 
REMARK  8 active torsions:
REMARK  status: ('A' for Active; 'I' for Inactive)
REMARK    1  A    between atoms: C_1  and  C_2
REMARK    2  A    between atoms: C_5  and  S_6
REMARK    3  A    between atoms: S_6  and  N_9
REMARK    4  A    between atoms: N_9  and  C_10
REMARK    5  A    between atoms: C_10  and  C_11
REMARK    6  A    between atoms: C_11  and  N_12
REMARK    7  A    between atoms: C_11  and  C_20
REMARK    8  A    between atoms: N_12  and  C_13
REMARK                            x       y       z     vdW  Elec       q    Type
REMARK                         _______ _______ _______ _____ _____    ______ ____
ROOT
ATOM      1  C   UNL     1       2.531   6.333  18.617  0.00  0.00    +0.000 C 
ENDROOT
BRANCH   1   2
ATOM      2  C   UNL     1       1.983   4.935  18.896  0.00  0.00    +0.000 A 
ATOM      3  C   UNL     1       1.506   4.543  20.157  0.00  0.00    +0.000 A 
ATOM      4  C   UNL     1       1.222   3.198  20.419  0.00  0.00    +0.000 A 
ATOM      5  C   UNL     1       1.386   2.236  19.426  0.00  0.00    +0.000 A 
ATOM      6  C   UNL     1       1.777   2.621  18.147  0.00  0.00    +0.000 A 
ATOM      7  C   UNL     1       2.058   3.963  17.882  0.00  0.00    +0.000 A 
ENDBRANCH   1   2
BRANCH   1   8
ATOM      8  N   UNL     1       2.608   7.116  19.867  0.00  0.00    +0.000 N 
ATOM      9  H   UNL     1       3.564   7.378  20.098  0.00  0.00    +0.000 HD
BRANCH   8  10
ATOM     10  C   UNL     1       1.703   8.175  20.050  0.00  0.00    +0.000 A 
ATOM     11  C   UNL     1       1.330   9.033  19.003  0.00  0.00    +0.000 A 
ATOM     12  C   UNL     1       0.424  10.081  19.197  0.00  0.00    +0.000 A 
ATOM     13  C   UNL     1      -0.170  10.263  20.439  0.00  0.00    +0.000 A 
ATOM     14  C   UNL     1       0.125   9.374  21.469  0.00  0.00    +0.000 A 
ATOM     15 CL   UNL     1      -0.656   9.561  22.992  0.00  0.00    +0.000 Cl
ATOM     16  C   UNL     1       1.044   8.333  21.278  0.00  0.00    +0.000 A 
ENDBRANCH   8  10
ENDBRANCH   1   8
BRANCH   1  17
ATOM     17  C   UNL     1       3.911   6.300  17.892  0.00  0.00    +0.000 C 
BRANCH  17  18
ATOM     18  N   UNL     1       4.931   5.545  18.664  0.00  0.00    +0.000 NA
ATOM     19  H   UNL     1       4.920   5.683  19.679  0.00  0.00    +0.000 HD
BRANCH  18  20
ATOM     20  S   UNL     1       6.515   5.593  18.096  0.00  0.00    +0.000 S 
ATOM     21  O   UNL     1       7.251   4.659  18.922  0.00  0.00    +0.000 OA
ATOM     22  O   UNL     1       6.918   6.981  17.987  0.00  0.00    +0.000 OA
BRANCH  20  27
ATOM     23  C   UNL     1       5.927   3.419  12.452  0.00  0.00    +0.000 C 
ATOM     24  C   UNL     1       6.087   3.931  13.854  0.00  0.00    +0.000 A 
ATOM     25  C   UNL     1       5.242   3.489  14.881  0.00  0.00    +0.000 A 
ATOM     26  C   UNL     1       5.392   3.973  16.182  0.00  0.00    +0.000 A 
ATOM     27  C   UNL     1       6.401   4.900  16.467  0.00  0.00    +0.000 A 
ATOM     28  C   UNL     1       7.238   5.363  15.449  0.00  0.00    +0.000 A 
ATOM     29  C   UNL     1       7.082   4.874  14.148  0.00  0.00    +0.000 A 
ENDBRANCH  20  27
ENDBRANCH  18  20
ENDBRANCH  17  18
ENDBRANCH   1  17
TORSDOF 7
ENDMDL
MODEL 3
REMARK VINA RESULT:      -8.5      1.344      1.653
REMARK  Name = 
REMARK  8 active torsions:
REMARK  status: ('A' for Active; 'I' for Inactive)
REMARK    1  A    between atoms: C_1  and  C_2
REMARK    2  A    between atoms: C_5  and  S_6
REMARK    3  A    between atoms: S_6  and  N_9
REMARK    4  A    between atoms: N_9  and  C_10
REMARK    5  A    between atoms: C_10  and  C_11
REMARK    6  A    between atoms: C_11  and  N_12
REMARK    7  A    between atoms: C_11  and  C_20
REMARK    8  A    between atoms: N_12  and  C_13
REMARK                            x       y       z     vdW  Elec       q    Type
REMARK                         _______ _______ _______ _____ _____    ______ ____
ROOT
ATOM      1  C   UNL     1       3.333   5.805  18.841  0.00  0.00    +0.000 C 
ENDROOT
BRANCH   1   2
ATOM      2  C   UNL     1       2.803   4.374  18.906  0.00  0.00    +0.000 A 
ATOM      3  C   UNL     1       3.497   3.280  18.364  0.00  0.00    +0.000 A 
ATOM      4  C   UNL     1       2.874   2.032  18.252  0.00  0.00    +0.000 A 
ATOM      5  C   UNL     1       1.567   1.854  18.699  0.00  0.00    +0.000 A 
ATOM      6  C   UNL     1       0.897   2.905  19.315  0.00  0.00    +0.000 A 
ATOM      7  C   UNL     1       1.516   4.151  19.431  0.00  0.00    +0.000 A 
ENDBRANCH   1   2
BRANCH   1   8
ATOM      8  N   UNL     1       2.804   6.601  19.967  0.00  0.00    +0.000 N 
ATOM      9  H   UNL     1       3.483   6.703  20.718  0.00  0.00    +0.000 HD
BRANCH   8  10
ATOM     10  C   UNL     1       2.137   7.804  19.680  0.00  0.00    +0.000 A 
ATOM     11  C   UNL     1       2.151   8.384  18.402  0.00  0.00    +0.000 A 
ATOM     12  C   UNL     1       1.480   9.580  18.128  0.00  0.00    +0.000 A 
ATOM     13  C   UNL     1       0.732  10.199  19.122  0.00  0.00    +0.000 A 
ATOM     14  C   UNL     1       0.640   9.599  20.374  0.00  0.00    +0.000 A 
ATOM     15 CL   UNL     1      -0.333  10.333  21.590  0.00  0.00    +0.000 Cl
ATOM     16  C   UNL     1       1.326   8.408  20.652  0.00  0.00    +0.000 A 
ENDBRANCH   8  10
ENDBRANCH   1   8
BRANCH   1  17
ATOM     17  C   UNL     1       4.891   5.864  18.798  0.00  0.00    +0.000 C 
BRANCH  17  18
ATOM     18  N   UNL     1       5.395   6.412  17.512  0.00  0.00    +0.000 NA
ATOM     19  H   UNL     1       4.724   6.429  16.737  0.00  0.00    +0.000 HD
BRANCH  18  20
ATOM     20  S   UNL     1       6.884   5.850  16.969  0.00  0.00    +0.000 S 
ATOM     21  O   UNL     1       7.271   4.813  17.902  0.00  0.00    +0.000 OA
ATOM     22  O   UNL     1       7.739   6.993  16.716  0.00  0.00    +0.000 OA
BRANCH  20  27
ATOM     23  C   UNL     1       5.731   2.943  11.758  0.00  0.00    +0.000 C 
ATOM     24  C   UNL     1       6.006   3.687  13.034  0.00  0.00    +0.000 A 
ATOM     25  C   UNL     1       7.171   4.452  13.181  0.00  0.00    +0.000 A 
ATOM     26  C   UNL     1       7.424   5.136  14.371  0.00  0.00    +0.000 A 
ATOM     27  C   UNL     1       6.503   5.068  15.422  0.00  0.00    +0.000 A 
ATOM     28  C   UNL     1       5.347   4.294  15.295  0.00  0.00    +0.000 A 
ATOM     29  C   UNL     1       5.100   3.610  14.100  0.00  0.00    +0.000 A 
ENDBRANCH  20  27
ENDBRANCH  18  20
ENDBRANCH  17  18
ENDBRANCH   1  17
TORSDOF 7
ENDMDL
MODEL 4
REMARK VINA RESULT:      -8.4      1.223      1.764
REMARK  Name = 
REMARK  8 active torsions:
REMARK  status: ('A' for Active; 'I' for Inactive)
REMARK    1  A    between atoms: C_1  and  C_2
REMARK    2  A    between atoms: C_5  and  S_6
REMARK    3  A    between atoms: S_6  and  N_9
REMARK    4  A    between atoms: N_9  and  C_10
REMARK    5  A    between atoms: C_10  and  C_11
REMARK    6  A    between atoms: C_11  and  N_12
REMARK    7  A    between atoms: C_11  and  C_20
REMARK    8  A    between atoms: N_12  and  C_13
REMARK                            x       y       z     vdW  Elec       q    Type
REMARK                         _______ _______ _______ _____ _____    ______ ____
ROOT
ATOM      1  C   UNL     1       3.351   5.655  18.735  0.00  0.00    +0.000 C 
ENDROOT
BRANCH   1   2
ATOM      2  C   UNL     1       2.512   4.428  19.088  0.00  0.00    +0.000 A 
ATOM      3  C   UNL     1       1.962   3.578  18.116  0.00  0.00    +0.000 A 
ATOM      4  C   UNL     1       1.026   2.603  18.478  0.00  0.00    +0.000 A 
ATOM      5  C   UNL     1       0.647   2.448  19.809  0.00  0.00    +0.000 A 
ATOM      6  C   UNL     1       1.247   3.226  20.794  0.00  0.00    +0.000 A 
ATOM      7  C   UNL     1       2.183   4.198  20.437  0.00  0.00    +0.000 A 
ENDBRANCH   1   2
BRANCH   1   8
ATOM      8  N   UNL     1       3.159   6.718  19.744  0.00  0.00    +0.000 N 
ATOM      9  H   UNL     1       4.041   7.037  20.138  0.00  0.00    +0.000 HD
BRANCH   8  10
ATOM     10  C   UNL     1       2.293   7.781  19.438  0.00  0.00    +0.000 A 
ATOM     11  C   UNL     1       2.132   8.268  18.132  0.00  0.00    +0.000 A 
ATOM     12  C   UNL     1       1.263   9.324  17.840  0.00  0.00    +0.000 A 
ATOM     13  C   UNL     1       0.492   9.886  18.850  0.00  0.00    +0.000 A 
ATOM     14  C   UNL     1       0.576   9.364  20.138  0.00  0.00    +0.000 A 
ATOM     15 CL   UNL     1      -0.422  10.019  21.378  0.00  0.00    +0.000 Cl
ATOM     16  C   UNL     1       1.459   8.316  20.431  0.00  0.00    +0.000 A 
ENDBRANCH   8  10
ENDBRANCH   1   8
BRANCH   1  17
ATOM     17  C   UNL     1       4.862   5.316  18.560  0.00  0.00    +0.000 C 
BRANCH  17  18
ATOM     18  N   UNL     1       5.576   6.338  17.751  0.00  0.00    +0.000 NA
ATOM     19  H   UNL     1       5.022   6.802  17.023  0.00  0.00    +0.000 HD
BRANCH  18  20
ATOM     20  S   UNL     1       7.087   5.917  17.141  0.00  0.00    +0.000 S 
ATOM     21  O   UNL     1       7.639   4.974  18.091  0.00  0.00    +0.000 OA
ATOM     22  O   UNL     1       7.792   7.134  16.790  0.00  0.00    +0.000 OA
BRANCH  20  27
ATOM     23  C   UNL     1       5.615   3.078  11.973  0.00  0.00    +0.000 C 
ATOM     24  C   UNL     1       5.991   3.754  13.261  0.00  0.00    +0.000 A 
ATOM     25  C   UNL     1       5.214   3.584  14.414  0.00  0.00    +0.000 A 
ATOM     26  C   UNL     1       5.565   4.220  15.606  0.00  0.00    +0.000 A 
ATOM     27  C   UNL     1       6.709   5.025  15.654  0.00  0.00    +0.000 A 
ATOM     28  C   UNL     1       7.482   5.218  14.507  0.00  0.00    +0.000 A 
ATOM     29  C   UNL     1       7.124   4.578  13.316  0.00  0.00    +0.000 A 
ENDBRANCH  20  27
ENDBRANCH  18  20
ENDBRANCH  17  18
ENDBRANCH   1  17
TORSDOF 7
ENDMDL
MODEL 5
REMARK VINA RESULT:      -8.4      1.469      1.986
REMARK  Name = 
REMARK  8 active torsions:
REMARK  status: ('A' for Active; 'I' for Inactive)
REMARK    1  A    between atoms: C_1  and  C_2
REMARK    2  A    between atoms: C_5  and  S_6
REMARK    3  A    between atoms: S_6  and  N_9
REMARK    4  A    between atoms: N_9  and  C_10
REMARK    5  A    between atoms: C_10  and  C_11
REMARK    6  A    between atoms: C_11  and  N_12
REMARK    7  A    between atoms: C_11  and  C_20
REMARK    8  A    between atoms: N_12  and  C_13
REMARK                            x       y       z     vdW  Elec       q    Type
REMARK                         _______ _______ _______ _____ _____    ______ ____
ROOT
ATOM      1  C   UNL     1       3.777   5.286  19.041  0.00  0.00    +0.000 C 
ENDROOT
BRANCH   1   2
ATOM      2  C   UNL     1       2.894   4.074  18.754  0.00  0.00    +0.000 A 
ATOM      3  C   UNL     1       1.552   3.997  19.158  0.00  0.00    +0.000 A 
ATOM      4  C   UNL     1       0.853   2.788  19.068  0.00  0.00    +0.000 A 
ATOM      5  C   UNL     1       1.474   1.652  18.554  0.00  0.00    +0.000 A 
ATOM      6  C   UNL     1       2.775   1.733  18.071  0.00  0.00    +0.000 A 
ATOM      7  C   UNL     1       3.474   2.939  18.157  0.00  0.00    +0.000 A 
ENDBRANCH   1   2
BRANCH   1   8
ATOM      8  N   UNL     1       3.127   6.176  20.024  0.00  0.00    +0.000 N 
ATOM      9  H   UNL     1       3.719   6.353  20.832  0.00  0.00    +0.000 HD
BRANCH   8  10
ATOM     10  C   UNL     1       2.495   7.341  19.557  0.00  0.00    +0.000 A 
ATOM     11  C   UNL     1       2.617   7.780  18.229  0.00  0.00    +0.000 A 
ATOM     12  C   UNL     1       1.980   8.939  17.775  0.00  0.00    +0.000 A 
ATOM     13  C   UNL     1       1.160   9.661  18.633  0.00  0.00    +0.000 A 
ATOM     14  C   UNL     1       0.963   9.199  19.931  0.00  0.00    +0.000 A 
ATOM     15 CL   UNL     1      -0.100  10.059  20.979  0.00  0.00    +0.000 Cl
ATOM     16  C   UNL     1       1.613   8.046  20.389  0.00  0.00    +0.000 A 
ENDBRANCH   8  10
ENDBRANCH   1   8
BRANCH   1  17
ATOM     17  C   UNL     1       5.209   4.885  19.510  0.00  0.00    +0.000 C 
BRANCH  17  18
ATOM     18  N   UNL     1       6.133   6.048  19.544  0.00  0.00    +0.000 NA
ATOM     19  H   UNL     1       5.696   6.972  19.469  0.00  0.00    +0.000 HD
BRANCH  18  20
ATOM     20  S   UNL     1       7.495   5.976  18.557  0.00  0.00    +0.000 S 
ATOM     21  O   UNL     1       8.294   4.887  19.079  0.00  0.00    +0.000 OA
ATOM     22  O   UNL     1       8.037   7.314  18.430  0.00  0.00    +0.000 OA
BRANCH  20  27
ATOM     23  C   UNL     1       5.083   4.085  13.310  0.00  0.00    +0.000 C 
ATOM     24  C   UNL     1       5.703   4.561  14.592  0.00  0.00    +0.000 A 
ATOM     25  C   UNL     1       6.648   3.776  15.266  0.00  0.00    +0.000 A 
ATOM     26  C   UNL     1       7.217   4.222  16.461  0.00  0.00    +0.000 A 
ATOM     27  C   UNL     1       6.851   5.467  16.985  0.00  0.00    +0.000 A 
ATOM     28  C   UNL     1       5.896   6.250  16.332  0.00  0.00    +0.000 A 
ATOM     29  C   UNL     1       5.329   5.798  15.136  0.00  0.00    +0.000 A 
ENDBRANCH  20  27
ENDBRANCH  18  20
ENDBRANCH  17  18
ENDBRANCH   1  17
TORSDOF 7
ENDMDL
MODEL 6
REMARK VINA RESULT:      -8.3      1.170      1.552
REMARK  Name = 
REMARK  8 active torsions:
REMARK  status: ('A' for Active; 'I' for Inactive)
REMARK    1  A    between atoms: C_1  and  C_2
REMARK    2  A    between atoms: C_5  and  S_6
REMARK    3  A    between atoms: S_6  and  N_9
REMARK    4  A    between atoms: N_9  and  C_10
REMARK    5  A    between atoms: C_10  and  C_11
REMARK    6  A    between atoms: C_11  and  N_12
REMARK    7  A    between atoms: C_11  and  C_20
REMARK    8  A    between atoms: N_12  and  C_13
REMARK                            x       y       z     vdW  Elec       q    Type
REMARK                         _______ _______ _______ _____ _____    ______ ____
ROOT
ATOM      1  C   UNL     1       2.643   6.438  18.667  0.00  0.00    +0.000 C 
ENDROOT
BRANCH   1   2
ATOM      2  C   UNL     1       2.146   5.032  18.996  0.00  0.00    +0.000 A 
ATOM      3  C   UNL     1       1.727   4.123  18.011  0.00  0.00    +0.000 A 
ATOM      4  C   UNL     1       1.077   2.938  18.372  0.00  0.00    +0.000 A 
ATOM      5  C   UNL     1       0.860   2.633  19.714  0.00  0.00    +0.000 A 
ATOM      6  C   UNL     1       1.345   3.482  20.703  0.00  0.00    +0.000 A 
ATOM      7  C   UNL     1       1.996   4.664  20.346  0.00  0.00    +0.000 A 
ENDBRANCH   1   2
BRANCH   1   8
ATOM      8  N   UNL     1       2.713   7.259  19.893  0.00  0.00    +0.000 N 
ATOM      9  H   UNL     1       3.618   7.711  20.002  0.00  0.00    +0.000 HD
BRANCH   8  10
ATOM     10  C   UNL     1       1.643   8.125  20.180  0.00  0.00    +0.000 A 
ATOM     11  C   UNL     1       0.909   8.041  21.373  0.00  0.00    +0.000 A 
ATOM     12  C   UNL     1      -0.151   8.911  21.649  0.00  0.00    +0.000 A 
ATOM     13  C   UNL     1      -0.467   9.924  20.752  0.00  0.00    +0.000 A 
ATOM     14  C   UNL     1       0.300  10.075  19.601  0.00  0.00    +0.000 A 
ATOM     15 CL   UNL     1      -0.052  11.366  18.517  0.00  0.00    +0.000 Cl
ATOM     16  C   UNL     1       1.352   9.193  19.319  0.00  0.00    +0.000 A 
ENDBRANCH   8  10
ENDBRANCH   1   8
BRANCH   1  17
ATOM     17  C   UNL     1       4.012   6.429  17.922  0.00  0.00    +0.000 C 
BRANCH  17  18
ATOM     18  N   UNL     1       5.037   5.631  18.643  0.00  0.00    +0.000 NA
ATOM     19  H   UNL     1       5.087   5.774  19.657  0.00  0.00    +0.000 HD
BRANCH  18  20
ATOM     20  S   UNL     1       6.588   5.605  17.991  0.00  0.00    +0.000 S 
ATOM     21  O   UNL     1       7.302   4.583  18.729  0.00  0.00    +0.000 OA
ATOM     22  O   UNL     1       7.079   6.967  17.926  0.00  0.00    +0.000 OA
BRANCH  20  27
ATOM     23  C   UNL     1       5.949   3.350  12.384  0.00  0.00    +0.000 C 
ATOM     24  C   UNL     1       6.092   3.931  13.762  0.00  0.00    +0.000 A 
ATOM     25  C   UNL     1       7.066   4.900  14.033  0.00  0.00    +0.000 A 
ATOM     26  C   UNL     1       7.198   5.433  15.318  0.00  0.00    +0.000 A 
ATOM     27  C   UNL     1       6.343   5.005  16.339  0.00  0.00    +0.000 A 
ATOM     28  C   UNL     1       5.379   4.026  16.086  0.00  0.00    +0.000 A 
ATOM     29  C   UNL     1       5.253   3.496  14.798  0.00  0.00    +0.000 A 
ENDBRANCH  20  27
ENDBRANCH  18  20
ENDBRANCH  17  18
ENDBRANCH   1  17
TORSDOF 7
ENDMDL
MODEL 7
REMARK VINA RESULT:      -8.3      1.159      2.016
REMARK  Name = 
REMARK  8 active torsions:
REMARK  status: ('A' for Active; 'I' for Inactive)
REMARK    1  A    between atoms: C_1  and  C_2
REMARK    2  A    between atoms: C_5  and  S_6
REMARK    3  A    between atoms: S_6  and  N_9
REMARK    4  A    between atoms: N_9  and  C_10
REMARK    5  A    between atoms: C_10  and  C_11
REMARK    6  A    between atoms: C_11  and  N_12
REMARK    7  A    between atoms: C_11  and  C_20
REMARK    8  A    between atoms: N_12  and  C_13
REMARK                            x       y       z     vdW  Elec       q    Type
REMARK                         _______ _______ _______ _____ _____    ______ ____
ROOT
ATOM      1  C   UNL     1       2.512   6.513  18.702  0.00  0.00    +0.000 C 
ENDROOT
BRANCH   1   2
ATOM      2  C   UNL     1       1.929   5.127  18.974  0.00  0.00    +0.000 A 
ATOM      3  C   UNL     1       1.627   4.669  20.266  0.00  0.00    +0.000 A 
ATOM      4  C   UNL     1       1.306   3.324  20.483  0.00  0.00    +0.000 A 
ATOM      5  C   UNL     1       1.258   2.430  19.416  0.00  0.00    +0.000 A 
ATOM      6  C   UNL     1       1.472   2.887  18.120  0.00  0.00    +0.000 A 
ATOM      7  C   UNL     1       1.789   4.228  17.900  0.00  0.00    +0.000 A 
ENDBRANCH   1   2
BRANCH   1   8
ATOM      8  N   UNL     1       2.638   7.275  19.961  0.00  0.00    +0.000 N 
ATOM      9  H   UNL     1       3.573   7.655  20.087  0.00  0.00    +0.000 HD
BRANCH   8  10
ATOM     10  C   UNL     1       1.634   8.202  20.285  0.00  0.00    +0.000 A 
ATOM     11  C   UNL     1       1.079   8.291  21.571  0.00  0.00    +0.000 A 
ATOM     12  C   UNL     1       0.083   9.221  21.883  0.00  0.00    +0.000 A 
ATOM     13  C   UNL     1      -0.347  10.124  20.919  0.00  0.00    +0.000 A 
ATOM     14  C   UNL     1       0.247  10.107  19.660  0.00  0.00    +0.000 A 
ATOM     15 CL   UNL     1      -0.242  11.264  18.482  0.00  0.00    +0.000 Cl
ATOM     16  C   UNL     1       1.234   9.164  19.345  0.00  0.00    +0.000 A 
ENDBRANCH   8  10
ENDBRANCH   1   8
BRANCH   1  17
ATOM     17  C   UNL     1       3.874   6.451  17.946  0.00  0.00    +0.000 C 
BRANCH  17  18
ATOM     18  N   UNL     1       4.842   5.539  18.610  0.00  0.00    +0.000 NA
ATOM     19  H   UNL     1       4.824   5.535  19.635  0.00  0.00    +0.000 HD
BRANCH  18  20
ATOM     20  S   UNL     1       6.432   5.577  18.063  0.00  0.00    +0.000 S 
ATOM     21  O   UNL     1       7.153   4.641  18.900  0.00  0.00    +0.000 OA
ATOM     22  O   UNL     1       6.845   6.963  17.957  0.00  0.00    +0.000 OA
BRANCH  20  27
ATOM     23  C   UNL     1       5.934   3.417  12.405  0.00  0.00    +0.000 C 
ATOM     24  C   UNL     1       6.068   3.925  13.812  0.00  0.00    +0.000 A 
ATOM     25  C   UNL     1       5.117   3.597  14.787  0.00  0.00    +0.000 A 
ATOM     26  C   UNL     1       5.244   4.077  16.092  0.00  0.00    +0.000 A 
ATOM     27  C   UNL     1       6.337   4.882  16.434  0.00  0.00    +0.000 A 
ATOM     28  C   UNL     1       7.282   5.232  15.467  0.00  0.00    +0.000 A 
ATOM     29  C   UNL     1       7.148   4.748  14.161  0.00  0.00    +0.000 A 
ENDBRANCH  20  27
ENDBRANCH  18  20
ENDBRANCH  17  18
ENDBRANCH   1  17
TORSDOF 7
ENDMDL
MODEL 8
REMARK VINA RESULT:      -8.2      1.843      4.585
REMARK  Name = 
REMARK  8 active torsions:
REMARK  status: ('A' for Active; 'I' for Inactive)
REMARK    1  A    between atoms: C_1  and  C_2
REMARK    2  A    between atoms: C_5  and  S_6
REMARK    3  A    between atoms: S_6  and  N_9
REMARK    4  A    between atoms: N_9  and  C_10
REMARK    5  A    between atoms: C_10  and  C_11
REMARK    6  A    between atoms: C_11  and  N_12
REMARK    7  A    between atoms: C_11  and  C_20
REMARK    8  A    between atoms: N_12  and  C_13
REMARK                            x       y       z     vdW  Elec       q    Type
REMARK                         _______ _______ _______ _____ _____    ______ ____
ROOT
ATOM      1  C   UNL     1       3.044   6.610  18.332  0.00  0.00    +0.000 C 
ENDROOT
BRANCH   1   2
ATOM      2  C   UNL     1       2.325   7.884  18.772  0.00  0.00    +0.000 A 
ATOM      3  C   UNL     1       1.797   8.052  20.062  0.00  0.00    +0.000 A 
ATOM      4  C   UNL     1       0.961   9.137  20.349  0.00  0.00    +0.000 A 
ATOM      5  C   UNL     1       0.663  10.077  19.364  0.00  0.00    +0.000 A 
ATOM      6  C   UNL     1       1.247   9.970  18.106  0.00  0.00    +0.000 A 
ATOM      7  C   UNL     1       2.083   8.890  17.818  0.00  0.00    +0.000 A 
ENDBRANCH   1   2
BRANCH   1   8
ATOM      8  N   UNL     1       2.087   5.662  17.725  0.00  0.00    +0.000 N 
ATOM      9  H   UNL     1       2.118   5.683  16.709  0.00  0.00    +0.000 HD
BRANCH   8  10
ATOM     10  C   UNL     1       2.029   4.353  18.233  0.00  0.00    +0.000 A 
ATOM     11  C   UNL     1       2.375   3.233  17.462  0.00  0.00    +0.000 A 
ATOM     12  C   UNL     1       2.318   1.935  17.980  0.00  0.00    +0.000 A 
ATOM     13  C   UNL     1       1.959   1.734  19.307  0.00  0.00    +0.000 A 
ATOM     14  C   UNL     1       1.690   2.837  20.111  0.00  0.00    +0.000 A 
ATOM     15 CL   UNL     1       1.304   2.594  21.772  0.00  0.00    +0.000 Cl
ATOM     16  C   UNL     1       1.733   4.136  19.587  0.00  0.00    +0.000 A 
ENDBRANCH   8  10
ENDBRANCH   1   8
BRANCH   1  17
ATOM     17  C   UNL     1       4.234   6.898  17.367  0.00  0.00    +0.000 C 
BRANCH  17  18
ATOM     18  N   UNL     1       5.547   6.820  18.057  0.00  0.00    +0.000 NA
ATOM     19  H   UNL     1       6.207   7.578  17.856  0.00  0.00    +0.000 HD
BRANCH  18  20
ATOM     20  S   UNL     1       6.346   5.339  18.021  0.00  0.00    +0.000 S 
ATOM     21  O   UNL     1       5.509   4.428  18.773  0.00  0.00    +0.000 OA
ATOM     22  O   UNL     1       7.732   5.560  18.383  0.00  0.00    +0.000 OA
BRANCH  20  27
ATOM     23  C   UNL     1       6.274   3.484  12.234  0.00  0.00    +0.000 C 
ATOM     24  C   UNL     1       6.278   3.968  13.656  0.00  0.00    +0.000 A 
ATOM     25  C   UNL     1       7.241   4.883  14.100  0.00  0.00    +0.000 A 
ATOM     26  C   UNL     1       7.244   5.325  15.424  0.00  0.00    +0.000 A 
ATOM     27  C   UNL     1       6.270   4.859  16.315  0.00  0.00    +0.000 A 
ATOM     28  C   UNL     1       5.315   3.932  15.890  0.00  0.00    +0.000 A 
ATOM     29  C   UNL     1       5.319   3.493  14.562  0.00  0.00    +0.000 A 
ENDBRANCH  20  27
ENDBRANCH  18  20
ENDBRANCH  17  18
ENDBRANCH   1  17
TORSDOF 7
ENDMDL
MODEL 9
REMARK VINA RESULT:      -8.1      2.419      3.404
REMARK  Name = 
REMARK  8 active torsions:
REMARK  status: ('A' for Active; 'I' for Inactive)
REMARK    1  A    between atoms: C_1  and  C_2
REMARK    2  A    between atoms: C_5  and  S_6
REMARK    3  A    between atoms: S_6  and  N_9
REMARK    4  A    between atoms: N_9  and  C_10
REMARK    5  A    between atoms: C_10  and  C_11
REMARK    6  A    between atoms: C_11  and  N_12
REMARK    7  A    between atoms: C_11  and  C_20
REMARK    8  A    between atoms: N_12  and  C_13
REMARK                            x       y       z     vdW  Elec       q    Type
REMARK                         _______ _______ _______ _____ _____    ______ ____
ROOT
ATOM      1  C   UNL     1       2.959   5.047  18.011  0.00  0.00    +0.000 C 
ENDROOT
BRANCH   1   2
ATOM      2  C   UNL     1       2.482   4.085  19.097  0.00  0.00    +0.000 A 
ATOM      3  C   UNL     1       1.127   3.917  19.424  0.00  0.00    +0.000 A 
ATOM      4  C   UNL     1       0.757   3.197  20.565  0.00  0.00    +0.000 A 
ATOM      5  C   UNL     1       1.729   2.616  21.377  0.00  0.00    +0.000 A 
ATOM      6  C   UNL     1       3.071   2.701  21.019  0.00  0.00    +0.000 A 
ATOM      7  C   UNL     1       3.442   3.417  19.880  0.00  0.00    +0.000 A 
ENDBRANCH   1   2
BRANCH   1   8
ATOM      8  N   UNL     1       3.528   6.267  18.618  0.00  0.00    +0.000 N 
ATOM      9  H   UNL     1       4.413   6.531  18.191  0.00  0.00    +0.000 HD
BRANCH   8  10
ATOM     10  C   UNL     1       2.682   7.370  18.822  0.00  0.00    +0.000 A 
ATOM     11  C   UNL     1       2.342   8.258  17.789  0.00  0.00    +0.000 A 
ATOM     12  C   UNL     1       1.495   9.350  18.004  0.00  0.00    +0.000 A 
ATOM     13  C   UNL     1       0.924   9.548  19.255  0.00  0.00    +0.000 A 
ATOM     14  C   UNL     1       1.184   8.634  20.272  0.00  0.00    +0.000 A 
ATOM     15 CL   UNL     1       0.430   8.844  21.806  0.00  0.00    +0.000 Cl
ATOM     16  C   UNL     1       2.045   7.549  20.059  0.00  0.00    +0.000 A 
ENDBRANCH   8  10
ENDBRANCH   1   8
BRANCH   1  17
ATOM     17  C   UNL     1       3.973   4.385  17.029  0.00  0.00    +0.000 C 
BRANCH  17  18
ATOM     18  N   UNL     1       5.117   5.280  16.718  0.00  0.00    +0.000 NA
ATOM     19  H   UNL     1       5.209   5.568  15.738  0.00  0.00    +0.000 HD
BRANCH  18  20
ATOM     20  S   UNL     1       6.622   4.844  17.331  0.00  0.00    +0.000 S 
ATOM     21  O   UNL     1       7.347   4.277  16.214  0.00  0.00    +0.000 OA
ATOM     22  O   UNL     1       6.416   4.094  18.555  0.00  0.00    +0.000 OA
BRANCH  20  27
ATOM     23  C   UNL     1       8.983  10.232  18.860  0.00  0.00    +0.000 C 
ATOM     24  C   UNL     1       8.420   8.897  18.462  0.00  0.00    +0.000 A 
ATOM     25  C   UNL     1       7.603   8.772  17.331  0.00  0.00    +0.000 A 
ATOM     26  C   UNL     1       7.079   7.529  16.968  0.00  0.00    +0.000 A 
ATOM     27  C   UNL     1       7.381   6.397  17.734  0.00  0.00    +0.000 A 
ATOM     28  C   UNL     1       8.179   6.512  18.874  0.00  0.00    +0.000 A 
ATOM     29  C   UNL     1       8.701   7.759  19.232  0.00  0.00    +0.000 A 
ENDBRANCH  20  27
ENDBRANCH  18  20
ENDBRANCH  17  18
ENDBRANCH   1  17
TORSDOF 7
ENDMDL
