MODEL 1
REMARK VINA RESULT:      -9.2      0.000      0.000
REMARK  Name = 
REMARK  3 active torsions:
REMARK  status: ('A' for Active; 'I' for Inactive)
REMARK    1  A    between atoms: C_1  and  N_2
REMARK    2  A    between atoms: C_7  and  C_9
REMARK    3  A    between atoms: C_11  and  C_12
REMARK                            x       y       z     vdW  Elec       q    Type
REMARK                         _______ _______ _______ _____ _____    ______ ____
ROOT
ATOM      1  C   UNL     1       4.174   5.389  19.478  0.00  0.00    +0.000 A 
ATOM      2  C   UNL     1       3.669   6.687  19.519  0.00  0.00    +0.000 A 
ATOM      3  C   UNL     1       2.327   6.929  19.758  0.00  0.00    +0.000 A 
ATOM      4  N   UNL     1       1.534   5.920  20.156  0.00  0.00    +0.000 NA
ATOM      5  C   UNL     1       2.020   4.673  20.254  0.00  0.00    +0.000 A 
ATOM      6  C   UNL     1       1.141   3.691  20.691  0.00  0.00    +0.000 A 
ATOM      7  C   UNL     1       1.530   2.360  20.831  0.00  0.00    +0.000 A 
ATOM      8  C   UNL     1       2.829   1.995  20.517  0.00  0.00    +0.000 A 
ATOM      9  C   UNL     1       3.723   2.961  20.052  0.00  0.00    +0.000 A 
ATOM     10  C   UNL     1       3.344   4.324  19.915  0.00  0.00    +0.000 A 
ENDROOT
BRANCH   1  17
ATOM     11  C   UNL     1       5.148   4.045  13.490  0.00  0.00    +0.000 C 
ATOM     12  N   UNL     1       5.739   4.912  14.511  0.00  0.00    +0.000 NA
ATOM     13  C   UNL     1       7.095   4.473  14.863  0.00  0.00    +0.000 C 
ATOM     14  C   UNL     1       7.697   5.091  16.136  0.00  0.00    +0.000 C 
ATOM     15  C   UNL     1       7.300   4.363  17.428  0.00  0.00    +0.000 C 
ATOM     16  N   UNL     1       5.890   4.523  17.805  0.00  0.00    +0.000 N 
ATOM     17  C   UNL     1       5.591   5.182  19.016  0.00  0.00    +0.000 C 
ATOM     18  O   UNL     1       6.486   5.607  19.747  0.00  0.00    +0.000 OA
ATOM     19  C   UNL     1       4.940   4.052  16.793  0.00  0.00    +0.000 C 
ATOM     20  C   UNL     1       4.825   5.085  15.640  0.00  0.00    +0.000 C 
ENDBRANCH   1  17
BRANCH   3  21
ATOM     21  C   UNL     1       1.709   8.270  19.502  0.00  0.00    +0.000 A 
ATOM     22  C   UNL     1       1.756   8.796  18.184  0.00  0.00    +0.000 A 
ATOM     23  C   UNL     1       1.116   9.978  17.827  0.00  0.00    +0.000 A 
ATOM     24  C   UNL     1       0.433  10.703  18.788  0.00  0.00    +0.000 A 
ATOM     25  C   UNL     1       0.372  10.258  20.113  0.00  0.00    +0.000 A 
ATOM     26  C   UNL     1      -0.325  11.041  21.050  0.00  0.00    +0.000 A 
ATOM     27  C   UNL     1      -0.432  10.650  22.379  0.00  0.00    +0.000 A 
ATOM     28  C   UNL     1       0.137   9.454  22.785  0.00  0.00    +0.000 A 
ATOM     29  C   UNL     1       0.824   8.664  21.858  0.00  0.00    +0.000 A 
ATOM     30  C   UNL     1       0.992   9.033  20.496  0.00  0.00    +0.000 A 
ENDBRANCH   3  21
TORSDOF 2
ENDMDL
MODEL 2
REMARK VINA RESULT:      -8.3      6.898     11.667
REMARK  Name = 
REMARK  3 active torsions:
REMARK  status: ('A' for Active; 'I' for Inactive)
REMARK    1  A    between atoms: C_1  and  N_2
REMARK    2  A    between atoms: C_7  and  C_9
REMARK    3  A    between atoms: C_11  and  C_12
REMARK                            x       y       z     vdW  Elec       q    Type
REMARK                         _______ _______ _______ _____ _____    ______ ____
ROOT
ATOM      1  C   UNL     1      -3.640  13.030  23.588  0.00  0.00    +0.000 A 
ATOM      2  C   UNL     1      -2.786  11.998  23.202  0.00  0.00    +0.000 A 
ATOM      3  C   UNL     1      -1.423  12.203  23.074  0.00  0.00    +0.000 A 
ATOM      4  N   UNL     1      -0.882  13.350  23.519  0.00  0.00    +0.000 NA
ATOM      5  C   UNL     1      -1.664  14.320  24.019  0.00  0.00    +0.000 A 
ATOM      6  C   UNL     1      -1.026  15.465  24.475  0.00  0.00    +0.000 A 
ATOM      7  C   UNL     1      -1.731  16.539  25.014  0.00  0.00    +0.000 A 
ATOM      8  C   UNL     1      -3.113  16.475  25.092  0.00  0.00    +0.000 A 
ATOM      9  C   UNL     1      -3.778  15.344  24.615  0.00  0.00    +0.000 A 
ATOM     10  C   UNL     1      -3.071  14.235  24.075  0.00  0.00    +0.000 A 
ENDROOT
BRANCH   1  17
ATOM     11  C   UNL     1      -6.335  13.013  17.988  0.00  0.00    +0.000 C 
ATOM     12  N   UNL     1      -6.401  12.224  19.219  0.00  0.00    +0.000 NA
ATOM     13  C   UNL     1      -7.703  12.376  19.881  0.00  0.00    +0.000 C 
ATOM     14  C   UNL     1      -7.789  11.866  21.329  0.00  0.00    +0.000 C 
ATOM     15  C   UNL     1      -7.320  12.886  22.376  0.00  0.00    +0.000 C 
ATOM     16  N   UNL     1      -5.874  13.142  22.366  0.00  0.00    +0.000 N 
ATOM     17  C   UNL     1      -5.125  12.801  23.512  0.00  0.00    +0.000 C 
ATOM     18  O   UNL     1      -5.666  12.308  24.503  0.00  0.00    +0.000 OA
ATOM     19  C   UNL     1      -5.361  13.643  21.087  0.00  0.00    +0.000 C 
ATOM     20  C   UNL     1      -5.236  12.481  20.067  0.00  0.00    +0.000 C 
ENDBRANCH   1  17
BRANCH   3  21
ATOM     21  C   UNL     1      -0.539  11.217  22.372  0.00  0.00    +0.000 A 
ATOM     22  C   UNL     1      -0.276   9.974  23.005  0.00  0.00    +0.000 A 
ATOM     23  C   UNL     1       0.440   8.956  22.385  0.00  0.00    +0.000 A 
ATOM     24  C   UNL     1       0.955   9.157  21.116  0.00  0.00    +0.000 A 
ATOM     25  C   UNL     1       0.759  10.369  20.447  0.00  0.00    +0.000 A 
ATOM     26  C   UNL     1       1.316  10.523  19.165  0.00  0.00    +0.000 A 
ATOM     27  C   UNL     1       1.150  11.699  18.442  0.00  0.00    +0.000 A 
ATOM     28  C   UNL     1       0.399  12.730  18.984  0.00  0.00    +0.000 A 
ATOM     29  C   UNL     1      -0.167  12.582  20.254  0.00  0.00    +0.000 A 
ATOM     30  C   UNL     1       0.001  11.416  21.048  0.00  0.00    +0.000 A 
ENDBRANCH   3  21
TORSDOF 2
ENDMDL
MODEL 3
REMARK VINA RESULT:      -8.0      3.943      8.744
REMARK  Name = 
REMARK  3 active torsions:
REMARK  status: ('A' for Active; 'I' for Inactive)
REMARK    1  A    between atoms: C_1  and  N_2
REMARK    2  A    between atoms: C_7  and  C_9
REMARK    3  A    between atoms: C_11  and  C_12
REMARK                            x       y       z     vdW  Elec       q    Type
REMARK                         _______ _______ _______ _____ _____    ______ ____
ROOT
ATOM      1  C   UNL     1       0.472  11.050  19.637  0.00  0.00    +0.000 A 
ATOM      2  C   UNL     1       1.515  10.191  19.299  0.00  0.00    +0.000 A 
ATOM      3  C   UNL     1       1.330   9.156  18.398  0.00  0.00    +0.000 A 
ATOM      4  N   UNL     1       0.192   9.095  17.686  0.00  0.00    +0.000 NA
ATOM      5  C   UNL     1      -0.787   9.988  17.895  0.00  0.00    +0.000 A 
ATOM      6  C   UNL     1      -1.922   9.868  17.103  0.00  0.00    +0.000 A 
ATOM      7  C   UNL     1      -3.005  10.736  17.228  0.00  0.00    +0.000 A 
ATOM      8  C   UNL     1      -2.961  11.747  18.175  0.00  0.00    +0.000 A 
ATOM      9  C   UNL     1      -1.841  11.871  18.999  0.00  0.00    +0.000 A 
ATOM     10  C   UNL     1      -0.723  11.000  18.875  0.00  0.00    +0.000 A 
ENDROOT
BRANCH   1  17
ATOM     11  C   UNL     1       0.835  17.103  18.278  0.00  0.00    +0.000 C 
ATOM     12  N   UNL     1       0.190  16.262  19.286  0.00  0.00    +0.000 NA
ATOM     13  C   UNL     1       0.759  16.494  20.620  0.00  0.00    +0.000 C 
ATOM     14  C   UNL     1       0.400  15.458  21.698  0.00  0.00    +0.000 C 
ATOM     15  C   UNL     1       1.313  14.223  21.701  0.00  0.00    +0.000 C 
ATOM     16  N   UNL     1       1.138  13.338  20.542  0.00  0.00    +0.000 N 
ATOM     17  C   UNL     1       0.678  12.023  20.767  0.00  0.00    +0.000 C 
ATOM     18  O   UNL     1       0.435  11.620  21.905  0.00  0.00    +0.000 OA
ATOM     19  C   UNL     1       1.376  13.987  19.249  0.00  0.00    +0.000 C 
ATOM     20  C   UNL     1       0.158  14.863  18.855  0.00  0.00    +0.000 C 
ENDBRANCH   1  17
BRANCH   3  21
ATOM     21  C   UNL     1       2.327   8.046  18.256  0.00  0.00    +0.000 A 
ATOM     22  C   UNL     1       3.332   8.163  17.260  0.00  0.00    +0.000 A 
ATOM     23  C   UNL     1       4.363   7.240  17.126  0.00  0.00    +0.000 A 
ATOM     24  C   UNL     1       4.407   6.138  17.963  0.00  0.00    +0.000 A 
ATOM     25  C   UNL     1       3.431   5.945  18.946  0.00  0.00    +0.000 A 
ATOM     26  C   UNL     1       3.518   4.801  19.759  0.00  0.00    +0.000 A 
ATOM     27  C   UNL     1       2.587   4.555  20.761  0.00  0.00    +0.000 A 
ATOM     28  C   UNL     1       1.567   5.467  20.980  0.00  0.00    +0.000 A 
ATOM     29  C   UNL     1       1.478   6.613  20.183  0.00  0.00    +0.000 A 
ATOM     30  C   UNL     1       2.383   6.895  19.125  0.00  0.00    +0.000 A 
ENDBRANCH   3  21
TORSDOF 2
ENDMDL
MODEL 4
REMARK VINA RESULT:      -8.0      3.889      8.311
REMARK  Name = 
REMARK  3 active torsions:
REMARK  status: ('A' for Active; 'I' for Inactive)
REMARK    1  A    between atoms: C_1  and  N_2
REMARK    2  A    between atoms: C_7  and  C_9
REMARK    3  A    between atoms: C_11  and  C_12
REMARK                            x       y       z     vdW  Elec       q    Type
REMARK                         _______ _______ _______ _____ _____    ______ ____
ROOT
ATOM      1  C   UNL     1       0.385  11.278  19.631  0.00  0.00    +0.000 A 
ATOM      2  C   UNL     1       0.981  10.244  18.913  0.00  0.00    +0.000 A 
ATOM      3  C   UNL     1       1.266   9.026  19.509  0.00  0.00    +0.000 A 
ATOM      4  N   UNL     1       0.784   8.761  20.734  0.00  0.00    +0.000 NA
ATOM      5  C   UNL     1       0.091   9.693  21.407  0.00  0.00    +0.000 A 
ATOM      6  C   UNL     1      -0.390   9.333  22.658  0.00  0.00    +0.000 A 
ATOM      7  C   UNL     1      -1.123  10.216  23.451  0.00  0.00    +0.000 A 
ATOM      8  C   UNL     1      -1.374  11.497  22.987  0.00  0.00    +0.000 A 
ATOM      9  C   UNL     1      -0.879  11.889  21.742  0.00  0.00    +0.000 A 
ATOM     10  C   UNL     1      -0.141  10.996  20.918  0.00  0.00    +0.000 A 
ENDROOT
BRANCH   1  17
ATOM     11  C   UNL     1       4.606  15.572  21.170  0.00  0.00    +0.000 C 
ATOM     12  N   UNL     1       3.956  15.087  19.952  0.00  0.00    +0.000 NA
ATOM     13  C   UNL     1       3.079  16.111  19.370  0.00  0.00    +0.000 C 
ATOM     14  C   UNL     1       2.102  15.628  18.285  0.00  0.00    +0.000 C 
ATOM     15  C   UNL     1       0.792  15.052  18.841  0.00  0.00    +0.000 C 
ATOM     16  N   UNL     1       0.940  13.764  19.530  0.00  0.00    +0.000 N 
ATOM     17  C   UNL     1       0.287  12.636  18.989  0.00  0.00    +0.000 C 
ATOM     18  O   UNL     1      -0.398  12.725  17.970  0.00  0.00    +0.000 OA
ATOM     19  C   UNL     1       1.859  13.795  20.672  0.00  0.00    +0.000 C 
ATOM     20  C   UNL     1       3.330  13.784  20.178  0.00  0.00    +0.000 C 
ENDBRANCH   1  17
BRANCH   3  21
ATOM     21  C   UNL     1       2.174   8.024  18.861  0.00  0.00    +0.000 A 
ATOM     22  C   UNL     1       2.926   8.426  17.728  0.00  0.00    +0.000 A 
ATOM     23  C   UNL     1       3.874   7.603  17.128  0.00  0.00    +0.000 A 
ATOM     24  C   UNL     1       4.078   6.325  17.620  0.00  0.00    +0.000 A 
ATOM     25  C   UNL     1       3.349   5.854  18.716  0.00  0.00    +0.000 A 
ATOM     26  C   UNL     1       3.588   4.543  19.165  0.00  0.00    +0.000 A 
ATOM     27  C   UNL     1       2.905   4.018  20.256  0.00  0.00    +0.000 A 
ATOM     28  C   UNL     1       1.988   4.809  20.929  0.00  0.00    +0.000 A 
ATOM     29  C   UNL     1       1.750   6.117  20.496  0.00  0.00    +0.000 A 
ATOM     30  C   UNL     1       2.396   6.691  19.368  0.00  0.00    +0.000 A 
ENDBRANCH   3  21
TORSDOF 2
ENDMDL
MODEL 5
REMARK VINA RESULT:      -7.7      6.738     10.840
REMARK  Name = 
REMARK  3 active torsions:
REMARK  status: ('A' for Active; 'I' for Inactive)
REMARK    1  A    between atoms: C_1  and  N_2
REMARK    2  A    between atoms: C_7  and  C_9
REMARK    3  A    between atoms: C_11  and  C_12
REMARK                            x       y       z     vdW  Elec       q    Type
REMARK                         _______ _______ _______ _____ _____    ______ ____
ROOT
ATOM      1  C   UNL     1      -0.577  13.467  22.027  0.00  0.00    +0.000 A 
ATOM      2  C   UNL     1      -0.014  14.308  21.069  0.00  0.00    +0.000 A 
ATOM      3  C   UNL     1       0.968  13.855  20.203  0.00  0.00    +0.000 A 
ATOM      4  N   UNL     1       1.244  12.542  20.146  0.00  0.00    +0.000 NA
ATOM      5  C   UNL     1       0.624  11.681  20.968  0.00  0.00    +0.000 A 
ATOM      6  C   UNL     1       0.951  10.339  20.831  0.00  0.00    +0.000 A 
ATOM      7  C   UNL     1       0.374   9.352  21.628  0.00  0.00    +0.000 A 
ATOM      8  C   UNL     1      -0.548   9.714  22.597  0.00  0.00    +0.000 A 
ATOM      9  C   UNL     1      -0.873  11.061  22.771  0.00  0.00    +0.000 A 
ATOM     10  C   UNL     1      -0.302  12.077  21.956  0.00  0.00    +0.000 A 
ENDROOT
BRANCH   1  17
ATOM     11  C   UNL     1      -6.710  12.741  21.333  0.00  0.00    +0.000 C 
ATOM     12  N   UNL     1      -5.730  12.662  22.418  0.00  0.00    +0.000 NA
ATOM     13  C   UNL     1      -5.936  13.732  23.402  0.00  0.00    +0.000 C 
ATOM     14  C   UNL     1      -4.793  13.956  24.406  0.00  0.00    +0.000 C 
ATOM     15  C   UNL     1      -3.677  14.872  23.884  0.00  0.00    +0.000 C 
ATOM     16  N   UNL     1      -2.859  14.282  22.816  0.00  0.00    +0.000 N 
ATOM     17  C   UNL     1      -1.488  14.066  23.065  0.00  0.00    +0.000 C 
ATOM     18  O   UNL     1      -0.981  14.371  24.145  0.00  0.00    +0.000 OA
ATOM     19  C   UNL     1      -3.619  13.887  21.626  0.00  0.00    +0.000 C 
ATOM     20  C   UNL     1      -4.371  12.555  21.886  0.00  0.00    +0.000 C 
ENDBRANCH   1  17
BRANCH   3  21
ATOM     21  C   UNL     1       1.798  14.801  19.389  0.00  0.00    +0.000 A 
ATOM     22  C   UNL     1       3.190  14.549  19.271  0.00  0.00    +0.000 A 
ATOM     23  C   UNL     1       4.019  15.305  18.449  0.00  0.00    +0.000 A 
ATOM     24  C   UNL     1       3.493  16.371  17.741  0.00  0.00    +0.000 A 
ATOM     25  C   UNL     1       2.135  16.694  17.835  0.00  0.00    +0.000 A 
ATOM     26  C   UNL     1       1.657  17.795  17.103  0.00  0.00    +0.000 A 
ATOM     27  C   UNL     1       0.317  18.162  17.144  0.00  0.00    +0.000 A 
ATOM     28  C   UNL     1      -0.570  17.414  17.901  0.00  0.00    +0.000 A 
ATOM     29  C   UNL     1      -0.106  16.311  18.625  0.00  0.00    +0.000 A 
ATOM     30  C   UNL     1       1.258  15.913  18.644  0.00  0.00    +0.000 A 
ENDBRANCH   3  21
TORSDOF 2
ENDMDL
MODEL 6
REMARK VINA RESULT:      -7.6      6.767     11.991
REMARK  Name = 
REMARK  3 active torsions:
REMARK  status: ('A' for Active; 'I' for Inactive)
REMARK    1  A    between atoms: C_1  and  N_2
REMARK    2  A    between atoms: C_7  and  C_9
REMARK    3  A    between atoms: C_11  and  C_12
REMARK                            x       y       z     vdW  Elec       q    Type
REMARK                         _______ _______ _______ _____ _____    ______ ____
ROOT
ATOM      1  C   UNL     1      -3.941  12.737  20.789  0.00  0.00    +0.000 A 
ATOM      2  C   UNL     1      -2.601  12.624  20.422  0.00  0.00    +0.000 A 
ATOM      3  C   UNL     1      -2.230  12.010  19.238  0.00  0.00    +0.000 A 
ATOM      4  N   UNL     1      -3.171  11.697  18.332  0.00  0.00    +0.000 NA
ATOM      5  C   UNL     1      -4.469  11.912  18.600  0.00  0.00    +0.000 A 
ATOM      6  C   UNL     1      -5.376  11.580  17.603  0.00  0.00    +0.000 A 
ATOM      7  C   UNL     1      -6.749  11.757  17.765  0.00  0.00    +0.000 A 
ATOM      8  C   UNL     1      -7.232  12.271  18.957  0.00  0.00    +0.000 A 
ATOM      9  C   UNL     1      -6.340  12.588  19.983  0.00  0.00    +0.000 A 
ATOM     10  C   UNL     1      -4.936  12.424  19.828  0.00  0.00    +0.000 A 
ENDROOT
BRANCH   1  17
ATOM     11  C   UNL     1      -5.978  18.572  21.431  0.00  0.00    +0.000 C 
ATOM     12  N   UNL     1      -6.315  17.249  21.956  0.00  0.00    +0.000 NA
ATOM     13  C   UNL     1      -6.029  17.156  23.394  0.00  0.00    +0.000 C 
ATOM     14  C   UNL     1      -6.033  15.741  23.994  0.00  0.00    +0.000 C 
ATOM     15  C   UNL     1      -4.697  14.999  23.845  0.00  0.00    +0.000 C 
ATOM     16  N   UNL     1      -4.373  14.604  22.469  0.00  0.00    +0.000 N 
ATOM     17  C   UNL     1      -4.269  13.229  22.173  0.00  0.00    +0.000 C 
ATOM     18  O   UNL     1      -4.436  12.376  23.045  0.00  0.00    +0.000 OA
ATOM     19  C   UNL     1      -4.297  15.724  21.525  0.00  0.00    +0.000 C 
ATOM     20  C   UNL     1      -5.722  16.194  21.133  0.00  0.00    +0.000 C 
ENDBRANCH   1  17
BRANCH   3  21
ATOM     21  C   UNL     1      -0.812  11.602  18.971  0.00  0.00    +0.000 A 
ATOM     22  C   UNL     1      -0.525  10.222  18.808  0.00  0.00    +0.000 A 
ATOM     23  C   UNL     1       0.736   9.757  18.450  0.00  0.00    +0.000 A 
ATOM     24  C   UNL     1       1.773  10.659  18.279  0.00  0.00    +0.000 A 
ATOM     25  C   UNL     1       1.567  12.031  18.454  0.00  0.00    +0.000 A 
ATOM     26  C   UNL     1       2.659  12.899  18.279  0.00  0.00    +0.000 A 
ATOM     27  C   UNL     1       2.519  14.273  18.428  0.00  0.00    +0.000 A 
ATOM     28  C   UNL     1       1.274  14.802  18.730  0.00  0.00    +0.000 A 
ATOM     29  C   UNL     1       0.180  13.947  18.896  0.00  0.00    +0.000 A 
ATOM     30  C   UNL     1       0.275  12.534  18.788  0.00  0.00    +0.000 A 
ENDBRANCH   3  21
TORSDOF 2
ENDMDL
MODEL 7
REMARK VINA RESULT:      -7.4      6.333     11.237
REMARK  Name = 
REMARK  3 active torsions:
REMARK  status: ('A' for Active; 'I' for Inactive)
REMARK    1  A    between atoms: C_1  and  N_2
REMARK    2  A    between atoms: C_7  and  C_9
REMARK    3  A    between atoms: C_11  and  C_12
REMARK                            x       y       z     vdW  Elec       q    Type
REMARK                         _______ _______ _______ _____ _____    ______ ____
ROOT
ATOM      1  C   UNL     1      -3.400  13.072  22.863  0.00  0.00    +0.000 A 
ATOM      2  C   UNL     1      -2.538  12.294  22.093  0.00  0.00    +0.000 A 
ATOM      3  C   UNL     1      -1.213  12.654  21.911  0.00  0.00    +0.000 A 
ATOM      4  N   UNL     1      -0.694  13.653  22.645  0.00  0.00    +0.000 NA
ATOM      5  C   UNL     1      -1.468  14.343  23.497  0.00  0.00    +0.000 A 
ATOM      6  C   UNL     1      -0.849  15.345  24.232  0.00  0.00    +0.000 A 
ATOM      7  C   UNL     1      -1.549  16.129  25.148  0.00  0.00    +0.000 A 
ATOM      8  C   UNL     1      -2.907  15.916  25.328  0.00  0.00    +0.000 A 
ATOM      9  C   UNL     1      -3.555  14.931  24.580  0.00  0.00    +0.000 A 
ATOM     10  C   UNL     1      -2.851  14.114  23.653  0.00  0.00    +0.000 A 
ENDROOT
BRANCH   1  17
ATOM     11  C   UNL     1      -6.291  12.622  17.380  0.00  0.00    +0.000 C 
ATOM     12  N   UNL     1      -6.258  11.887  18.645  0.00  0.00    +0.000 NA
ATOM     13  C   UNL     1      -7.542  11.980  19.351  0.00  0.00    +0.000 C 
ATOM     14  C   UNL     1      -7.540  11.531  20.821  0.00  0.00    +0.000 C 
ATOM     15  C   UNL     1      -7.104  12.626  21.805  0.00  0.00    +0.000 C 
ATOM     16  N   UNL     1      -5.680  12.979  21.727  0.00  0.00    +0.000 N 
ATOM     17  C   UNL     1      -4.869  12.741  22.856  0.00  0.00    +0.000 C 
ATOM     18  O   UNL     1      -5.338  12.257  23.887  0.00  0.00    +0.000 OA
ATOM     19  C   UNL     1      -5.250  13.455  20.409  0.00  0.00    +0.000 C 
ATOM     20  C   UNL     1      -5.083  12.260  19.434  0.00  0.00    +0.000 C 
ENDBRANCH   1  17
BRANCH   3  21
ATOM     21  C   UNL     1      -0.361  12.020  20.854  0.00  0.00    +0.000 A 
ATOM     22  C   UNL     1       0.084  12.824  19.772  0.00  0.00    +0.000 A 
ATOM     23  C   UNL     1       0.966  12.354  18.805  0.00  0.00    +0.000 A 
ATOM     24  C   UNL     1       1.409  11.044  18.862  0.00  0.00    +0.000 A 
ATOM     25  C   UNL     1       0.986  10.188  19.885  0.00  0.00    +0.000 A 
ATOM     26  C   UNL     1       1.458   8.864  19.886  0.00  0.00    +0.000 A 
ATOM     27  C   UNL     1       1.085   7.966  20.880  0.00  0.00    +0.000 A 
ATOM     28  C   UNL     1       0.252   8.390  21.902  0.00  0.00    +0.000 A 
ATOM     29  C   UNL     1      -0.215   9.709  21.915  0.00  0.00    +0.000 A 
ATOM     30  C   UNL     1       0.109  10.656  20.906  0.00  0.00    +0.000 A 
ENDBRANCH   3  21
TORSDOF 2
ENDMDL
MODEL 8
REMARK VINA RESULT:      -7.4      7.227     11.202
REMARK  Name = 
REMARK  3 active torsions:
REMARK  status: ('A' for Active; 'I' for Inactive)
REMARK    1  A    between atoms: C_1  and  N_2
REMARK    2  A    between atoms: C_7  and  C_9
REMARK    3  A    between atoms: C_11  and  C_12
REMARK                            x       y       z     vdW  Elec       q    Type
REMARK                         _______ _______ _______ _____ _____    ______ ____
ROOT
ATOM      1  C   UNL     1       1.400  15.727  19.519  0.00  0.00    +0.000 A 
ATOM      2  C   UNL     1       2.785  15.627  19.633  0.00  0.00    +0.000 A 
ATOM      3  C   UNL     1       3.628  16.246  18.724  0.00  0.00    +0.000 A 
ATOM      4  N   UNL     1       3.118  17.119  17.839  0.00  0.00    +0.000 NA
ATOM      5  C   UNL     1       1.795  17.339  17.788  0.00  0.00    +0.000 A 
ATOM      6  C   UNL     1       1.352  18.271  16.859  0.00  0.00    +0.000 A 
ATOM      7  C   UNL     1       0.001  18.583  16.712  0.00  0.00    +0.000 A 
ATOM      8  C   UNL     1      -0.935  17.940  17.506  0.00  0.00    +0.000 A 
ATOM      9  C   UNL     1      -0.515  16.981  18.428  0.00  0.00    +0.000 A 
ATOM     10  C   UNL     1       0.861  16.661  18.598  0.00  0.00    +0.000 A 
ENDROOT
BRANCH   1  17
ATOM     11  C   UNL     1       0.836   9.692  18.149  0.00  0.00    +0.000 C 
ATOM     12  N   UNL     1       1.042  10.511  19.344  0.00  0.00    +0.000 NA
ATOM     13  C   UNL     1      -0.119  10.450  20.241  0.00  0.00    +0.000 C 
ATOM     14  C   UNL     1      -0.166  11.504  21.359  0.00  0.00    +0.000 C 
ATOM     15  C   UNL     1      -0.777  12.844  20.925  0.00  0.00    +0.000 C 
ATOM     16  N   UNL     1       0.054  13.615  19.992  0.00  0.00    +0.000 N 
ATOM     17  C   UNL     1       0.541  14.871  20.411  0.00  0.00    +0.000 C 
ATOM     18  O   UNL     1       0.272  15.319  21.526  0.00  0.00    +0.000 OA
ATOM     19  C   UNL     1       0.366  12.913  18.743  0.00  0.00    +0.000 C 
ATOM     20  C   UNL     1       1.480  11.860  18.981  0.00  0.00    +0.000 C 
ENDBRANCH   1  17
BRANCH   3  21
ATOM     21  C   UNL     1       5.085  15.905  18.639  0.00  0.00    +0.000 A 
ATOM     22  C   UNL     1       5.477  14.812  17.822  0.00  0.00    +0.000 A 
ATOM     23  C   UNL     1       6.810  14.490  17.594  0.00  0.00    +0.000 A 
ATOM     24  C   UNL     1       7.807  15.227  18.210  0.00  0.00    +0.000 A 
ATOM     25  C   UNL     1       7.490  16.298  19.052  0.00  0.00    +0.000 A 
ATOM     26  C   UNL     1       8.542  17.004  19.660  0.00  0.00    +0.000 A 
ATOM     27  C   UNL     1       8.296  18.085  20.499  0.00  0.00    +0.000 A 
ATOM     28  C   UNL     1       6.990  18.490  20.721  0.00  0.00    +0.000 A 
ATOM     29  C   UNL     1       5.937  17.799  20.113  0.00  0.00    +0.000 A 
ATOM     30  C   UNL     1       6.131  16.669  19.274  0.00  0.00    +0.000 A 
ENDBRANCH   3  21
TORSDOF 2
ENDMDL
MODEL 9
REMARK VINA RESULT:      -7.3      6.692     11.401
REMARK  Name = 
REMARK  3 active torsions:
REMARK  status: ('A' for Active; 'I' for Inactive)
REMARK    1  A    between atoms: C_1  and  N_2
REMARK    2  A    between atoms: C_7  and  C_9
REMARK    3  A    between atoms: C_11  and  C_12
REMARK                            x       y       z     vdW  Elec       q    Type
REMARK                         _______ _______ _______ _____ _____    ______ ____
ROOT
ATOM      1  C   UNL     1      -0.627  14.497  21.896  0.00  0.00    +0.000 A 
ATOM      2  C   UNL     1      -0.356  13.296  21.244  0.00  0.00    +0.000 A 
ATOM      3  C   UNL     1       0.196  13.275  19.974  0.00  0.00    +0.000 A 
ATOM      4  N   UNL     1       0.663  14.416  19.438  0.00  0.00    +0.000 NA
ATOM      5  C   UNL     1       0.535  15.577  20.098  0.00  0.00    +0.000 A 
ATOM      6  C   UNL     1       1.062  16.706  19.484  0.00  0.00    +0.000 A 
ATOM      7  C   UNL     1       0.989  17.968  20.071  0.00  0.00    +0.000 A 
ATOM      8  C   UNL     1       0.364  18.112  21.299  0.00  0.00    +0.000 A 
ATOM      9  C   UNL     1      -0.196  16.995  21.922  0.00  0.00    +0.000 A 
ATOM     10  C   UNL     1      -0.118  15.699  21.342  0.00  0.00    +0.000 A 
ENDROOT
BRANCH   1  17
ATOM     11  C   UNL     1      -6.531  12.569  21.695  0.00  0.00    +0.000 C 
ATOM     12  N   UNL     1      -5.358  12.364  22.547  0.00  0.00    +0.000 NA
ATOM     13  C   UNL     1      -5.559  12.943  23.881  0.00  0.00    +0.000 C 
ATOM     14  C   UNL     1      -4.301  13.081  24.755  0.00  0.00    +0.000 C 
ATOM     15  C   UNL     1      -3.501  14.365  24.495  0.00  0.00    +0.000 C 
ATOM     16  N   UNL     1      -2.817  14.401  23.196  0.00  0.00    +0.000 N 
ATOM     17  C   UNL     1      -1.408  14.457  23.182  0.00  0.00    +0.000 C 
ATOM     18  O   UNL     1      -0.762  14.485  24.230  0.00  0.00    +0.000 OA
ATOM     19  C   UNL     1      -3.711  14.266  22.042  0.00  0.00    +0.000 C 
ATOM     20  C   UNL     1      -4.136  12.785  21.860  0.00  0.00    +0.000 C 
ENDBRANCH   1  17
BRANCH   3  21
ATOM     21  C   UNL     1       0.207  12.031  19.138  0.00  0.00    +0.000 A 
ATOM     22  C   UNL     1       1.430  11.326  18.992  0.00  0.00    +0.000 A 
ATOM     23  C   UNL     1       1.515  10.106  18.329  0.00  0.00    +0.000 A 
ATOM     24  C   UNL     1       0.381   9.561  17.751  0.00  0.00    +0.000 A 
ATOM     25  C   UNL     1      -0.851  10.218  17.832  0.00  0.00    +0.000 A 
ATOM     26  C   UNL     1      -1.966   9.625  17.216  0.00  0.00    +0.000 A 
ATOM     27  C   UNL     1      -3.221  10.221  17.268  0.00  0.00    +0.000 A 
ATOM     28  C   UNL     1      -3.382  11.410  17.962  0.00  0.00    +0.000 A 
ATOM     29  C   UNL     1      -2.279  12.003  18.586  0.00  0.00    +0.000 A 
ATOM     30  C   UNL     1      -0.970  11.453  18.535  0.00  0.00    +0.000 A 
ENDBRANCH   3  21
TORSDOF 2
ENDMDL
