MODEL 1
REMARK VINA RESULT:      -6.4      0.000      0.000
REMARK  Name = 
REMARK  10 active torsions:
REMARK  status: ('A' for Active; 'I' for Inactive)
REMARK    1  A    between atoms: C_1  and  C_2
REMARK    2  A    between atoms: C_4  and  N_5
REMARK    3  A    between atoms: N_5  and  C_6
REMARK    4  A    between atoms: C_6  and  C_7
REMARK    5  A    between atoms: C_7  and  C_8
REMARK    6  A    between atoms: C_7  and  C_9
REMARK    7  A    between atoms: C_7  and  C_10
REMARK    8  A    between atoms: C_10  and  O_11
REMARK    9  A    between atoms: N_14  and  C_15
REMARK   10  A    between atoms: N_14  and  C_16
REMARK                            x       y       z     vdW  Elec       q    Type
REMARK                         _______ _______ _______ _____ _____    ______ ____
ROOT
ATOM      1  C   UNL     1       7.964   7.603  17.974  0.00  0.00    +0.000 C 
ATOM      2  C   UNL     1       7.225   6.404  17.464  0.00  0.00    +0.000 A 
ATOM      3  C   UNL     1       6.487   5.614  18.308  0.00  0.00    +0.000 A 
ATOM      4  C   UNL     1       5.855   4.526  17.744  0.00  0.00    +0.000 A 
ATOM      5  N   UNL     1       5.971   4.240  16.446  0.00  0.00    +0.000 NA
ATOM      6  C   UNL     1       6.715   5.046  15.664  0.00  0.00    +0.000 A 
ATOM      7  N   UNL     1       6.811   4.775  14.317  0.00  0.00    +0.000 N 
ATOM      8  C   UNL     1       6.227   3.572  13.768  0.00  0.00    +0.000 C 
ATOM      9  C   UNL     1       7.767   5.498  13.500  0.00  0.00    +0.000 C 
ATOM     10  N   UNL     1       7.343   6.130  16.153  0.00  0.00    +0.000 NA
ENDROOT
BRANCH   4  11
ATOM     11  N   UNL     1       5.188   3.650  18.617  0.00  0.00    +0.000 N 
ATOM     12  H   UNL     1       5.011   4.114  19.506  0.00  0.00    +0.000 HD
BRANCH  11  13
ATOM     13  C   UNL     1       3.992   2.971  18.110  0.00  0.00    +0.000 C 
BRANCH  13  14
ATOM     14  C   UNL     1       2.716   3.595  18.743  0.00  0.00    +0.000 C 
ATOM     15  C   UNL     1       2.141   4.699  17.832  0.00  0.00    +0.000 C 
ATOM     16  C   UNL     1       1.646   2.497  18.900  0.00  0.00    +0.000 C 
BRANCH  14  17
ATOM     17  C   UNL     1       3.026   4.162  20.150  0.00  0.00    +0.000 C 
BRANCH  17  18
ATOM     18  O   UNL     1       3.402   5.533  20.120  0.00  0.00    +0.000 OA
ATOM     19  H   UNL     1       4.321   5.557  20.471  0.00  0.00    +0.000 HD
ENDBRANCH  17  18
ENDBRANCH  14  17
ENDBRANCH  13  14
ENDBRANCH  11  13
ENDBRANCH   4  11
TORSDOF 5
ENDMDL
MODEL 2
REMARK VINA RESULT:      -6.4      1.289      1.541
REMARK  Name = 
REMARK  10 active torsions:
REMARK  status: ('A' for Active; 'I' for Inactive)
REMARK    1  A    between atoms: C_1  and  C_2
REMARK    2  A    between atoms: C_4  and  N_5
REMARK    3  A    between atoms: N_5  and  C_6
REMARK    4  A    between atoms: C_6  and  C_7
REMARK    5  A    between atoms: C_7  and  C_8
REMARK    6  A    between atoms: C_7  and  C_9
REMARK    7  A    between atoms: C_7  and  C_10
REMARK    8  A    between atoms: C_10  and  O_11
REMARK    9  A    between atoms: N_14  and  C_15
REMARK   10  A    between atoms: N_14  and  C_16
REMARK                            x       y       z     vdW  Elec       q    Type
REMARK                         _______ _______ _______ _____ _____    ______ ____
ROOT
ATOM      1  C   UNL     1       7.589   7.089  17.554  0.00  0.00    +0.000 C 
ATOM      2  C   UNL     1       6.862   6.012  16.811  0.00  0.00    +0.000 A 
ATOM      3  C   UNL     1       5.909   5.242  17.430  0.00  0.00    +0.000 A 
ATOM      4  C   UNL     1       5.306   4.268  16.663  0.00  0.00    +0.000 A 
ATOM      5  N   UNL     1       5.645   4.066  15.389  0.00  0.00    +0.000 NA
ATOM      6  C   UNL     1       6.592   4.845  14.833  0.00  0.00    +0.000 A 
ATOM      7  N   UNL     1       6.922   4.663  13.509  0.00  0.00    +0.000 N 
ATOM      8  C   UNL     1       6.353   3.568  12.756  0.00  0.00    +0.000 C 
ATOM      9  C   UNL     1       8.076   5.341  12.950  0.00  0.00    +0.000 C 
ATOM     10  N   UNL     1       7.205   5.822  15.525  0.00  0.00    +0.000 NA
ENDROOT
BRANCH   4  11
ATOM     11  N   UNL     1       4.410   3.404  17.316  0.00  0.00    +0.000 N 
ATOM     12  H   UNL     1       4.926   2.688  17.823  0.00  0.00    +0.000 HD
BRANCH  11  13
ATOM     13  C   UNL     1       3.367   4.014  18.147  0.00  0.00    +0.000 C 
BRANCH  13  14
ATOM     14  C   UNL     1       2.876   2.999  19.218  0.00  0.00    +0.000 C 
ATOM     15  C   UNL     1       2.491   3.728  20.521  0.00  0.00    +0.000 C 
ATOM     16  C   UNL     1       1.626   2.275  18.685  0.00  0.00    +0.000 C 
BRANCH  14  17
ATOM     17  C   UNL     1       3.963   1.932  19.495  0.00  0.00    +0.000 C 
BRANCH  17  18
ATOM     18  O   UNL     1       5.214   2.502  19.860  0.00  0.00    +0.000 OA
ATOM     19  H   UNL     1       5.525   2.977  19.057  0.00  0.00    +0.000 HD
ENDBRANCH  17  18
ENDBRANCH  14  17
ENDBRANCH  13  14
ENDBRANCH  11  13
ENDBRANCH   4  11
TORSDOF 5
ENDMDL
MODEL 3
REMARK VINA RESULT:      -6.2      1.374      1.687
REMARK  Name = 
REMARK  10 active torsions:
REMARK  status: ('A' for Active; 'I' for Inactive)
REMARK    1  A    between atoms: C_1  and  C_2
REMARK    2  A    between atoms: C_4  and  N_5
REMARK    3  A    between atoms: N_5  and  C_6
REMARK    4  A    between atoms: C_6  and  C_7
REMARK    5  A    between atoms: C_7  and  C_8
REMARK    6  A    between atoms: C_7  and  C_9
REMARK    7  A    between atoms: C_7  and  C_10
REMARK    8  A    between atoms: C_10  and  O_11
REMARK    9  A    between atoms: N_14  and  C_15
REMARK   10  A    between atoms: N_14  and  C_16
REMARK                            x       y       z     vdW  Elec       q    Type
REMARK                         _______ _______ _______ _____ _____    ______ ____
ROOT
ATOM      1  C   UNL     1       8.088   6.889  18.564  0.00  0.00    +0.000 C 
ATOM      2  C   UNL     1       7.127   5.928  17.935  0.00  0.00    +0.000 A 
ATOM      3  C   UNL     1       6.205   5.249  18.692  0.00  0.00    +0.000 A 
ATOM      4  C   UNL     1       5.374   4.377  18.022  0.00  0.00    +0.000 A 
ATOM      5  N   UNL     1       5.472   4.184  16.705  0.00  0.00    +0.000 NA
ATOM      6  C   UNL     1       6.399   4.872  16.012  0.00  0.00    +0.000 A 
ATOM      7  N   UNL     1       6.483   4.701  14.647  0.00  0.00    +0.000 N 
ATOM      8  C   UNL     1       5.673   3.706  13.982  0.00  0.00    +0.000 C 
ATOM      9  C   UNL     1       7.601   5.265  13.915  0.00  0.00    +0.000 C 
ATOM     10  N   UNL     1       7.229   5.747  16.607  0.00  0.00    +0.000 NA
ENDROOT
BRANCH   4  11
ATOM     11  N   UNL     1       4.503   3.597  18.801  0.00  0.00    +0.000 N 
ATOM     12  H   UNL     1       5.039   2.992  19.420  0.00  0.00    +0.000 HD
BRANCH  11  13
ATOM     13  C   UNL     1       3.429   4.293  19.516  0.00  0.00    +0.000 C 
BRANCH  13  14
ATOM     14  C   UNL     1       2.052   3.671  19.148  0.00  0.00    +0.000 C 
ATOM     15  C   UNL     1       0.995   4.020  20.215  0.00  0.00    +0.000 C 
ATOM     16  C   UNL     1       1.584   4.251  17.800  0.00  0.00    +0.000 C 
BRANCH  14  17
ATOM     17  C   UNL     1       2.173   2.135  18.989  0.00  0.00    +0.000 C 
BRANCH  17  18
ATOM     18  O   UNL     1       2.411   1.739  17.644  0.00  0.00    +0.000 OA
ATOM     19  H   UNL     1       2.587   0.772  17.688  0.00  0.00    +0.000 HD
ENDBRANCH  17  18
ENDBRANCH  14  17
ENDBRANCH  13  14
ENDBRANCH  11  13
ENDBRANCH   4  11
TORSDOF 5
ENDMDL
MODEL 4
REMARK VINA RESULT:      -6.1      1.405      1.794
REMARK  Name = 
REMARK  10 active torsions:
REMARK  status: ('A' for Active; 'I' for Inactive)
REMARK    1  A    between atoms: C_1  and  C_2
REMARK    2  A    between atoms: C_4  and  N_5
REMARK    3  A    between atoms: N_5  and  C_6
REMARK    4  A    between atoms: C_6  and  C_7
REMARK    5  A    between atoms: C_7  and  C_8
REMARK    6  A    between atoms: C_7  and  C_9
REMARK    7  A    between atoms: C_7  and  C_10
REMARK    8  A    between atoms: C_10  and  O_11
REMARK    9  A    between atoms: N_14  and  C_15
REMARK   10  A    between atoms: N_14  and  C_16
REMARK                            x       y       z     vdW  Elec       q    Type
REMARK                         _______ _______ _______ _____ _____    ______ ____
ROOT
ATOM      1  C   UNL     1       7.674   6.998  17.840  0.00  0.00    +0.000 C 
ATOM      2  C   UNL     1       6.932   5.925  17.105  0.00  0.00    +0.000 A 
ATOM      3  C   UNL     1       6.031   5.116  17.751  0.00  0.00    +0.000 A 
ATOM      4  C   UNL     1       5.409   4.149  16.989  0.00  0.00    +0.000 A 
ATOM      5  N   UNL     1       5.684   3.991  15.693  0.00  0.00    +0.000 NA
ATOM      6  C   UNL     1       6.583   4.808  15.111  0.00  0.00    +0.000 A 
ATOM      7  N   UNL     1       6.846   4.670  13.766  0.00  0.00    +0.000 N 
ATOM      8  C   UNL     1       6.261   3.584  13.013  0.00  0.00    +0.000 C 
ATOM      9  C   UNL     1       7.953   5.391  13.168  0.00  0.00    +0.000 C 
ATOM     10  N   UNL     1       7.211   5.779  15.798  0.00  0.00    +0.000 NA
ENDROOT
BRANCH   4  11
ATOM     11  N   UNL     1       4.569   3.247  17.663  0.00  0.00    +0.000 N 
ATOM     12  H   UNL     1       4.969   3.012  18.569  0.00  0.00    +0.000 HD
BRANCH  11  13
ATOM     13  C   UNL     1       3.149   3.596  17.768  0.00  0.00    +0.000 C 
BRANCH  13  14
ATOM     14  C   UNL     1       2.688   3.516  19.250  0.00  0.00    +0.000 C 
ATOM     15  C   UNL     1       3.695   2.705  20.090  0.00  0.00    +0.000 C 
ATOM     16  C   UNL     1       2.618   4.942  19.830  0.00  0.00    +0.000 C 
BRANCH  14  17
ATOM     17  C   UNL     1       1.274   2.893  19.349  0.00  0.00    +0.000 C 
BRANCH  17  18
ATOM     18  O   UNL     1       1.166   1.661  18.646  0.00  0.00    +0.000 OA
ATOM     19  H   UNL     1       0.589   1.854  17.874  0.00  0.00    +0.000 HD
ENDBRANCH  17  18
ENDBRANCH  14  17
ENDBRANCH  13  14
ENDBRANCH  11  13
ENDBRANCH   4  11
TORSDOF 5
ENDMDL
MODEL 5
REMARK VINA RESULT:      -6.1      0.878      1.291
REMARK  Name = 
REMARK  10 active torsions:
REMARK  status: ('A' for Active; 'I' for Inactive)
REMARK    1  A    between atoms: C_1  and  C_2
REMARK    2  A    between atoms: C_4  and  N_5
REMARK    3  A    between atoms: N_5  and  C_6
REMARK    4  A    between atoms: C_6  and  C_7
REMARK    5  A    between atoms: C_7  and  C_8
REMARK    6  A    between atoms: C_7  and  C_9
REMARK    7  A    between atoms: C_7  and  C_10
REMARK    8  A    between atoms: C_10  and  O_11
REMARK    9  A    between atoms: N_14  and  C_15
REMARK   10  A    between atoms: N_14  and  C_16
REMARK                            x       y       z     vdW  Elec       q    Type
REMARK                         _______ _______ _______ _____ _____    ______ ____
ROOT
ATOM      1  C   UNL     1       7.968   7.662  17.979  0.00  0.00    +0.000 C 
ATOM      2  C   UNL     1       7.255   6.436  17.498  0.00  0.00    +0.000 A 
ATOM      3  C   UNL     1       6.572   5.625  18.370  0.00  0.00    +0.000 A 
ATOM      4  C   UNL     1       5.959   4.514  17.831  0.00  0.00    +0.000 A 
ATOM      5  N   UNL     1       6.042   4.226  16.531  0.00  0.00    +0.000 NA
ATOM      6  C   UNL     1       6.731   5.053  15.722  0.00  0.00    +0.000 A 
ATOM      7  N   UNL     1       6.792   4.778  14.373  0.00  0.00    +0.000 N 
ATOM      8  C   UNL     1       6.231   3.553  13.849  0.00  0.00    +0.000 C 
ATOM      9  C   UNL     1       7.695   5.529  13.522  0.00  0.00    +0.000 C 
ATOM     10  N   UNL     1       7.338   6.159  16.185  0.00  0.00    +0.000 NA
ENDROOT
BRANCH   4  11
ATOM     11  N   UNL     1       5.351   3.620  18.729  0.00  0.00    +0.000 N 
ATOM     12  H   UNL     1       6.031   3.306  19.419  0.00  0.00    +0.000 HD
BRANCH  11  13
ATOM     13  C   UNL     1       4.095   4.042  19.356  0.00  0.00    +0.000 C 
BRANCH  13  14
ATOM     14  C   UNL     1       2.934   3.113  18.903  0.00  0.00    +0.000 C 
ATOM     15  C   UNL     1       3.486   1.798  18.318  0.00  0.00    +0.000 C 
ATOM     16  C   UNL     1       2.062   2.767  20.125  0.00  0.00    +0.000 C 
BRANCH  14  17
ATOM     17  C   UNL     1       2.035   3.831  17.866  0.00  0.00    +0.000 C 
BRANCH  17  18
ATOM     18  O   UNL     1       2.272   5.232  17.808  0.00  0.00    +0.000 OA
ATOM     19  H   UNL     1       2.187   5.470  16.857  0.00  0.00    +0.000 HD
ENDBRANCH  17  18
ENDBRANCH  14  17
ENDBRANCH  13  14
ENDBRANCH  11  13
ENDBRANCH   4  11
TORSDOF 5
ENDMDL
MODEL 6
REMARK VINA RESULT:      -5.9      2.617      5.717
REMARK  Name = 
REMARK  10 active torsions:
REMARK  status: ('A' for Active; 'I' for Inactive)
REMARK    1  A    between atoms: C_1  and  C_2
REMARK    2  A    between atoms: C_4  and  N_5
REMARK    3  A    between atoms: N_5  and  C_6
REMARK    4  A    between atoms: C_6  and  C_7
REMARK    5  A    between atoms: C_7  and  C_8
REMARK    6  A    between atoms: C_7  and  C_9
REMARK    7  A    between atoms: C_7  and  C_10
REMARK    8  A    between atoms: C_10  and  O_11
REMARK    9  A    between atoms: N_14  and  C_15
REMARK   10  A    between atoms: N_14  and  C_16
REMARK                            x       y       z     vdW  Elec       q    Type
REMARK                         _______ _______ _______ _____ _____    ______ ____
ROOT
ATOM      1  C   UNL     1       2.224   3.113  21.719  0.00  0.00    +0.000 C 
ATOM      2  C   UNL     1       2.716   3.901  20.545  0.00  0.00    +0.000 A 
ATOM      3  C   UNL     1       3.580   3.351  19.632  0.00  0.00    +0.000 A 
ATOM      4  C   UNL     1       3.985   4.163  18.594  0.00  0.00    +0.000 A 
ATOM      5  N   UNL     1       3.576   5.428  18.491  0.00  0.00    +0.000 NA
ATOM      6  C   UNL     1       2.733   5.920  19.419  0.00  0.00    +0.000 A 
ATOM      7  N   UNL     1       2.282   7.216  19.298  0.00  0.00    +0.000 N 
ATOM      8  C   UNL     1       2.801   8.080  18.262  0.00  0.00    +0.000 C 
ATOM      9  C   UNL     1       1.548   7.831  20.388  0.00  0.00    +0.000 C 
ATOM     10  N   UNL     1       2.291   5.173  20.446  0.00  0.00    +0.000 NA
ENDROOT
BRANCH   4  11
ATOM     11  N   UNL     1       4.954   3.645  17.717  0.00  0.00    +0.000 N 
ATOM     12  H   UNL     1       5.191   2.692  17.987  0.00  0.00    +0.000 HD
BRANCH  11  13
ATOM     13  C   UNL     1       4.691   3.755  16.279  0.00  0.00    +0.000 C 
BRANCH  13  14
ATOM     14  C   UNL     1       5.837   4.545  15.587  0.00  0.00    +0.000 C 
ATOM     15  C   UNL     1       6.086   4.006  14.164  0.00  0.00    +0.000 C 
ATOM     16  C   UNL     1       5.428   6.026  15.474  0.00  0.00    +0.000 C 
BRANCH  14  17
ATOM     17  C   UNL     1       7.135   4.472  16.427  0.00  0.00    +0.000 C 
BRANCH  17  18
ATOM     18  O   UNL     1       7.463   5.712  17.042  0.00  0.00    +0.000 OA
ATOM     19  H   UNL     1       8.245   6.046  16.548  0.00  0.00    +0.000 HD
ENDBRANCH  17  18
ENDBRANCH  14  17
ENDBRANCH  13  14
ENDBRANCH  11  13
ENDBRANCH   4  11
TORSDOF 5
ENDMDL
MODEL 7
REMARK VINA RESULT:      -5.9      1.424      1.732
REMARK  Name = 
REMARK  10 active torsions:
REMARK  status: ('A' for Active; 'I' for Inactive)
REMARK    1  A    between atoms: C_1  and  C_2
REMARK    2  A    between atoms: C_4  and  N_5
REMARK    3  A    between atoms: N_5  and  C_6
REMARK    4  A    between atoms: C_6  and  C_7
REMARK    5  A    between atoms: C_7  and  C_8
REMARK    6  A    between atoms: C_7  and  C_9
REMARK    7  A    between atoms: C_7  and  C_10
REMARK    8  A    between atoms: C_10  and  O_11
REMARK    9  A    between atoms: N_14  and  C_15
REMARK   10  A    between atoms: N_14  and  C_16
REMARK                            x       y       z     vdW  Elec       q    Type
REMARK                         _______ _______ _______ _____ _____    ______ ____
ROOT
ATOM      1  C   UNL     1       7.461   5.687  19.294  0.00  0.00    +0.000 C 
ATOM      2  C   UNL     1       6.482   5.046  18.360  0.00  0.00    +0.000 A 
ATOM      3  C   UNL     1       5.365   4.403  18.834  0.00  0.00    +0.000 A 
ATOM      4  C   UNL     1       4.532   3.834  17.893  0.00  0.00    +0.000 A 
ATOM      5  N   UNL     1       4.806   3.886  16.589  0.00  0.00    +0.000 NA
ATOM      6  C   UNL     1       5.919   4.524  16.179  0.00  0.00    +0.000 A 
ATOM      7  N   UNL     1       6.189   4.609  14.831  0.00  0.00    +0.000 N 
ATOM      8  C   UNL     1       5.358   3.916  13.873  0.00  0.00    +0.000 C 
ATOM      9  C   UNL     1       7.476   5.102  14.380  0.00  0.00    +0.000 C 
ATOM     10  N   UNL     1       6.762   5.111  17.047  0.00  0.00    +0.000 NA
ENDROOT
BRANCH   4  11
ATOM     11  N   UNL     1       3.448   3.081  18.373  0.00  0.00    +0.000 N 
ATOM     12  H   UNL     1       3.432   2.169  17.920  0.00  0.00    +0.000 HD
BRANCH  11  13
ATOM     13  C   UNL     1       3.291   2.970  19.826  0.00  0.00    +0.000 C 
BRANCH  13  14
ATOM     14  C   UNL     1       1.817   3.257  20.227  0.00  0.00    +0.000 C 
ATOM     15  C   UNL     1       0.844   2.617  19.216  0.00  0.00    +0.000 C 
ATOM     16  C   UNL     1       1.545   2.638  21.612  0.00  0.00    +0.000 C 
BRANCH  14  17
ATOM     17  C   UNL     1       1.566   4.781  20.329  0.00  0.00    +0.000 C 
BRANCH  17  18
ATOM     18  O   UNL     1       2.571   5.455  21.076  0.00  0.00    +0.000 OA
ATOM     19  H   UNL     1       3.415   5.013  20.831  0.00  0.00    +0.000 HD
ENDBRANCH  17  18
ENDBRANCH  14  17
ENDBRANCH  13  14
ENDBRANCH  11  13
ENDBRANCH   4  11
TORSDOF 5
ENDMDL
MODEL 8
REMARK VINA RESULT:      -5.8      1.562      1.978
REMARK  Name = 
REMARK  10 active torsions:
REMARK  status: ('A' for Active; 'I' for Inactive)
REMARK    1  A    between atoms: C_1  and  C_2
REMARK    2  A    between atoms: C_4  and  N_5
REMARK    3  A    between atoms: N_5  and  C_6
REMARK    4  A    between atoms: C_6  and  C_7
REMARK    5  A    between atoms: C_7  and  C_8
REMARK    6  A    between atoms: C_7  and  C_9
REMARK    7  A    between atoms: C_7  and  C_10
REMARK    8  A    between atoms: C_10  and  O_11
REMARK    9  A    between atoms: N_14  and  C_15
REMARK   10  A    between atoms: N_14  and  C_16
REMARK                            x       y       z     vdW  Elec       q    Type
REMARK                         _______ _______ _______ _____ _____    ______ ____
ROOT
ATOM      1  C   UNL     1       7.845   6.248  18.674  0.00  0.00    +0.000 C 
ATOM      2  C   UNL     1       6.862   5.455  17.870  0.00  0.00    +0.000 A 
ATOM      3  C   UNL     1       5.817   4.800  18.473  0.00  0.00    +0.000 A 
ATOM      4  C   UNL     1       4.974   4.087  17.648  0.00  0.00    +0.000 A 
ATOM      5  N   UNL     1       5.173   4.017  16.331  0.00  0.00    +0.000 NA
ATOM      6  C   UNL     1       6.219   4.673  15.792  0.00  0.00    +0.000 A 
ATOM      7  N   UNL     1       6.410   4.630  14.429  0.00  0.00    +0.000 N 
ATOM      8  C   UNL     1       5.576   3.792  13.598  0.00  0.00    +0.000 C 
ATOM      9  C   UNL     1       7.637   5.148  13.854  0.00  0.00    +0.000 C 
ATOM     10  N   UNL     1       7.067   5.397  16.543  0.00  0.00    +0.000 NA
ENDROOT
BRANCH   4  11
ATOM     11  N   UNL     1       3.968   3.325  18.266  0.00  0.00    +0.000 N 
ATOM     12  H   UNL     1       4.097   2.339  18.048  0.00  0.00    +0.000 HD
BRANCH  11  13
ATOM     13  C   UNL     1       3.739   3.542  19.697  0.00  0.00    +0.000 C 
BRANCH  13  14
ATOM     14  C   UNL     1       2.274   3.173  20.066  0.00  0.00    +0.000 C 
ATOM     15  C   UNL     1       2.188   2.678  21.523  0.00  0.00    +0.000 C 
ATOM     16  C   UNL     1       1.392   4.429  19.933  0.00  0.00    +0.000 C 
BRANCH  14  17
ATOM     17  C   UNL     1       1.722   2.099  19.096  0.00  0.00    +0.000 C 
BRANCH  17  18
ATOM     18  O   UNL     1       0.343   2.280  18.803  0.00  0.00    +0.000 OA
ATOM     19  H   UNL     1       0.176   3.241  18.928  0.00  0.00    +0.000 HD
ENDBRANCH  17  18
ENDBRANCH  14  17
ENDBRANCH  13  14
ENDBRANCH  11  13
ENDBRANCH   4  11
TORSDOF 5
ENDMDL
MODEL 9
REMARK VINA RESULT:      -5.8      2.480      5.697
REMARK  Name = 
REMARK  10 active torsions:
REMARK  status: ('A' for Active; 'I' for Inactive)
REMARK    1  A    between atoms: C_1  and  C_2
REMARK    2  A    between atoms: C_4  and  N_5
REMARK    3  A    between atoms: N_5  and  C_6
REMARK    4  A    between atoms: C_6  and  C_7
REMARK    5  A    between atoms: C_7  and  C_8
REMARK    6  A    between atoms: C_7  and  C_9
REMARK    7  A    between atoms: C_7  and  C_10
REMARK    8  A    between atoms: C_10  and  O_11
REMARK    9  A    between atoms: N_14  and  C_15
REMARK   10  A    between atoms: N_14  and  C_16
REMARK                            x       y       z     vdW  Elec       q    Type
REMARK                         _______ _______ _______ _____ _____    ______ ____
ROOT
ATOM      1  C   UNL     1       2.363   2.893  21.615  0.00  0.00    +0.000 C 
ATOM      2  C   UNL     1       2.850   3.734  20.476  0.00  0.00    +0.000 A 
ATOM      3  C   UNL     1       3.755   3.244  19.568  0.00  0.00    +0.000 A 
ATOM      4  C   UNL     1       4.151   4.101  18.563  0.00  0.00    +0.000 A 
ATOM      5  N   UNL     1       3.696   5.353  18.487  0.00  0.00    +0.000 NA
ATOM      6  C   UNL     1       2.814   5.785  19.409  0.00  0.00    +0.000 A 
ATOM      7  N   UNL     1       2.316   7.066  19.316  0.00  0.00    +0.000 N 
ATOM      8  C   UNL     1       2.824   7.979  18.317  0.00  0.00    +0.000 C 
ATOM      9  C   UNL     1       1.535   7.620  20.406  0.00  0.00    +0.000 C 
ATOM     10  N   UNL     1       2.379   4.992  20.404  0.00  0.00    +0.000 NA
ENDROOT
BRANCH   4  11
ATOM     11  N   UNL     1       5.157   3.647  17.695  0.00  0.00    +0.000 N 
ATOM     12  H   UNL     1       5.482   2.729  17.992  0.00  0.00    +0.000 HD
BRANCH  11  13
ATOM     13  C   UNL     1       4.877   3.686  16.256  0.00  0.00    +0.000 C 
BRANCH  13  14
ATOM     14  C   UNL     1       5.938   4.561  15.530  0.00  0.00    +0.000 C 
ATOM     15  C   UNL     1       7.269   4.559  16.308  0.00  0.00    +0.000 C 
ATOM     16  C   UNL     1       6.199   3.973  14.130  0.00  0.00    +0.000 C 
BRANCH  14  17
ATOM     17  C   UNL     1       5.419   6.009  15.349  0.00  0.00    +0.000 C 
BRANCH  17  18
ATOM     18  O   UNL     1       5.659   6.825  16.488  0.00  0.00    +0.000 OA
ATOM     19  H   UNL     1       4.815   7.306  16.644  0.00  0.00    +0.000 HD
ENDBRANCH  17  18
ENDBRANCH  14  17
ENDBRANCH  13  14
ENDBRANCH  11  13
ENDBRANCH   4  11
TORSDOF 5
ENDMDL
