MODEL 1
REMARK VINA RESULT:      -6.9      0.000      0.000
REMARK  Name = 
REMARK  5 active torsions:
REMARK  status: ('A' for Active; 'I' for Inactive)
REMARK    1  A    between atoms: C_1  and  O_2
REMARK    2  A    between atoms: O_2  and  C_3
REMARK    3  A    between atoms: C_8  and  C_9
REMARK    4  A    between atoms: C_9  and  N_10
REMARK    5  A    between atoms: C_11  and  C_13
REMARK                            x       y       z     vdW  Elec       q    Type
REMARK                         _______ _______ _______ _____ _____    ______ ____
ROOT
ATOM      1  N   UNL     1       5.173   4.726  17.225  0.00  0.00    +0.000 N 
ATOM      2  C   UNL     1       5.799   5.755  16.547  0.00  0.00    +0.000 C 
ATOM      3  O   UNL     1       5.534   6.029  15.380  0.00  0.00    +0.000 OA
ATOM      4  H   UNL     1       5.328   4.650  18.223  0.00  0.00    +0.000 HD
ENDROOT
BRANCH   2   5
ATOM      5  C   UNL     1       6.784   6.482  17.321  0.00  0.00    +0.000 A 
ATOM      6  C   UNL     1       7.598   6.069  18.364  0.00  0.00    +0.000 A 
ATOM      7  C   UNL     1       8.360   7.193  18.761  0.00  0.00    +0.000 A 
ATOM      8  C   UNL     1       7.973   8.225  17.939  0.00  0.00    +0.000 A 
ATOM      9 BR   UNL     1       8.643   9.965  18.010  0.00  0.00    +0.000 Br
ATOM     10  O   UNL     1       7.025   7.804  17.058  0.00  0.00    +0.000 OA
ENDBRANCH   2   5
BRANCH   1  11
ATOM     11  C   UNL     1       4.063   4.001  16.650  0.00  0.00    +0.000 C 
BRANCH  11  17
ATOM     12  C   UNL     1       2.318   4.657  18.408  0.00  0.00    +0.000 A 
ATOM     13  C   UNL     1       1.330   4.278  19.329  0.00  0.00    +0.000 A 
ATOM     14  C   UNL     1       0.966   2.936  19.471  0.00  0.00    +0.000 A 
ATOM     15  C   UNL     1       1.594   1.963  18.708  0.00  0.00    +0.000 A 
ATOM     16  C   UNL     1       2.604   2.325  17.816  0.00  0.00    +0.000 A 
ATOM     17  C   UNL     1       2.986   3.671  17.657  0.00  0.00    +0.000 A 
BRANCH  12  19
ATOM     18  C   UNL     1       2.511   6.836  19.314  0.00  0.00    +0.000 C 
ATOM     19  O   UNL     1       2.695   5.960  18.202  0.00  0.00    +0.000 OA
ENDBRANCH  12  19
ENDBRANCH  11  17
ENDBRANCH   1  11
TORSDOF 4
ENDMDL
MODEL 2
REMARK VINA RESULT:      -6.9      3.155      3.670
REMARK  Name = 
REMARK  5 active torsions:
REMARK  status: ('A' for Active; 'I' for Inactive)
REMARK    1  A    between atoms: C_1  and  O_2
REMARK    2  A    between atoms: O_2  and  C_3
REMARK    3  A    between atoms: C_8  and  C_9
REMARK    4  A    between atoms: C_9  and  N_10
REMARK    5  A    between atoms: C_11  and  C_13
REMARK                            x       y       z     vdW  Elec       q    Type
REMARK                         _______ _______ _______ _____ _____    ______ ____
ROOT
ATOM      1  N   UNL     1       5.205   3.668  17.884  0.00  0.00    +0.000 N 
ATOM      2  C   UNL     1       6.416   4.215  17.505  0.00  0.00    +0.000 C 
ATOM      3  O   UNL     1       7.278   4.529  18.321  0.00  0.00    +0.000 OA
ATOM      4  H   UNL     1       4.603   3.295  17.159  0.00  0.00    +0.000 HD
ENDROOT
BRANCH   2   5
ATOM      5  C   UNL     1       6.586   4.386  16.077  0.00  0.00    +0.000 A 
ATOM      6  C   UNL     1       7.363   5.281  15.361  0.00  0.00    +0.000 A 
ATOM      7  C   UNL     1       7.138   5.015  13.989  0.00  0.00    +0.000 A 
ATOM      8  C   UNL     1       6.242   3.973  13.946  0.00  0.00    +0.000 A 
ATOM      9 BR   UNL     1       5.570   3.199  12.386  0.00  0.00    +0.000 Br
ATOM     10  O   UNL     1       5.906   3.579  15.204  0.00  0.00    +0.000 OA
ENDBRANCH   2   5
BRANCH   1  11
ATOM     11  C   UNL     1       4.934   3.293  19.253  0.00  0.00    +0.000 C 
BRANCH  11  17
ATOM     12  C   UNL     1       3.015   4.930  19.704  0.00  0.00    +0.000 A 
ATOM     13  C   UNL     1       1.696   5.159  20.124  0.00  0.00    +0.000 A 
ATOM     14  C   UNL     1       0.867   4.092  20.479  0.00  0.00    +0.000 A 
ATOM     15  C   UNL     1       1.350   2.793  20.430  0.00  0.00    +0.000 A 
ATOM     16  C   UNL     1       2.671   2.557  20.050  0.00  0.00    +0.000 A 
ATOM     17  C   UNL     1       3.524   3.618  19.689  0.00  0.00    +0.000 A 
BRANCH  12  19
ATOM     18  C   UNL     1       3.442   6.694  18.184  0.00  0.00    +0.000 C 
ATOM     19  O   UNL     1       3.866   5.934  19.315  0.00  0.00    +0.000 OA
ENDBRANCH  12  19
ENDBRANCH  11  17
ENDBRANCH   1  11
TORSDOF 4
ENDMDL
MODEL 3
REMARK VINA RESULT:      -6.9      2.815      3.824
REMARK  Name = 
REMARK  5 active torsions:
REMARK  status: ('A' for Active; 'I' for Inactive)
REMARK    1  A    between atoms: C_1  and  O_2
REMARK    2  A    between atoms: O_2  and  C_3
REMARK    3  A    between atoms: C_8  and  C_9
REMARK    4  A    between atoms: C_9  and  N_10
REMARK    5  A    between atoms: C_11  and  C_13
REMARK                            x       y       z     vdW  Elec       q    Type
REMARK                         _______ _______ _______ _____ _____    ______ ____
ROOT
ATOM      1  N   UNL     1       5.137   5.342  18.004  0.00  0.00    +0.000 N 
ATOM      2  C   UNL     1       6.326   4.777  17.586  0.00  0.00    +0.000 C 
ATOM      3  O   UNL     1       7.216   4.463  18.371  0.00  0.00    +0.000 OA
ATOM      4  H   UNL     1       4.391   5.437  17.326  0.00  0.00    +0.000 HD
ENDROOT
BRANCH   2   5
ATOM      5  C   UNL     1       6.437   4.583  16.154  0.00  0.00    +0.000 A 
ATOM      6  C   UNL     1       5.783   3.702  15.309  0.00  0.00    +0.000 A 
ATOM      7  C   UNL     1       6.287   3.932  14.006  0.00  0.00    +0.000 A 
ATOM      8  C   UNL     1       7.214   4.940  14.129  0.00  0.00    +0.000 A 
ATOM      9 BR   UNL     1       8.213   5.658  12.726  0.00  0.00    +0.000 Br
ATOM     10  O   UNL     1       7.308   5.347  15.424  0.00  0.00    +0.000 OA
ENDBRANCH   2   5
BRANCH   1  11
ATOM     11  C   UNL     1       4.804   5.465  19.405  0.00  0.00    +0.000 C 
BRANCH  11  17
ATOM     12  C   UNL     1       3.340   3.402  19.811  0.00  0.00    +0.000 A 
ATOM     13  C   UNL     1       2.094   2.852  20.149  0.00  0.00    +0.000 A 
ATOM     14  C   UNL     1       1.020   3.679  20.488  0.00  0.00    +0.000 A 
ATOM     15  C   UNL     1       1.176   5.057  20.479  0.00  0.00    +0.000 A 
ATOM     16  C   UNL     1       2.400   5.614  20.109  0.00  0.00    +0.000 A 
ATOM     17  C   UNL     1       3.496   4.800  19.764  0.00  0.00    +0.000 A 
BRANCH  12  19
ATOM     18  C   UNL     1       4.855   1.720  20.508  0.00  0.00    +0.000 C 
ATOM     19  O   UNL     1       4.439   2.641  19.500  0.00  0.00    +0.000 OA
ENDBRANCH  12  19
ENDBRANCH  11  17
ENDBRANCH   1  11
TORSDOF 4
ENDMDL
MODEL 4
REMARK VINA RESULT:      -6.8      2.668      3.281
REMARK  Name = 
REMARK  5 active torsions:
REMARK  status: ('A' for Active; 'I' for Inactive)
REMARK    1  A    between atoms: C_1  and  O_2
REMARK    2  A    between atoms: O_2  and  C_3
REMARK    3  A    between atoms: C_8  and  C_9
REMARK    4  A    between atoms: C_9  and  N_10
REMARK    5  A    between atoms: C_11  and  C_13
REMARK                            x       y       z     vdW  Elec       q    Type
REMARK                         _______ _______ _______ _____ _____    ______ ____
ROOT
ATOM      1  N   UNL     1       5.324   3.946  17.912  0.00  0.00    +0.000 N 
ATOM      2  C   UNL     1       6.433   4.570  17.377  0.00  0.00    +0.000 C 
ATOM      3  O   UNL     1       7.270   5.134  18.076  0.00  0.00    +0.000 OA
ATOM      4  H   UNL     1       4.756   3.374  17.298  0.00  0.00    +0.000 HD
ENDROOT
BRANCH   2   5
ATOM      5  C   UNL     1       6.531   4.503  15.933  0.00  0.00    +0.000 A 
ATOM      6  C   UNL     1       5.830   3.738  15.015  0.00  0.00    +0.000 A 
ATOM      7  C   UNL     1       6.342   4.062  13.735  0.00  0.00    +0.000 A 
ATOM      8  C   UNL     1       7.320   5.005  13.944  0.00  0.00    +0.000 A 
ATOM      9 BR   UNL     1       8.350   5.798  12.605  0.00  0.00    +0.000 Br
ATOM     10  O   UNL     1       7.438   5.286  15.270  0.00  0.00    +0.000 OA
ENDBRANCH   2   5
BRANCH   1  11
ATOM     11  C   UNL     1       5.152   3.789  19.339  0.00  0.00    +0.000 C 
BRANCH  11  17
ATOM     12  C   UNL     1       2.912   4.988  19.672  0.00  0.00    +0.000 A 
ATOM     13  C   UNL     1       1.575   4.954  20.095  0.00  0.00    +0.000 A 
ATOM     14  C   UNL     1       1.008   3.767  20.566  0.00  0.00    +0.000 A 
ATOM     15  C   UNL     1       1.772   2.612  20.631  0.00  0.00    +0.000 A 
ATOM     16  C   UNL     1       3.113   2.643  20.247  0.00  0.00    +0.000 A 
ATOM     17  C   UNL     1       3.704   3.829  19.770  0.00  0.00    +0.000 A 
BRANCH  12  19
ATOM     18  C   UNL     1       2.634   7.078  18.593  0.00  0.00    +0.000 C 
ATOM     19  O   UNL     1       3.515   6.115  19.171  0.00  0.00    +0.000 OA
ENDBRANCH  12  19
ENDBRANCH  11  17
ENDBRANCH   1  11
TORSDOF 4
ENDMDL
MODEL 5
REMARK VINA RESULT:      -6.7      1.990      2.414
REMARK  Name = 
REMARK  5 active torsions:
REMARK  status: ('A' for Active; 'I' for Inactive)
REMARK    1  A    between atoms: C_1  and  O_2
REMARK    2  A    between atoms: O_2  and  C_3
REMARK    3  A    between atoms: C_8  and  C_9
REMARK    4  A    between atoms: C_9  and  N_10
REMARK    5  A    between atoms: C_11  and  C_13
REMARK                            x       y       z     vdW  Elec       q    Type
REMARK                         _______ _______ _______ _____ _____    ______ ____
ROOT
ATOM      1  N   UNL     1       5.117   3.847  17.862  0.00  0.00    +0.000 N 
ATOM      2  C   UNL     1       5.118   5.172  17.470  0.00  0.00    +0.000 C 
ATOM      3  O   UNL     1       4.194   5.669  16.834  0.00  0.00    +0.000 OA
ATOM      4  H   UNL     1       5.834   3.541  18.509  0.00  0.00    +0.000 HD
ENDROOT
BRANCH   2   5
ATOM      5  C   UNL     1       6.291   5.923  17.870  0.00  0.00    +0.000 A 
ATOM      6  C   UNL     1       7.376   5.556  18.649  0.00  0.00    +0.000 A 
ATOM      7  C   UNL     1       8.224   6.686  18.731  0.00  0.00    +0.000 A 
ATOM      8  C   UNL     1       7.612   7.675  17.997  0.00  0.00    +0.000 A 
ATOM      9 BR   UNL     1       8.278   9.401  17.756  0.00  0.00    +0.000 Br
ATOM     10  O   UNL     1       6.445   7.221  17.465  0.00  0.00    +0.000 OA
ENDBRANCH   2   5
BRANCH   1  11
ATOM     11  C   UNL     1       3.961   2.999  17.676  0.00  0.00    +0.000 C 
BRANCH  11  17
ATOM     12  C   UNL     1       3.522   2.605  20.169  0.00  0.00    +0.000 A 
ATOM     13  C   UNL     1       2.626   2.580  21.249  0.00  0.00    +0.000 A 
ATOM     14  C   UNL     1       1.289   2.945  21.073  0.00  0.00    +0.000 A 
ATOM     15  C   UNL     1       0.834   3.325  19.819  0.00  0.00    +0.000 A 
ATOM     16  C   UNL     1       1.707   3.318  18.732  0.00  0.00    +0.000 A 
ATOM     17  C   UNL     1       3.058   2.953  18.887  0.00  0.00    +0.000 A 
BRANCH  12  19
ATOM     18  C   UNL     1       5.149   1.203  21.165  0.00  0.00    +0.000 C 
ATOM     19  O   UNL     1       4.852   2.288  20.287  0.00  0.00    +0.000 OA
ENDBRANCH  12  19
ENDBRANCH  11  17
ENDBRANCH   1  11
TORSDOF 4
ENDMDL
MODEL 6
REMARK VINA RESULT:      -6.6      3.402      4.492
REMARK  Name = 
REMARK  5 active torsions:
REMARK  status: ('A' for Active; 'I' for Inactive)
REMARK    1  A    between atoms: C_1  and  O_2
REMARK    2  A    between atoms: O_2  and  C_3
REMARK    3  A    between atoms: C_8  and  C_9
REMARK    4  A    between atoms: C_9  and  N_10
REMARK    5  A    between atoms: C_11  and  C_13
REMARK                            x       y       z     vdW  Elec       q    Type
REMARK                         _______ _______ _______ _____ _____    ______ ____
ROOT
ATOM      1  N   UNL     1       5.620   4.595  16.965  0.00  0.00    +0.000 N 
ATOM      2  C   UNL     1       6.847   4.475  16.342  0.00  0.00    +0.000 C 
ATOM      3  O   UNL     1       7.901   4.436  16.971  0.00  0.00    +0.000 OA
ATOM      4  H   UNL     1       4.786   4.471  16.402  0.00  0.00    +0.000 HD
ENDROOT
BRANCH   2   5
ATOM      5  C   UNL     1       6.791   4.396  14.897  0.00  0.00    +0.000 A 
ATOM      6  C   UNL     1       7.553   5.028  13.928  0.00  0.00    +0.000 A 
ATOM      7  C   UNL     1       7.059   4.599  12.672  0.00  0.00    +0.000 A 
ATOM      8  C   UNL     1       6.029   3.730  12.946  0.00  0.00    +0.000 A 
ATOM      9 BR   UNL     1       4.994   2.854  11.663  0.00  0.00    +0.000 Br
ATOM     10  O   UNL     1       5.863   3.594  14.289  0.00  0.00    +0.000 OA
ENDBRANCH   2   5
BRANCH   1  11
ATOM     11  C   UNL     1       5.486   4.536  18.403  0.00  0.00    +0.000 C 
BRANCH  11  17
ATOM     12  C   UNL     1       3.161   3.470  18.556  0.00  0.00    +0.000 A 
ATOM     13  C   UNL     1       1.836   3.522  19.015  0.00  0.00    +0.000 A 
ATOM     14  C   UNL     1       1.402   4.580  19.817  0.00  0.00    +0.000 A 
ATOM     15  C   UNL     1       2.280   5.599  20.156  0.00  0.00    +0.000 A 
ATOM     16  C   UNL     1       3.589   5.576  19.674  0.00  0.00    +0.000 A 
ATOM     17  C   UNL     1       4.047   4.519  18.864  0.00  0.00    +0.000 A 
BRANCH  12  19
ATOM     18  C   UNL     1       3.784   1.187  18.460  0.00  0.00    +0.000 C 
ATOM     19  O   UNL     1       3.653   2.441  17.792  0.00  0.00    +0.000 OA
ENDBRANCH  12  19
ENDBRANCH  11  17
ENDBRANCH   1  11
TORSDOF 4
ENDMDL
MODEL 7
REMARK VINA RESULT:      -6.6      3.139      4.212
REMARK  Name = 
REMARK  5 active torsions:
REMARK  status: ('A' for Active; 'I' for Inactive)
REMARK    1  A    between atoms: C_1  and  O_2
REMARK    2  A    between atoms: O_2  and  C_3
REMARK    3  A    between atoms: C_8  and  C_9
REMARK    4  A    between atoms: C_9  and  N_10
REMARK    5  A    between atoms: C_11  and  C_13
REMARK                            x       y       z     vdW  Elec       q    Type
REMARK                         _______ _______ _______ _____ _____    ______ ____
ROOT
ATOM      1  N   UNL     1       5.390   4.497  17.887  0.00  0.00    +0.000 N 
ATOM      2  C   UNL     1       5.316   5.421  16.863  0.00  0.00    +0.000 C 
ATOM      3  O   UNL     1       4.870   6.553  17.031  0.00  0.00    +0.000 OA
ATOM      4  H   UNL     1       5.903   3.640  17.719  0.00  0.00    +0.000 HD
ENDROOT
BRANCH   2   5
ATOM      5  C   UNL     1       5.804   4.951  15.583  0.00  0.00    +0.000 A 
ATOM      6  C   UNL     1       7.077   4.973  15.038  0.00  0.00    +0.000 A 
ATOM      7  C   UNL     1       6.983   4.394  13.750  0.00  0.00    +0.000 A 
ATOM      8  C   UNL     1       5.663   4.049  13.583  0.00  0.00    +0.000 A 
ATOM      9 BR   UNL     1       4.947   3.248  12.057  0.00  0.00    +0.000 Br
ATOM     10  O   UNL     1       4.941   4.375  14.689  0.00  0.00    +0.000 OA
ENDBRANCH   2   5
BRANCH   1  11
ATOM     11  C   UNL     1       5.087   4.851  19.255  0.00  0.00    +0.000 C 
BRANCH  11  17
ATOM     12  C   UNL     1       3.229   3.158  19.756  0.00  0.00    +0.000 A 
ATOM     13  C   UNL     1       1.905   2.896  20.137  0.00  0.00    +0.000 A 
ATOM     14  C   UNL     1       1.040   3.941  20.472  0.00  0.00    +0.000 A 
ATOM     15  C   UNL     1       1.485   5.254  20.418  0.00  0.00    +0.000 A 
ATOM     16  C   UNL     1       2.789   5.528  20.005  0.00  0.00    +0.000 A 
ATOM     17  C   UNL     1       3.677   4.489  19.662  0.00  0.00    +0.000 A 
BRANCH  12  19
ATOM     18  C   UNL     1       3.739   1.285  18.401  0.00  0.00    +0.000 C 
ATOM     19  O   UNL     1       4.133   2.173  19.446  0.00  0.00    +0.000 OA
ENDBRANCH  12  19
ENDBRANCH  11  17
ENDBRANCH   1  11
TORSDOF 4
ENDMDL
MODEL 8
REMARK VINA RESULT:      -6.6      3.568      4.492
REMARK  Name = 
REMARK  5 active torsions:
REMARK  status: ('A' for Active; 'I' for Inactive)
REMARK    1  A    between atoms: C_1  and  O_2
REMARK    2  A    between atoms: O_2  and  C_3
REMARK    3  A    between atoms: C_8  and  C_9
REMARK    4  A    between atoms: C_9  and  N_10
REMARK    5  A    between atoms: C_11  and  C_13
REMARK                            x       y       z     vdW  Elec       q    Type
REMARK                         _______ _______ _______ _____ _____    ______ ____
ROOT
ATOM      1  N   UNL     1       6.282   6.069  16.140  0.00  0.00    +0.000 N 
ATOM      2  C   UNL     1       7.101   5.027  15.753  0.00  0.00    +0.000 C 
ATOM      3  O   UNL     1       7.834   4.440  16.544  0.00  0.00    +0.000 OA
ATOM      4  H   UNL     1       5.597   6.409  15.475  0.00  0.00    +0.000 HD
ENDROOT
BRANCH   2   5
ATOM      5  C   UNL     1       7.026   4.683  14.348  0.00  0.00    +0.000 A 
ATOM      6  C   UNL     1       7.705   5.195  13.255  0.00  0.00    +0.000 A 
ATOM      7  C   UNL     1       7.231   4.503  12.115  0.00  0.00    +0.000 A 
ATOM      8  C   UNL     1       6.295   3.607  12.576  0.00  0.00    +0.000 A 
ATOM      9 BR   UNL     1       5.326   2.422  11.508  0.00  0.00    +0.000 Br
ATOM     10  O   UNL     1       6.168   3.702  13.927  0.00  0.00    +0.000 OA
ENDBRANCH   2   5
BRANCH   1  11
ATOM     11  C   UNL     1       6.124   6.440  17.528  0.00  0.00    +0.000 C 
BRANCH  11  17
ATOM     12  C   UNL     1       3.623   6.306  18.066  0.00  0.00    +0.000 A 
ATOM     13  C   UNL     1       2.558   5.653  18.704  0.00  0.00    +0.000 A 
ATOM     14  C   UNL     1       2.771   4.468  19.412  0.00  0.00    +0.000 A 
ATOM     15  C   UNL     1       4.048   3.934  19.500  0.00  0.00    +0.000 A 
ATOM     16  C   UNL     1       5.120   4.595  18.901  0.00  0.00    +0.000 A 
ATOM     17  C   UNL     1       4.927   5.791  18.183  0.00  0.00    +0.000 A 
BRANCH  12  19
ATOM     18  C   UNL     1       2.495   8.374  17.823  0.00  0.00    +0.000 C 
ATOM     19  O   UNL     1       3.470   7.455  17.331  0.00  0.00    +0.000 OA
ENDBRANCH  12  19
ENDBRANCH  11  17
ENDBRANCH   1  11
TORSDOF 4
ENDMDL
MODEL 9
REMARK VINA RESULT:      -6.5      3.581      4.772
REMARK  Name = 
REMARK  5 active torsions:
REMARK  status: ('A' for Active; 'I' for Inactive)
REMARK    1  A    between atoms: C_1  and  O_2
REMARK    2  A    between atoms: O_2  and  C_3
REMARK    3  A    between atoms: C_8  and  C_9
REMARK    4  A    between atoms: C_9  and  N_10
REMARK    5  A    between atoms: C_11  and  C_13
REMARK                            x       y       z     vdW  Elec       q    Type
REMARK                         _______ _______ _______ _____ _____    ______ ____
ROOT
ATOM      1  N   UNL     1       5.823   4.138  16.520  0.00  0.00    +0.000 N 
ATOM      2  C   UNL     1       6.594   4.891  15.656  0.00  0.00    +0.000 C 
ATOM      3  O   UNL     1       7.291   5.825  16.043  0.00  0.00    +0.000 OA
ATOM      4  H   UNL     1       5.393   3.293  16.162  0.00  0.00    +0.000 HD
ENDROOT
BRANCH   2   5
ATOM      5  C   UNL     1       6.517   4.491  14.266  0.00  0.00    +0.000 A 
ATOM      6  C   UNL     1       7.473   4.515  13.265  0.00  0.00    +0.000 A 
ATOM      7  C   UNL     1       6.853   4.023  12.091  0.00  0.00    +0.000 A 
ATOM      8  C   UNL     1       5.558   3.723  12.443  0.00  0.00    +0.000 A 
ATOM      9 BR   UNL     1       4.262   3.040  11.288  0.00  0.00    +0.000 Br
ATOM     10  O   UNL     1       5.345   3.995  13.759  0.00  0.00    +0.000 OA
ENDBRANCH   2   5
BRANCH   1  11
ATOM     11  C   UNL     1       5.900   4.306  17.954  0.00  0.00    +0.000 C 
BRANCH  11  17
ATOM     12  C   UNL     1       3.782   3.746  19.282  0.00  0.00    +0.000 A 
ATOM     13  C   UNL     1       2.560   4.156  19.835  0.00  0.00    +0.000 A 
ATOM     14  C   UNL     1       2.145   5.487  19.738  0.00  0.00    +0.000 A 
ATOM     15  C   UNL     1       2.939   6.414  19.080  0.00  0.00    +0.000 A 
ATOM     16  C   UNL     1       4.138   6.010  18.494  0.00  0.00    +0.000 A 
ATOM     17  C   UNL     1       4.575   4.673  18.580  0.00  0.00    +0.000 A 
BRANCH  12  19
ATOM     18  C   UNL     1       3.615   1.509  18.525  0.00  0.00    +0.000 C 
ATOM     19  O   UNL     1       4.257   2.462  19.372  0.00  0.00    +0.000 OA
ENDBRANCH  12  19
ENDBRANCH  11  17
ENDBRANCH   1  11
TORSDOF 4
ENDMDL
