MODEL 1
REMARK VINA RESULT:      -6.9      0.000      0.000
REMARK  Name = 
REMARK  10 active torsions:
REMARK  status: ('A' for Active; 'I' for Inactive)
REMARK    1  A    between atoms: C_2  and  C_3
REMARK    2  A    between atoms: C_3  and  N_4
REMARK    3  A    between atoms: N_4  and  C_5
REMARK    4  A    between atoms: N_4  and  C_8
REMARK    5  A    between atoms: C_5  and  C_6
REMARK    6  A    between atoms: C_8  and  C_9
REMARK    7  A    between atoms: C_10  and  C_11
REMARK    8  A    between atoms: C_14  and  C_15
REMARK    9  A    between atoms: C_16  and  C_17
REMARK   10  A    between atoms: C_21  and  O_22
REMARK                            x       y       z     vdW  Elec       q    Type
REMARK                         _______ _______ _______ _____ _____    ______ ____
ROOT
ATOM      1  C   UNL     1       3.976   5.398  18.336  0.00  0.00    +0.000 A 
ATOM      2  C   UNL     1       3.292   5.206  19.531  0.00  0.00    +0.000 A 
ATOM      3  C   UNL     1       3.372   3.949  20.347  0.00  0.00    +0.000 C 
ATOM      4  N   UNL     1       2.457   6.145  20.060  0.00  0.00    +0.000 NA
ATOM      5  C   UNL     1       2.245   7.325  19.441  0.00  0.00    +0.000 A 
ATOM      6  C   UNL     1       1.394   8.295  20.024  0.00  0.00    +0.000 A 
ATOM      7  C   UNL     1       0.754   8.015  21.365  0.00  0.00    +0.000 C 
ATOM      8  C   UNL     1       1.125   9.522  19.370  0.00  0.00    +0.000 A 
ATOM      9  C   UNL     1       0.156  10.554  19.883  0.00  0.00    +0.000 C 
ATOM     10  C   UNL     1       1.756   9.791  18.158  0.00  0.00    +0.000 A 
ATOM     11  C   UNL     1       2.611   8.853  17.588  0.00  0.00    +0.000 A 
ATOM     12  C   UNL     1       2.858   7.606  18.204  0.00  0.00    +0.000 A 
ATOM     13  C   UNL     1       3.710   6.605  17.668  0.00  0.00    +0.000 A 
ENDROOT
BRANCH  13  14
ATOM     14  O   UNL     1       4.327   6.770  16.447  0.00  0.00    +0.000 OA
ATOM     15  H   UNL     1       3.671   6.796  15.737  0.00  0.00    +0.000 HD
ENDBRANCH  13  14
BRANCH   1  16
ATOM     16  C   UNL     1       5.046   4.456  17.806  0.00  0.00    +0.000 C 
BRANCH  16  17
ATOM     17  N   UNL     1       6.256   5.053  17.179  0.00  0.00    +0.000 NA
BRANCH  17  18
ATOM     18  C   UNL     1       7.329   5.177  18.188  0.00  0.00    +0.000 C 
BRANCH  18  20
ATOM     19  C   UNL     1       7.629   7.597  17.558  0.00  0.00    +0.000 C 
ATOM     20  C   UNL     1       7.717   6.606  18.458  0.00  0.00    +0.000 C 
ENDBRANCH  18  20
ENDBRANCH  17  18
BRANCH  17  21
ATOM     21  C   UNL     1       6.713   4.155  16.087  0.00  0.00    +0.000 C 
BRANCH  21  22
ATOM     22  C   UNL     1       6.535   4.624  14.663  0.00  0.00    +0.000 C 
ATOM     23  C   UNL     1       6.162   3.919  13.589  0.00  0.00    +0.000 C 
ENDBRANCH  21  22
ENDBRANCH  17  21
ENDBRANCH  16  17
ENDBRANCH   1  16
TORSDOF 7
ENDMDL
MODEL 2
REMARK VINA RESULT:      -6.7      1.032      1.191
REMARK  Name = 
REMARK  10 active torsions:
REMARK  status: ('A' for Active; 'I' for Inactive)
REMARK    1  A    between atoms: C_2  and  C_3
REMARK    2  A    between atoms: C_3  and  N_4
REMARK    3  A    between atoms: N_4  and  C_5
REMARK    4  A    between atoms: N_4  and  C_8
REMARK    5  A    between atoms: C_5  and  C_6
REMARK    6  A    between atoms: C_8  and  C_9
REMARK    7  A    between atoms: C_10  and  C_11
REMARK    8  A    between atoms: C_14  and  C_15
REMARK    9  A    between atoms: C_16  and  C_17
REMARK   10  A    between atoms: C_21  and  O_22
REMARK                            x       y       z     vdW  Elec       q    Type
REMARK                         _______ _______ _______ _____ _____    ______ ____
ROOT
ATOM      1  C   UNL     1       3.072   5.832  18.977  0.00  0.00    +0.000 A 
ATOM      2  C   UNL     1       2.359   5.775  20.169  0.00  0.00    +0.000 A 
ATOM      3  C   UNL     1       2.296   4.561  21.048  0.00  0.00    +0.000 C 
ATOM      4  N   UNL     1       1.624   6.824  20.637  0.00  0.00    +0.000 NA
ATOM      5  C   UNL     1       1.546   7.986  19.956  0.00  0.00    +0.000 A 
ATOM      6  C   UNL     1       0.797   9.070  20.476  0.00  0.00    +0.000 A 
ATOM      7  C   UNL     1       0.117   8.930  21.819  0.00  0.00    +0.000 C 
ATOM      8  C   UNL     1       0.668  10.283  19.758  0.00  0.00    +0.000 A 
ATOM      9  C   UNL     1      -0.189  11.438  20.203  0.00  0.00    +0.000 C 
ATOM     10  C   UNL     1       1.337  10.421  18.543  0.00  0.00    +0.000 A 
ATOM     11  C   UNL     1       2.093   9.370  18.035  0.00  0.00    +0.000 A 
ATOM     12  C   UNL     1       2.199   8.137  18.716  0.00  0.00    +0.000 A 
ATOM     13  C   UNL     1       2.944   7.025  18.244  0.00  0.00    +0.000 A 
ENDROOT
BRANCH  13  14
ATOM     14  O   UNL     1       3.588   7.060  17.027  0.00  0.00    +0.000 OA
ATOM     15  H   UNL     1       4.465   6.660  17.097  0.00  0.00    +0.000 HD
ENDBRANCH  13  14
BRANCH   1  16
ATOM     16  C   UNL     1       4.041   4.756  18.511  0.00  0.00    +0.000 C 
BRANCH  16  17
ATOM     17  N   UNL     1       5.385   5.181  18.038  0.00  0.00    +0.000 NA
BRANCH  17  18
ATOM     18  C   UNL     1       6.268   5.419  19.199  0.00  0.00    +0.000 C 
BRANCH  18  20
ATOM     19  C   UNL     1       7.917   7.064  18.241  0.00  0.00    +0.000 C 
ATOM     20  C   UNL     1       7.647   5.876  18.802  0.00  0.00    +0.000 C 
ENDBRANCH  18  20
ENDBRANCH  17  18
BRANCH  17  21
ATOM     21  C   UNL     1       5.958   4.093  17.203  0.00  0.00    +0.000 C 
BRANCH  21  22
ATOM     22  C   UNL     1       5.871   4.232  15.702  0.00  0.00    +0.000 C 
ATOM     23  C   UNL     1       5.717   5.341  14.972  0.00  0.00    +0.000 C 
ENDBRANCH  21  22
ENDBRANCH  17  21
ENDBRANCH  16  17
ENDBRANCH   1  16
TORSDOF 7
ENDMDL
MODEL 3
REMARK VINA RESULT:      -6.7      2.237      3.957
REMARK  Name = 
REMARK  10 active torsions:
REMARK  status: ('A' for Active; 'I' for Inactive)
REMARK    1  A    between atoms: C_2  and  C_3
REMARK    2  A    between atoms: C_3  and  N_4
REMARK    3  A    between atoms: N_4  and  C_5
REMARK    4  A    between atoms: N_4  and  C_8
REMARK    5  A    between atoms: C_5  and  C_6
REMARK    6  A    between atoms: C_8  and  C_9
REMARK    7  A    between atoms: C_10  and  C_11
REMARK    8  A    between atoms: C_14  and  C_15
REMARK    9  A    between atoms: C_16  and  C_17
REMARK   10  A    between atoms: C_21  and  O_22
REMARK                            x       y       z     vdW  Elec       q    Type
REMARK                         _______ _______ _______ _____ _____    ______ ____
ROOT
ATOM      1  C   UNL     1       4.596   5.417  16.878  0.00  0.00    +0.000 A 
ATOM      2  C   UNL     1       3.880   6.335  17.639  0.00  0.00    +0.000 A 
ATOM      3  C   UNL     1       3.914   7.817  17.409  0.00  0.00    +0.000 C 
ATOM      4  N   UNL     1       3.095   5.965  18.690  0.00  0.00    +0.000 NA
ATOM      5  C   UNL     1       2.973   4.671  19.055  0.00  0.00    +0.000 A 
ATOM      6  C   UNL     1       2.130   4.310  20.134  0.00  0.00    +0.000 A 
ATOM      7  C   UNL     1       1.337   5.379  20.851  0.00  0.00    +0.000 C 
ATOM      8  C   UNL     1       2.021   2.964  20.559  0.00  0.00    +0.000 A 
ATOM      9  C   UNL     1       1.223   2.522  21.757  0.00  0.00    +0.000 C 
ATOM     10  C   UNL     1       2.718   1.979  19.863  0.00  0.00    +0.000 A 
ATOM     11  C   UNL     1       3.531   2.322  18.788  0.00  0.00    +0.000 A 
ATOM     12  C   UNL     1       3.687   3.664  18.376  0.00  0.00    +0.000 A 
ATOM     13  C   UNL     1       4.509   4.078  17.295  0.00  0.00    +0.000 A 
ENDROOT
BRANCH  13  14
ATOM     14  O   UNL     1       5.274   3.174  16.593  0.00  0.00    +0.000 OA
ATOM     15  H   UNL     1       5.844   3.632  15.960  0.00  0.00    +0.000 HD
ENDBRANCH  13  14
BRANCH   1  16
ATOM     16  C   UNL     1       5.337   5.766  15.596  0.00  0.00    +0.000 C 
BRANCH  16  17
ATOM     17  N   UNL     1       6.817   5.902  15.658  0.00  0.00    +0.000 NA
BRANCH  17  18
ATOM     18  C   UNL     1       7.290   5.567  17.017  0.00  0.00    +0.000 C 
BRANCH  18  20
ATOM     19  C   UNL     1       7.711   8.021  17.394  0.00  0.00    +0.000 C 
ATOM     20  C   UNL     1       7.523   6.783  17.874  0.00  0.00    +0.000 C 
ENDBRANCH  18  20
ENDBRANCH  17  18
BRANCH  17  21
ATOM     21  C   UNL     1       7.419   4.956  14.683  0.00  0.00    +0.000 C 
BRANCH  21  22
ATOM     22  C   UNL     1       6.665   4.683  13.403  0.00  0.00    +0.000 C 
ATOM     23  C   UNL     1       6.190   3.521  12.944  0.00  0.00    +0.000 C 
ENDBRANCH  21  22
ENDBRANCH  17  21
ENDBRANCH  16  17
ENDBRANCH   1  16
TORSDOF 7
ENDMDL
MODEL 4
REMARK VINA RESULT:      -6.7      1.706      2.797
REMARK  Name = 
REMARK  10 active torsions:
REMARK  status: ('A' for Active; 'I' for Inactive)
REMARK    1  A    between atoms: C_2  and  C_3
REMARK    2  A    between atoms: C_3  and  N_4
REMARK    3  A    between atoms: N_4  and  C_5
REMARK    4  A    between atoms: N_4  and  C_8
REMARK    5  A    between atoms: C_5  and  C_6
REMARK    6  A    between atoms: C_8  and  C_9
REMARK    7  A    between atoms: C_10  and  C_11
REMARK    8  A    between atoms: C_14  and  C_15
REMARK    9  A    between atoms: C_16  and  C_17
REMARK   10  A    between atoms: C_21  and  O_22
REMARK                            x       y       z     vdW  Elec       q    Type
REMARK                         _______ _______ _______ _____ _____    ______ ____
ROOT
ATOM      1  C   UNL     1       3.245   5.867  19.105  0.00  0.00    +0.000 A 
ATOM      2  C   UNL     1       2.450   5.792  20.243  0.00  0.00    +0.000 A 
ATOM      3  C   UNL     1       2.395   4.595  21.147  0.00  0.00    +0.000 C 
ATOM      4  N   UNL     1       1.620   6.802  20.628  0.00  0.00    +0.000 NA
ATOM      5  C   UNL     1       1.522   7.943  19.913  0.00  0.00    +0.000 A 
ATOM      6  C   UNL     1       0.672   8.988  20.348  0.00  0.00    +0.000 A 
ATOM      7  C   UNL     1      -0.096   8.835  21.642  0.00  0.00    +0.000 C 
ATOM      8  C   UNL     1       0.524  10.175  19.591  0.00  0.00    +0.000 A 
ATOM      9  C   UNL     1      -0.433  11.283  19.942  0.00  0.00    +0.000 C 
ATOM     10  C   UNL     1       1.272  10.329  18.426  0.00  0.00    +0.000 A 
ATOM     11  C   UNL     1       2.126   9.316  18.001  0.00  0.00    +0.000 A 
ATOM     12  C   UNL     1       2.255   8.107  18.721  0.00  0.00    +0.000 A 
ATOM     13  C   UNL     1       3.100   7.033  18.334  0.00  0.00    +0.000 A 
ENDROOT
BRANCH  13  14
ATOM     14  O   UNL     1       3.829   7.082  17.167  0.00  0.00    +0.000 OA
ATOM     15  H   UNL     1       4.538   6.425  17.182  0.00  0.00    +0.000 HD
ENDBRANCH  13  14
BRANCH   1  16
ATOM     16  C   UNL     1       4.310   4.843  18.740  0.00  0.00    +0.000 C 
BRANCH  16  17
ATOM     17  N   UNL     1       4.062   3.965  17.566  0.00  0.00    +0.000 NA
BRANCH  17  18
ATOM     18  C   UNL     1       5.316   3.791  16.802  0.00  0.00    +0.000 C 
BRANCH  18  20
ATOM     19  C   UNL     1       6.109   5.183  14.859  0.00  0.00    +0.000 C 
ATOM     20  C   UNL     1       5.227   4.330  15.399  0.00  0.00    +0.000 C 
ENDBRANCH  18  20
ENDBRANCH  17  18
BRANCH  17  21
ATOM     21  C   UNL     1       3.601   2.640  18.057  0.00  0.00    +0.000 C 
BRANCH  21  22
ATOM     22  C   UNL     1       2.154   2.268  17.837  0.00  0.00    +0.000 C 
ATOM     23  C   UNL     1       1.136   2.318  18.703  0.00  0.00    +0.000 C 
ENDBRANCH  21  22
ENDBRANCH  17  21
ENDBRANCH  16  17
ENDBRANCH   1  16
TORSDOF 7
ENDMDL
MODEL 5
REMARK VINA RESULT:      -6.6      0.523      2.126
REMARK  Name = 
REMARK  10 active torsions:
REMARK  status: ('A' for Active; 'I' for Inactive)
REMARK    1  A    between atoms: C_2  and  C_3
REMARK    2  A    between atoms: C_3  and  N_4
REMARK    3  A    between atoms: N_4  and  C_5
REMARK    4  A    between atoms: N_4  and  C_8
REMARK    5  A    between atoms: C_5  and  C_6
REMARK    6  A    between atoms: C_8  and  C_9
REMARK    7  A    between atoms: C_10  and  C_11
REMARK    8  A    between atoms: C_14  and  C_15
REMARK    9  A    between atoms: C_16  and  C_17
REMARK   10  A    between atoms: C_21  and  O_22
REMARK                            x       y       z     vdW  Elec       q    Type
REMARK                         _______ _______ _______ _____ _____    ______ ____
ROOT
ATOM      1  C   UNL     1       4.031   5.229  18.341  0.00  0.00    +0.000 A 
ATOM      2  C   UNL     1       3.346   5.057  19.538  0.00  0.00    +0.000 A 
ATOM      3  C   UNL     1       3.410   3.807  20.366  0.00  0.00    +0.000 C 
ATOM      4  N   UNL     1       2.524   6.012  20.058  0.00  0.00    +0.000 NA
ATOM      5  C   UNL     1       2.328   7.189  19.428  0.00  0.00    +0.000 A 
ATOM      6  C   UNL     1       1.490   8.176  20.002  0.00  0.00    +0.000 A 
ATOM      7  C   UNL     1       0.848   7.919  21.347  0.00  0.00    +0.000 C 
ATOM      8  C   UNL     1       1.238   9.400  19.337  0.00  0.00    +0.000 A 
ATOM      9  C   UNL     1       0.284  10.451  19.841  0.00  0.00    +0.000 C 
ATOM     10  C   UNL     1       1.872   9.649  18.121  0.00  0.00    +0.000 A 
ATOM     11  C   UNL     1       2.713   8.695  17.560  0.00  0.00    +0.000 A 
ATOM     12  C   UNL     1       2.944   7.450  18.188  0.00  0.00    +0.000 A 
ATOM     13  C   UNL     1       3.782   6.433  17.661  0.00  0.00    +0.000 A 
ENDROOT
BRANCH  13  14
ATOM     14  O   UNL     1       4.399   6.577  16.438  0.00  0.00    +0.000 OA
ATOM     15  H   UNL     1       5.007   5.842  16.277  0.00  0.00    +0.000 HD
ENDBRANCH  13  14
BRANCH   1  16
ATOM     16  C   UNL     1       5.089   4.267  17.819  0.00  0.00    +0.000 C 
BRANCH  16  17
ATOM     17  N   UNL     1       6.502   4.495  18.221  0.00  0.00    +0.000 NA
BRANCH  17  18
ATOM     18  C   UNL     1       7.382   4.367  17.041  0.00  0.00    +0.000 C 
BRANCH  18  20
ATOM     19  C   UNL     1       6.872   4.789  14.611  0.00  0.00    +0.000 C 
ATOM     20  C   UNL     1       6.618   4.150  15.762  0.00  0.00    +0.000 C 
ENDBRANCH  18  20
ENDBRANCH  17  18
BRANCH  17  21
ATOM     21  C   UNL     1       6.619   5.870  18.773  0.00  0.00    +0.000 C 
BRANCH  21  22
ATOM     22  C   UNL     1       7.712   6.760  18.230  0.00  0.00    +0.000 C 
ATOM     23  C   UNL     1       7.604   7.967  17.664  0.00  0.00    +0.000 C 
ENDBRANCH  21  22
ENDBRANCH  17  21
ENDBRANCH  16  17
ENDBRANCH   1  16
TORSDOF 7
ENDMDL
MODEL 6
REMARK VINA RESULT:      -6.6      2.448      4.813
REMARK  Name = 
REMARK  10 active torsions:
REMARK  status: ('A' for Active; 'I' for Inactive)
REMARK    1  A    between atoms: C_2  and  C_3
REMARK    2  A    between atoms: C_3  and  N_4
REMARK    3  A    between atoms: N_4  and  C_5
REMARK    4  A    between atoms: N_4  and  C_8
REMARK    5  A    between atoms: C_5  and  C_6
REMARK    6  A    between atoms: C_8  and  C_9
REMARK    7  A    between atoms: C_10  and  C_11
REMARK    8  A    between atoms: C_14  and  C_15
REMARK    9  A    between atoms: C_16  and  C_17
REMARK   10  A    between atoms: C_21  and  O_22
REMARK                            x       y       z     vdW  Elec       q    Type
REMARK                         _______ _______ _______ _____ _____    ______ ____
ROOT
ATOM      1  C   UNL     1       4.527   4.861  16.772  0.00  0.00    +0.000 A 
ATOM      2  C   UNL     1       3.977   5.905  17.507  0.00  0.00    +0.000 A 
ATOM      3  C   UNL     1       4.177   7.355  17.178  0.00  0.00    +0.000 C 
ATOM      4  N   UNL     1       3.218   5.700  18.620  0.00  0.00    +0.000 NA
ATOM      5  C   UNL     1       2.960   4.456  19.076  0.00  0.00    +0.000 A 
ATOM      6  C   UNL     1       2.147   4.268  20.220  0.00  0.00    +0.000 A 
ATOM      7  C   UNL     1       1.536   5.469  20.905  0.00  0.00    +0.000 C 
ATOM      8  C   UNL     1       1.900   2.974  20.738  0.00  0.00    +0.000 A 
ATOM      9  C   UNL     1       1.128   2.708  22.003  0.00  0.00    +0.000 C 
ATOM     10  C   UNL     1       2.427   1.869  20.073  0.00  0.00    +0.000 A 
ATOM     11  C   UNL     1       3.209   2.043  18.935  0.00  0.00    +0.000 A 
ATOM     12  C   UNL     1       3.502   3.328  18.428  0.00  0.00    +0.000 A 
ATOM     13  C   UNL     1       4.302   3.570  17.280  0.00  0.00    +0.000 A 
ENDROOT
BRANCH  13  14
ATOM     14  O   UNL     1       4.906   2.537  16.599  0.00  0.00    +0.000 OA
ATOM     15  H   UNL     1       4.518   1.689  16.856  0.00  0.00    +0.000 HD
ENDBRANCH  13  14
BRANCH   1  16
ATOM     16  C   UNL     1       5.226   5.038  15.432  0.00  0.00    +0.000 C 
BRANCH  16  17
ATOM     17  N   UNL     1       6.538   4.366  15.233  0.00  0.00    +0.000 NA
BRANCH  17  18
ATOM     18  C   UNL     1       6.924   4.441  13.808  0.00  0.00    +0.000 C 
BRANCH  18  20
ATOM     19  C   UNL     1       6.382   2.886  11.902  0.00  0.00    +0.000 C 
ATOM     20  C   UNL     1       5.987   3.681  12.907  0.00  0.00    +0.000 C 
ENDBRANCH  18  20
ENDBRANCH  17  18
BRANCH  17  21
ATOM     21  C   UNL     1       7.557   5.071  16.053  0.00  0.00    +0.000 C 
BRANCH  21  22
ATOM     22  C   UNL     1       7.708   4.663  17.499  0.00  0.00    +0.000 C 
ATOM     23  C   UNL     1       7.627   5.423  18.596  0.00  0.00    +0.000 C 
ENDBRANCH  21  22
ENDBRANCH  17  21
ENDBRANCH  16  17
ENDBRANCH   1  16
TORSDOF 7
ENDMDL
MODEL 7
REMARK VINA RESULT:      -6.5      1.407      3.246
REMARK  Name = 
REMARK  10 active torsions:
REMARK  status: ('A' for Active; 'I' for Inactive)
REMARK    1  A    between atoms: C_2  and  C_3
REMARK    2  A    between atoms: C_3  and  N_4
REMARK    3  A    between atoms: N_4  and  C_5
REMARK    4  A    between atoms: N_4  and  C_8
REMARK    5  A    between atoms: C_5  and  C_6
REMARK    6  A    between atoms: C_8  and  C_9
REMARK    7  A    between atoms: C_10  and  C_11
REMARK    8  A    between atoms: C_14  and  C_15
REMARK    9  A    between atoms: C_16  and  C_17
REMARK   10  A    between atoms: C_21  and  O_22
REMARK                            x       y       z     vdW  Elec       q    Type
REMARK                         _______ _______ _______ _____ _____    ______ ____
ROOT
ATOM      1  C   UNL     1       4.010   5.794  18.100  0.00  0.00    +0.000 A 
ATOM      2  C   UNL     1       3.891   6.916  17.288  0.00  0.00    +0.000 A 
ATOM      3  C   UNL     1       4.644   7.103  16.003  0.00  0.00    +0.000 C 
ATOM      4  N   UNL     1       3.088   7.971  17.605  0.00  0.00    +0.000 NA
ATOM      5  C   UNL     1       2.359   7.983  18.742  0.00  0.00    +0.000 A 
ATOM      6  C   UNL     1       1.512   9.079  19.035  0.00  0.00    +0.000 A 
ATOM      7  C   UNL     1       1.398  10.219  18.048  0.00  0.00    +0.000 C 
ATOM      8  C   UNL     1       0.772   9.130  20.241  0.00  0.00    +0.000 A 
ATOM      9  C   UNL     1      -0.070  10.305  20.663  0.00  0.00    +0.000 C 
ATOM     10  C   UNL     1       0.846   8.054  21.123  0.00  0.00    +0.000 A 
ATOM     11  C   UNL     1       1.658   6.963  20.832  0.00  0.00    +0.000 A 
ATOM     12  C   UNL     1       2.437   6.913  19.654  0.00  0.00    +0.000 A 
ATOM     13  C   UNL     1       3.293   5.835  19.308  0.00  0.00    +0.000 A 
ENDROOT
BRANCH  13  14
ATOM     14  O   UNL     1       3.465   4.759  20.151  0.00  0.00    +0.000 OA
ATOM     15  H   UNL     1       4.137   4.159  19.800  0.00  0.00    +0.000 HD
ENDBRANCH  13  14
BRANCH   1  16
ATOM     16  C   UNL     1       4.752   4.528  17.700  0.00  0.00    +0.000 C 
BRANCH  16  17
ATOM     17  N   UNL     1       6.216   4.464  17.955  0.00  0.00    +0.000 NA
BRANCH  17  18
ATOM     18  C   UNL     1       6.939   4.352  16.671  0.00  0.00    +0.000 C 
BRANCH  18  20
ATOM     19  C   UNL     1       6.211   4.140  14.269  0.00  0.00    +0.000 C 
ATOM     20  C   UNL     1       6.081   3.805  15.561  0.00  0.00    +0.000 C 
ENDBRANCH  18  20
ENDBRANCH  17  18
BRANCH  17  21
ATOM     21  C   UNL     1       6.630   5.715  18.642  0.00  0.00    +0.000 C 
BRANCH  21  22
ATOM     22  C   UNL     1       7.738   6.531  18.020  0.00  0.00    +0.000 C 
ATOM     23  C   UNL     1       7.833   7.860  17.902  0.00  0.00    +0.000 C 
ENDBRANCH  21  22
ENDBRANCH  17  21
ENDBRANCH  16  17
ENDBRANCH   1  16
TORSDOF 7
ENDMDL
MODEL 8
REMARK VINA RESULT:      -6.5      1.860      3.136
REMARK  Name = 
REMARK  10 active torsions:
REMARK  status: ('A' for Active; 'I' for Inactive)
REMARK    1  A    between atoms: C_2  and  C_3
REMARK    2  A    between atoms: C_3  and  N_4
REMARK    3  A    between atoms: N_4  and  C_5
REMARK    4  A    between atoms: N_4  and  C_8
REMARK    5  A    between atoms: C_5  and  C_6
REMARK    6  A    between atoms: C_8  and  C_9
REMARK    7  A    between atoms: C_10  and  C_11
REMARK    8  A    between atoms: C_14  and  C_15
REMARK    9  A    between atoms: C_16  and  C_17
REMARK   10  A    between atoms: C_21  and  O_22
REMARK                            x       y       z     vdW  Elec       q    Type
REMARK                         _______ _______ _______ _____ _____    ______ ____
ROOT
ATOM      1  C   UNL     1       2.408   7.045  18.826  0.00  0.00    +0.000 A 
ATOM      2  C   UNL     1       1.980   6.672  20.095  0.00  0.00    +0.000 A 
ATOM      3  C   UNL     1       2.142   5.291  20.660  0.00  0.00    +0.000 C 
ATOM      4  N   UNL     1       1.344   7.534  20.939  0.00  0.00    +0.000 NA
ATOM      5  C   UNL     1       1.090   8.810  20.580  0.00  0.00    +0.000 A 
ATOM      6  C   UNL     1       0.452   9.692  21.485  0.00  0.00    +0.000 A 
ATOM      7  C   UNL     1       0.092   9.207  22.871  0.00  0.00    +0.000 C 
ATOM      8  C   UNL     1       0.139  11.022  21.113  0.00  0.00    +0.000 A 
ATOM      9  C   UNL     1      -0.624  11.983  21.987  0.00  0.00    +0.000 C 
ATOM     10  C   UNL     1       0.517  11.476  19.852  0.00  0.00    +0.000 A 
ATOM     11  C   UNL     1       1.164  10.622  18.964  0.00  0.00    +0.000 A 
ATOM     12  C   UNL     1       1.447   9.279  19.301  0.00  0.00    +0.000 A 
ATOM     13  C   UNL     1       2.093   8.358  18.436  0.00  0.00    +0.000 A 
ENDROOT
BRANCH  13  14
ATOM     14  O   UNL     1       2.448   8.710  17.153  0.00  0.00    +0.000 OA
ATOM     15  H   UNL     1       3.411   8.729  17.061  0.00  0.00    +0.000 HD
ENDBRANCH  13  14
BRANCH   1  16
ATOM     16  C   UNL     1       3.273   6.173  17.928  0.00  0.00    +0.000 C 
BRANCH  16  17
ATOM     17  N   UNL     1       4.702   5.992  18.295  0.00  0.00    +0.000 NA
BRANCH  17  18
ATOM     18  C   UNL     1       5.024   4.550  18.344  0.00  0.00    +0.000 C 
BRANCH  18  20
ATOM     19  C   UNL     1       3.569   2.540  17.912  0.00  0.00    +0.000 C 
ATOM     20  C   UNL     1       4.086   3.713  17.516  0.00  0.00    +0.000 C 
ENDBRANCH  18  20
ENDBRANCH  17  18
BRANCH  17  21
ATOM     21  C   UNL     1       5.542   6.645  17.258  0.00  0.00    +0.000 C 
BRANCH  21  22
ATOM     22  C   UNL     1       7.019   6.795  17.533  0.00  0.00    +0.000 C 
ATOM     23  C   UNL     1       7.749   7.914  17.601  0.00  0.00    +0.000 C 
ENDBRANCH  21  22
ENDBRANCH  17  21
ENDBRANCH  16  17
ENDBRANCH   1  16
TORSDOF 7
ENDMDL
MODEL 9
REMARK VINA RESULT:      -6.5      1.608      2.789
REMARK  Name = 
REMARK  10 active torsions:
REMARK  status: ('A' for Active; 'I' for Inactive)
REMARK    1  A    between atoms: C_2  and  C_3
REMARK    2  A    between atoms: C_3  and  N_4
REMARK    3  A    between atoms: N_4  and  C_5
REMARK    4  A    between atoms: N_4  and  C_8
REMARK    5  A    between atoms: C_5  and  C_6
REMARK    6  A    between atoms: C_8  and  C_9
REMARK    7  A    between atoms: C_10  and  C_11
REMARK    8  A    between atoms: C_14  and  C_15
REMARK    9  A    between atoms: C_16  and  C_17
REMARK   10  A    between atoms: C_21  and  O_22
REMARK                            x       y       z     vdW  Elec       q    Type
REMARK                         _______ _______ _______ _____ _____    ______ ____
ROOT
ATOM      1  C   UNL     1       2.477   6.791  18.861  0.00  0.00    +0.000 A 
ATOM      2  C   UNL     1       2.003   6.495  20.135  0.00  0.00    +0.000 A 
ATOM      3  C   UNL     1       2.104   5.140  20.771  0.00  0.00    +0.000 C 
ATOM      4  N   UNL     1       1.374   7.418  20.917  0.00  0.00    +0.000 NA
ATOM      5  C   UNL     1       1.172   8.682  20.489  0.00  0.00    +0.000 A 
ATOM      6  C   UNL     1       0.540   9.629  21.331  0.00  0.00    +0.000 A 
ATOM      7  C   UNL     1       0.127   9.225  22.729  0.00  0.00    +0.000 C 
ATOM      8  C   UNL     1       0.282  10.947  20.886  0.00  0.00    +0.000 A 
ATOM      9  C   UNL     1      -0.472  11.974  21.689  0.00  0.00    +0.000 C 
ATOM     10  C   UNL     1       0.708  11.325  19.614  0.00  0.00    +0.000 A 
ATOM     11  C   UNL     1       1.350  10.408  18.788  0.00  0.00    +0.000 A 
ATOM     12  C   UNL     1       1.578   9.075  19.199  0.00  0.00    +0.000 A 
ATOM     13  C   UNL     1       2.217   8.092  18.399  0.00  0.00    +0.000 A 
ENDROOT
BRANCH  13  14
ATOM     14  O   UNL     1       2.617   8.368  17.110  0.00  0.00    +0.000 OA
ATOM     15  H   UNL     1       1.991   7.996  16.474  0.00  0.00    +0.000 HD
ENDBRANCH  13  14
BRANCH   1  16
ATOM     16  C   UNL     1       3.336   5.848  18.032  0.00  0.00    +0.000 C 
BRANCH  16  17
ATOM     17  N   UNL     1       4.734   5.602  18.476  0.00  0.00    +0.000 NA
BRANCH  17  18
ATOM     18  C   UNL     1       4.988   4.148  18.539  0.00  0.00    +0.000 C 
BRANCH  18  20
ATOM     19  C   UNL     1       3.482   2.143  18.301  0.00  0.00    +0.000 C 
ATOM     20  C   UNL     1       3.912   3.336  17.867  0.00  0.00    +0.000 C 
ENDBRANCH  18  20
ENDBRANCH  17  18
BRANCH  17  21
ATOM     21  C   UNL     1       5.658   6.217  17.487  0.00  0.00    +0.000 C 
BRANCH  21  22
ATOM     22  C   UNL     1       5.244   6.214  16.034  0.00  0.00    +0.000 C 
ATOM     23  C   UNL     1       5.623   5.381  15.058  0.00  0.00    +0.000 C 
ENDBRANCH  21  22
ENDBRANCH  17  21
ENDBRANCH  16  17
ENDBRANCH   1  16
TORSDOF 7
ENDMDL
