MODEL 1
REMARK VINA RESULT:      -7.5      0.000      0.000
REMARK  Name = 
REMARK  5 active torsions:
REMARK  status: ('A' for Active; 'I' for Inactive)
REMARK    1  A    between atoms: C_1  and  N_2
REMARK    2  A    between atoms: C_5  and  N_6
REMARK    3  A    between atoms: C_7  and  C_9
REMARK    4  A    between atoms: C_9  and  O_10
REMARK    5  A    between atoms: O_10  and  C_11
REMARK                            x       y       z     vdW  Elec       q    Type
REMARK                         _______ _______ _______ _____ _____    ______ ____
ROOT
ATOM      1  N   UNL     1       6.354   3.860  18.705  0.00  0.00    +0.000 N 
ATOM      2  C   UNL     1       7.053   4.421  17.663  0.00  0.00    +0.000 C 
ATOM      3  O   UNL     1       8.285   4.412  17.693  0.00  0.00    +0.000 OA
ATOM      4  H   UNL     1       6.943   3.531  19.459  0.00  0.00    +0.000 HD
ENDROOT
BRANCH   1   9
ATOM      5  C   UNL     1       1.004   4.197  20.530  0.00  0.00    +0.000 C 
ATOM      6  N   UNL     1       2.461   4.117  20.428  0.00  0.00    +0.000 NA
ATOM      7  C   UNL     1       2.864   2.842  19.815  0.00  0.00    +0.000 C 
ATOM      8  C   UNL     1       4.387   2.733  19.693  0.00  0.00    +0.000 C 
ATOM      9  C   UNL     1       4.913   3.922  18.897  0.00  0.00    +0.000 C 
ATOM     10  C   UNL     1       4.497   5.222  19.589  0.00  0.00    +0.000 C 
ATOM     11  C   UNL     1       2.976   5.276  19.687  0.00  0.00    +0.000 C 
ENDBRANCH   1   9
BRANCH   2  12
ATOM     12  C   UNL     1       6.268   5.038  16.505  0.00  0.00    +0.000 C 
BRANCH  12  13
ATOM     13  O   UNL     1       7.170   5.420  15.476  0.00  0.00    +0.000 OA
BRANCH  13  14
ATOM     14  C   UNL     1       6.968   4.871  14.239  0.00  0.00    +0.000 A 
ATOM     15  C   UNL     1       5.804   4.101  14.135  0.00  0.00    +0.000 A 
ATOM     16  C   UNL     1       5.463   3.478  12.931  0.00  0.00    +0.000 A 
ATOM     17  C   UNL     1       6.284   3.622  11.815  0.00  0.00    +0.000 A 
ATOM     18  C   UNL     1       7.443   4.390  11.905  0.00  0.00    +0.000 A 
ATOM     19  C   UNL     1       7.779   5.008  13.109  0.00  0.00    +0.000 A 
ATOM     20  F   UNL     1       8.903   5.737  13.133  0.00  0.00    +0.000 F 
ENDBRANCH  13  14
ENDBRANCH  12  13
ENDBRANCH   2  12
TORSDOF 4
ENDMDL
MODEL 2
REMARK VINA RESULT:      -7.4      1.079      1.331
REMARK  Name = 
REMARK  5 active torsions:
REMARK  status: ('A' for Active; 'I' for Inactive)
REMARK    1  A    between atoms: C_1  and  N_2
REMARK    2  A    between atoms: C_5  and  N_6
REMARK    3  A    between atoms: C_7  and  C_9
REMARK    4  A    between atoms: C_9  and  O_10
REMARK    5  A    between atoms: O_10  and  C_11
REMARK                            x       y       z     vdW  Elec       q    Type
REMARK                         _______ _______ _______ _____ _____    ______ ____
ROOT
ATOM      1  N   UNL     1       6.142   3.798  18.369  0.00  0.00    +0.000 N 
ATOM      2  C   UNL     1       6.849   4.589  17.494  0.00  0.00    +0.000 C 
ATOM      3  O   UNL     1       8.077   4.626  17.576  0.00  0.00    +0.000 OA
ATOM      4  H   UNL     1       6.721   3.347  19.066  0.00  0.00    +0.000 HD
ENDROOT
BRANCH   1   9
ATOM      5  C   UNL     1       0.647   2.545  18.914  0.00  0.00    +0.000 C 
ATOM      6  N   UNL     1       2.101   2.493  18.753  0.00  0.00    +0.000 NA
ATOM      7  C   UNL     1       2.502   3.143  17.496  0.00  0.00    +0.000 C 
ATOM      8  C   UNL     1       4.021   3.107  17.304  0.00  0.00    +0.000 C 
ATOM      9  C   UNL     1       4.694   3.760  18.506  0.00  0.00    +0.000 C 
ATOM     10  C   UNL     1       4.272   3.032  19.783  0.00  0.00    +0.000 C 
ATOM     11  C   UNL     1       2.755   3.096  19.922  0.00  0.00    +0.000 C 
ENDBRANCH   1   9
BRANCH   2  12
ATOM     12  C   UNL     1       6.074   5.396  16.451  0.00  0.00    +0.000 C 
BRANCH  12  13
ATOM     13  O   UNL     1       6.936   5.713  15.367  0.00  0.00    +0.000 OA
BRANCH  13  14
ATOM     14  C   UNL     1       6.767   5.001  14.211  0.00  0.00    +0.000 A 
ATOM     15  C   UNL     1       5.622   4.196  14.195  0.00  0.00    +0.000 A 
ATOM     16  C   UNL     1       5.314   3.411  13.080  0.00  0.00    +0.000 A 
ATOM     17  C   UNL     1       6.150   3.426  11.965  0.00  0.00    +0.000 A 
ATOM     18  C   UNL     1       7.290   4.227  11.968  0.00  0.00    +0.000 A 
ATOM     19  C   UNL     1       7.593   5.006  13.084  0.00  0.00    +0.000 A 
ATOM     20  F   UNL     1       8.700   5.759  13.026  0.00  0.00    +0.000 F 
ENDBRANCH  13  14
ENDBRANCH  12  13
ENDBRANCH   2  12
TORSDOF 4
ENDMDL
MODEL 3
REMARK VINA RESULT:      -7.4      1.405      1.554
REMARK  Name = 
REMARK  5 active torsions:
REMARK  status: ('A' for Active; 'I' for Inactive)
REMARK    1  A    between atoms: C_1  and  N_2
REMARK    2  A    between atoms: C_5  and  N_6
REMARK    3  A    between atoms: C_7  and  C_9
REMARK    4  A    between atoms: C_9  and  O_10
REMARK    5  A    between atoms: O_10  and  C_11
REMARK                            x       y       z     vdW  Elec       q    Type
REMARK                         _______ _______ _______ _____ _____    ______ ____
ROOT
ATOM      1  N   UNL     1       5.409   6.142  18.258  0.00  0.00    +0.000 N 
ATOM      2  C   UNL     1       6.586   6.271  17.559  0.00  0.00    +0.000 C 
ATOM      3  O   UNL     1       7.242   7.307  17.673  0.00  0.00    +0.000 OA
ATOM      4  H   UNL     1       5.152   6.972  18.777  0.00  0.00    +0.000 HD
ENDROOT
BRANCH   1   9
ATOM      5  C   UNL     1       1.238   2.333  18.656  0.00  0.00    +0.000 C 
ATOM      6  N   UNL     1       2.177   3.431  18.885  0.00  0.00    +0.000 NA
ATOM      7  C   UNL     1       3.549   2.916  19.016  0.00  0.00    +0.000 C 
ATOM      8  C   UNL     1       4.554   4.046  19.253  0.00  0.00    +0.000 C 
ATOM      9  C   UNL     1       4.448   5.059  18.118  0.00  0.00    +0.000 C 
ATOM     10  C   UNL     1       3.014   5.589  18.041  0.00  0.00    +0.000 C 
ATOM     11  C   UNL     1       2.058   4.424  17.809  0.00  0.00    +0.000 C 
ENDBRANCH   1   9
BRANCH   2  12
ATOM     12  C   UNL     1       7.032   5.115  16.663  0.00  0.00    +0.000 C 
BRANCH  12  13
ATOM     13  O   UNL     1       7.505   5.634  15.427  0.00  0.00    +0.000 OA
BRANCH  13  14
ATOM     14  C   UNL     1       7.115   4.981  14.290  0.00  0.00    +0.000 A 
ATOM     15  C   UNL     1       5.974   4.187  14.447  0.00  0.00    +0.000 A 
ATOM     16  C   UNL     1       5.453   3.461  13.372  0.00  0.00    +0.000 A 
ATOM     17  C   UNL     1       6.070   3.524  12.124  0.00  0.00    +0.000 A 
ATOM     18  C   UNL     1       7.204   4.316  11.955  0.00  0.00    +0.000 A 
ATOM     19  C   UNL     1       7.720   5.036  13.031  0.00  0.00    +0.000 A 
ATOM     20  F   UNL     1       8.809   5.783  12.806  0.00  0.00    +0.000 F 
ENDBRANCH  13  14
ENDBRANCH  12  13
ENDBRANCH   2  12
TORSDOF 4
ENDMDL
MODEL 4
REMARK VINA RESULT:      -7.1      1.641      2.014
REMARK  Name = 
REMARK  5 active torsions:
REMARK  status: ('A' for Active; 'I' for Inactive)
REMARK    1  A    between atoms: C_1  and  N_2
REMARK    2  A    between atoms: C_5  and  N_6
REMARK    3  A    between atoms: C_7  and  C_9
REMARK    4  A    between atoms: C_9  and  O_10
REMARK    5  A    between atoms: O_10  and  C_11
REMARK                            x       y       z     vdW  Elec       q    Type
REMARK                         _______ _______ _______ _____ _____    ______ ____
ROOT
ATOM      1  N   UNL     1       6.063   5.466  18.990  0.00  0.00    +0.000 N 
ATOM      2  C   UNL     1       7.208   5.631  18.247  0.00  0.00    +0.000 C 
ATOM      3  O   UNL     1       8.049   6.451  18.616  0.00  0.00    +0.000 OA
ATOM      4  H   UNL     1       5.989   6.105  19.771  0.00  0.00    +0.000 HD
ENDROOT
BRANCH   1   9
ATOM      5  C   UNL     1       1.219   2.564  18.555  0.00  0.00    +0.000 C 
ATOM      6  N   UNL     1       2.350   3.368  19.021  0.00  0.00    +0.000 NA
ATOM      7  C   UNL     1       3.591   2.579  18.986  0.00  0.00    +0.000 C 
ATOM      8  C   UNL     1       4.792   3.398  19.465  0.00  0.00    +0.000 C 
ATOM      9  C   UNL     1       4.912   4.658  18.615  0.00  0.00    +0.000 C 
ATOM     10  C   UNL     1       3.612   5.460  18.708  0.00  0.00    +0.000 C 
ATOM     11  C   UNL     1       2.452   4.597  18.224  0.00  0.00    +0.000 C 
ENDBRANCH   1   9
BRANCH   2  12
ATOM     12  C   UNL     1       7.388   4.784  16.987  0.00  0.00    +0.000 C 
BRANCH  12  13
ATOM     13  O   UNL     1       7.192   5.600  15.840  0.00  0.00    +0.000 OA
BRANCH  13  14
ATOM     14  C   UNL     1       6.837   4.966  14.681  0.00  0.00    +0.000 A 
ATOM     15  C   UNL     1       7.746   5.139  13.630  0.00  0.00    +0.000 A 
ATOM     16  C   UNL     1       7.519   4.549  12.383  0.00  0.00    +0.000 A 
ATOM     17  C   UNL     1       6.379   3.775  12.175  0.00  0.00    +0.000 A 
ATOM     18  C   UNL     1       5.471   3.591  13.216  0.00  0.00    +0.000 A 
ATOM     19  C   UNL     1       5.701   4.184  14.456  0.00  0.00    +0.000 A 
ATOM     20  F   UNL     1       4.794   3.967  15.418  0.00  0.00    +0.000 F 
ENDBRANCH  13  14
ENDBRANCH  12  13
ENDBRANCH   2  12
TORSDOF 4
ENDMDL
MODEL 5
REMARK VINA RESULT:      -7.1      3.834      6.234
REMARK  Name = 
REMARK  5 active torsions:
REMARK  status: ('A' for Active; 'I' for Inactive)
REMARK    1  A    between atoms: C_1  and  N_2
REMARK    2  A    between atoms: C_5  and  N_6
REMARK    3  A    between atoms: C_7  and  C_9
REMARK    4  A    between atoms: C_9  and  O_10
REMARK    5  A    between atoms: O_10  and  C_11
REMARK                            x       y       z     vdW  Elec       q    Type
REMARK                         _______ _______ _______ _____ _____    ______ ____
ROOT
ATOM      1  N   UNL     1       4.346   5.345  17.638  0.00  0.00    +0.000 N 
ATOM      2  C   UNL     1       4.240   4.155  16.957  0.00  0.00    +0.000 C 
ATOM      3  O   UNL     1       5.253   3.645  16.478  0.00  0.00    +0.000 OA
ATOM      4  H   UNL     1       5.279   5.736  17.629  0.00  0.00    +0.000 HD
ENDROOT
BRANCH   1   9
ATOM      5  C   UNL     1       0.829   9.095  20.011  0.00  0.00    +0.000 C 
ATOM      6  N   UNL     1       1.999   8.328  19.581  0.00  0.00    +0.000 NA
ATOM      7  C   UNL     1       1.924   6.950  20.088  0.00  0.00    +0.000 C 
ATOM      8  C   UNL     1       3.136   6.123  19.649  0.00  0.00    +0.000 C 
ATOM      9  C   UNL     1       3.237   6.149  18.128  0.00  0.00    +0.000 C 
ATOM     10  C   UNL     1       3.344   7.599  17.651  0.00  0.00    +0.000 C 
ATOM     11  C   UNL     1       2.117   8.375  18.117  0.00  0.00    +0.000 C 
ENDBRANCH   1   9
BRANCH   2  12
ATOM     12  C   UNL     1       2.859   3.512  16.823  0.00  0.00    +0.000 C 
BRANCH  12  13
ATOM     13  O   UNL     1       2.794   2.359  17.650  0.00  0.00    +0.000 OA
BRANCH  13  14
ATOM     14  C   UNL     1       2.510   2.559  18.973  0.00  0.00    +0.000 A 
ATOM     15  C   UNL     1       1.185   2.932  19.226  0.00  0.00    +0.000 A 
ATOM     16  C   UNL     1       0.744   3.169  20.531  0.00  0.00    +0.000 A 
ATOM     17  C   UNL     1       1.627   3.033  21.600  0.00  0.00    +0.000 A 
ATOM     18  C   UNL     1       2.947   2.657  21.361  0.00  0.00    +0.000 A 
ATOM     19  C   UNL     1       3.382   2.424  20.058  0.00  0.00    +0.000 A 
ATOM     20  F   UNL     1       4.661   2.061  19.892  0.00  0.00    +0.000 F 
ENDBRANCH  13  14
ENDBRANCH  12  13
ENDBRANCH   2  12
TORSDOF 4
ENDMDL
MODEL 6
REMARK VINA RESULT:      -6.7      4.042      6.413
REMARK  Name = 
REMARK  5 active torsions:
REMARK  status: ('A' for Active; 'I' for Inactive)
REMARK    1  A    between atoms: C_1  and  N_2
REMARK    2  A    between atoms: C_5  and  N_6
REMARK    3  A    between atoms: C_7  and  C_9
REMARK    4  A    between atoms: C_9  and  O_10
REMARK    5  A    between atoms: O_10  and  C_11
REMARK                            x       y       z     vdW  Elec       q    Type
REMARK                         _______ _______ _______ _____ _____    ______ ____
ROOT
ATOM      1  N   UNL     1       4.320   5.415  17.397  0.00  0.00    +0.000 N 
ATOM      2  C   UNL     1       4.222   4.193  16.773  0.00  0.00    +0.000 C 
ATOM      3  O   UNL     1       5.199   3.747  16.170  0.00  0.00    +0.000 OA
ATOM      4  H   UNL     1       5.207   5.879  17.244  0.00  0.00    +0.000 HD
ENDROOT
BRANCH   1   9
ATOM      5  C   UNL     1       0.873   8.838  20.306  0.00  0.00    +0.000 C 
ATOM      6  N   UNL     1       2.030   8.136  19.749  0.00  0.00    +0.000 NA
ATOM      7  C   UNL     1       1.983   6.709  20.100  0.00  0.00    +0.000 C 
ATOM      8  C   UNL     1       3.182   5.949  19.526  0.00  0.00    +0.000 C 
ATOM      9  C   UNL     1       3.226   6.148  18.015  0.00  0.00    +0.000 C 
ATOM     10  C   UNL     1       3.305   7.643  17.701  0.00  0.00    +0.000 C 
ATOM     11  C   UNL     1       2.093   8.348  18.297  0.00  0.00    +0.000 C 
ENDBRANCH   1   9
BRANCH   2  12
ATOM     12  C   UNL     1       2.895   3.437  16.855  0.00  0.00    +0.000 C 
BRANCH  12  13
ATOM     13  O   UNL     1       3.038   2.330  17.734  0.00  0.00    +0.000 OA
BRANCH  13  14
ATOM     14  C   UNL     1       2.561   2.483  19.007  0.00  0.00    +0.000 A 
ATOM     15  C   UNL     1       3.544   2.418  20.001  0.00  0.00    +0.000 A 
ATOM     16  C   UNL     1       3.208   2.559  21.350  0.00  0.00    +0.000 A 
ATOM     17  C   UNL     1       1.882   2.770  21.720  0.00  0.00    +0.000 A 
ATOM     18  C   UNL     1       0.895   2.842  20.739  0.00  0.00    +0.000 A 
ATOM     19  C   UNL     1       1.235   2.698  19.395  0.00  0.00    +0.000 A 
ATOM     20  F   UNL     1       0.244   2.781  18.497  0.00  0.00    +0.000 F 
ENDBRANCH  13  14
ENDBRANCH  12  13
ENDBRANCH   2  12
TORSDOF 4
ENDMDL
MODEL 7
REMARK VINA RESULT:      -6.7      1.620      2.058
REMARK  Name = 
REMARK  5 active torsions:
REMARK  status: ('A' for Active; 'I' for Inactive)
REMARK    1  A    between atoms: C_1  and  N_2
REMARK    2  A    between atoms: C_5  and  N_6
REMARK    3  A    between atoms: C_7  and  C_9
REMARK    4  A    between atoms: C_9  and  O_10
REMARK    5  A    between atoms: O_10  and  C_11
REMARK                            x       y       z     vdW  Elec       q    Type
REMARK                         _______ _______ _______ _____ _____    ______ ____
ROOT
ATOM      1  N   UNL     1       5.425   6.640  18.106  0.00  0.00    +0.000 N 
ATOM      2  C   UNL     1       6.491   6.658  17.237  0.00  0.00    +0.000 C 
ATOM      3  O   UNL     1       7.039   7.731  16.980  0.00  0.00    +0.000 OA
ATOM      4  H   UNL     1       5.142   7.560  18.419  0.00  0.00    +0.000 HD
ENDROOT
BRANCH   1   9
ATOM      5  C   UNL     1       2.850   1.620  18.583  0.00  0.00    +0.000 C 
ATOM      6  N   UNL     1       3.737   2.726  18.221  0.00  0.00    +0.000 NA
ATOM      7  C   UNL     1       2.983   3.785  17.533  0.00  0.00    +0.000 C 
ATOM      8  C   UNL     1       3.887   4.959  17.146  0.00  0.00    +0.000 C 
ATOM      9  C   UNL     1       4.580   5.492  18.395  0.00  0.00    +0.000 C 
ATOM     10  C   UNL     1       5.375   4.365  19.057  0.00  0.00    +0.000 C 
ATOM     11  C   UNL     1       4.428   3.225  19.417  0.00  0.00    +0.000 C 
ENDBRANCH   1   9
BRANCH   2  12
ATOM     12  C   UNL     1       6.954   5.335  16.624  0.00  0.00    +0.000 C 
BRANCH  12  13
ATOM     13  O   UNL     1       7.679   5.599  15.430  0.00  0.00    +0.000 OA
BRANCH  13  14
ATOM     14  C   UNL     1       7.245   4.980  14.291  0.00  0.00    +0.000 A 
ATOM     15  C   UNL     1       6.155   4.123  14.483  0.00  0.00    +0.000 A 
ATOM     16  C   UNL     1       5.598   3.421  13.410  0.00  0.00    +0.000 A 
ATOM     17  C   UNL     1       6.126   3.572  12.129  0.00  0.00    +0.000 A 
ATOM     18  C   UNL     1       7.208   4.426  11.925  0.00  0.00    +0.000 A 
ATOM     19  C   UNL     1       7.760   5.122  13.000  0.00  0.00    +0.000 A 
ATOM     20  F   UNL     1       8.796   5.932  12.740  0.00  0.00    +0.000 F 
ENDBRANCH  13  14
ENDBRANCH  12  13
ENDBRANCH   2  12
TORSDOF 4
ENDMDL
MODEL 8
REMARK VINA RESULT:      -6.6      1.450      1.840
REMARK  Name = 
REMARK  5 active torsions:
REMARK  status: ('A' for Active; 'I' for Inactive)
REMARK    1  A    between atoms: C_1  and  N_2
REMARK    2  A    between atoms: C_5  and  N_6
REMARK    3  A    between atoms: C_7  and  C_9
REMARK    4  A    between atoms: C_9  and  O_10
REMARK    5  A    between atoms: O_10  and  C_11
REMARK                            x       y       z     vdW  Elec       q    Type
REMARK                         _______ _______ _______ _____ _____    ______ ____
ROOT
ATOM      1  N   UNL     1       6.132   3.821  18.220  0.00  0.00    +0.000 N 
ATOM      2  C   UNL     1       6.909   4.593  17.389  0.00  0.00    +0.000 C 
ATOM      3  O   UNL     1       8.130   4.435  17.390  0.00  0.00    +0.000 OA
ATOM      4  H   UNL     1       6.667   3.210  18.824  0.00  0.00    +0.000 HD
ENDROOT
BRANCH   1   9
ATOM      5  C   UNL     1       0.650   3.455  19.590  0.00  0.00    +0.000 C 
ATOM      6  N   UNL     1       2.075   3.199  19.376  0.00  0.00    +0.000 NA
ATOM      7  C   UNL     1       2.390   3.218  17.940  0.00  0.00    +0.000 C 
ATOM      8  C   UNL     1       3.878   2.956  17.687  0.00  0.00    +0.000 C 
ATOM      9  C   UNL     1       4.705   3.985  18.450  0.00  0.00    +0.000 C 
ATOM     10  C   UNL     1       4.366   3.906  19.940  0.00  0.00    +0.000 C 
ATOM     11  C   UNL     1       2.877   4.170  20.133  0.00  0.00    +0.000 C 
ENDBRANCH   1   9
BRANCH   2  12
ATOM     12  C   UNL     1       6.218   5.622  16.494  0.00  0.00    +0.000 C 
BRANCH  12  13
ATOM     13  O   UNL     1       6.991   5.816  15.317  0.00  0.00    +0.000 OA
BRANCH  13  14
ATOM     14  C   UNL     1       6.695   5.022  14.243  0.00  0.00    +0.000 A 
ATOM     15  C   UNL     1       7.652   5.058  13.222  0.00  0.00    +0.000 A 
ATOM     16  C   UNL     1       7.489   4.296  12.061  0.00  0.00    +0.000 A 
ATOM     17  C   UNL     1       6.366   3.486  11.911  0.00  0.00    +0.000 A 
ATOM     18  C   UNL     1       5.409   3.439  12.923  0.00  0.00    +0.000 A 
ATOM     19  C   UNL     1       5.576   4.202  14.077  0.00  0.00    +0.000 A 
ATOM     20  F   UNL     1       4.625   4.111  15.017  0.00  0.00    +0.000 F 
ENDBRANCH  13  14
ENDBRANCH  12  13
ENDBRANCH   2  12
TORSDOF 4
ENDMDL
MODEL 9
REMARK VINA RESULT:      -6.6      3.299      6.740
REMARK  Name = 
REMARK  5 active torsions:
REMARK  status: ('A' for Active; 'I' for Inactive)
REMARK    1  A    between atoms: C_1  and  N_2
REMARK    2  A    between atoms: C_5  and  N_6
REMARK    3  A    between atoms: C_7  and  C_9
REMARK    4  A    between atoms: C_9  and  O_10
REMARK    5  A    between atoms: O_10  and  C_11
REMARK                            x       y       z     vdW  Elec       q    Type
REMARK                         _______ _______ _______ _____ _____    ______ ____
ROOT
ATOM      1  N   UNL     1       6.964   5.063  17.730  0.00  0.00    +0.000 N 
ATOM      2  C   UNL     1       6.194   5.378  18.825  0.00  0.00    +0.000 C 
ATOM      3  O   UNL     1       6.693   5.316  19.949  0.00  0.00    +0.000 OA
ATOM      4  H   UNL     1       7.893   4.739  17.967  0.00  0.00    +0.000 HD
ENDROOT
BRANCH   1   9
ATOM      5  C   UNL     1       5.707   3.636  12.397  0.00  0.00    +0.000 C 
ATOM      6  N   UNL     1       6.249   3.697  13.755  0.00  0.00    +0.000 NA
ATOM      7  C   UNL     1       7.053   4.915  13.934  0.00  0.00    +0.000 C 
ATOM      8  C   UNL     1       7.630   5.005  15.349  0.00  0.00    +0.000 C 
ATOM      9  C   UNL     1       6.490   4.939  16.360  0.00  0.00    +0.000 C 
ATOM     10  C   UNL     1       5.704   3.643  16.156  0.00  0.00    +0.000 C 
ATOM     11  C   UNL     1       5.157   3.604  14.733  0.00  0.00    +0.000 C 
ENDBRANCH   1   9
BRANCH   2  12
ATOM     12  C   UNL     1       4.740   5.794  18.598  0.00  0.00    +0.000 C 
BRANCH  12  13
ATOM     13  O   UNL     1       3.978   5.491  19.759  0.00  0.00    +0.000 OA
BRANCH  13  14
ATOM     14  C   UNL     1       2.925   4.632  19.604  0.00  0.00    +0.000 A 
ATOM     15  C   UNL     1       2.611   4.344  18.271  0.00  0.00    +0.000 A 
ATOM     16  C   UNL     1       1.559   3.479  17.954  0.00  0.00    +0.000 A 
ATOM     17  C   UNL     1       0.811   2.889  18.971  0.00  0.00    +0.000 A 
ATOM     18  C   UNL     1       1.118   3.166  20.302  0.00  0.00    +0.000 A 
ATOM     19  C   UNL     1       2.166   4.030  20.612  0.00  0.00    +0.000 A 
ATOM     20  F   UNL     1       2.416   4.253  21.909  0.00  0.00    +0.000 F 
ENDBRANCH  13  14
ENDBRANCH  12  13
ENDBRANCH   2  12
TORSDOF 4
ENDMDL
