MODEL 1
REMARK VINA RESULT:      -7.1      0.000      0.000
REMARK  Name = 
REMARK  9 active torsions:
REMARK  status: ('A' for Active; 'I' for Inactive)
REMARK    1  A    between atoms: C_1  and  N_2
REMARK    2  A    between atoms: N_2  and  C_3
REMARK    3  A    between atoms: N_2  and  C_4
REMARK    4  A    between atoms: C_4  and  C_5
REMARK    5  A    between atoms: C_5  and  O_6
REMARK    6  A    between atoms: C_5  and  C_7
REMARK    7  A    between atoms: C_7  and  C_8
REMARK    8  A    between atoms: C_8  and  N_9
REMARK    9  A    between atoms: N_16  and  C_17
REMARK                            x       y       z     vdW  Elec       q    Type
REMARK                         _______ _______ _______ _____ _____    ______ ____
ROOT
ATOM      1  N   UNL     1       4.680   4.163  17.919  0.00  0.00    +0.000 N 
ATOM      2  C   UNL     1       3.365   3.636  18.199  0.00  0.00    +0.000 A 
ATOM      3  C   UNL     1       3.000   2.297  18.137  0.00  0.00    +0.000 A 
ATOM      4  C   UNL     1       1.748   1.916  18.626  0.00  0.00    +0.000 A 
ATOM      5  C   UNL     1       0.886   2.862  19.200  0.00  0.00    +0.000 A 
ATOM      6  C   UNL     1       1.273   4.200  19.308  0.00  0.00    +0.000 A 
ATOM      7  C   UNL     1       2.507   4.580  18.796  0.00  0.00    +0.000 A 
ATOM      8  N   UNL     1       3.168   5.828  19.033  0.00  0.00    +0.000 N 
ATOM      9  S   UNL     1       4.494   5.879  17.955  0.00  0.00    +0.000 S 
ATOM     10  O   UNL     1       4.033   6.307  16.651  0.00  0.00    +0.000 OA
ATOM     11  O   UNL     1       5.642   6.478  18.592  0.00  0.00    +0.000 OA
ENDROOT
BRANCH   8  12
ATOM     12  C   UNL     1       2.457   7.034  19.285  0.00  0.00    +0.000 A 
ATOM     13  C   UNL     1       1.912   7.356  20.531  0.00  0.00    +0.000 A 
ATOM     14  C   UNL     1       1.230   8.562  20.692  0.00  0.00    +0.000 A 
ATOM     15  C   UNL     1       1.068   9.433  19.614  0.00  0.00    +0.000 A 
ATOM     16  C   UNL     1       1.585   9.094  18.363  0.00  0.00    +0.000 A 
ATOM     17  C   UNL     1       2.269   7.892  18.198  0.00  0.00    +0.000 A 
ENDBRANCH   8  12
BRANCH   1  18
ATOM     18  C   UNL     1       5.465   3.618  16.792  0.00  0.00    +0.000 C 
BRANCH  18  19
ATOM     19  C   UNL     1       6.915   4.107  16.862  0.00  0.00    +0.000 C 
BRANCH  19  20
ATOM     20  C   UNL     1       7.282   4.877  15.591  0.00  0.00    +0.000 C 
BRANCH  20  21
ATOM     21  O   UNL     1       7.396   6.264  15.928  0.00  0.00    +0.000 OA
ATOM     22  H   UNL     1       6.743   6.449  16.626  0.00  0.00    +0.000 HD
ENDBRANCH  20  21
BRANCH  20  23
ATOM     23  C   UNL     1       6.237   4.657  14.464  0.00  0.00    +0.000 C 
BRANCH  23  25
ATOM     24  C   UNL     1       5.721   3.439  12.412  0.00  0.00    +0.000 C 
ATOM     25  N   UNL     1       6.782   4.000  13.255  0.00  0.00    +0.000 NA
ATOM     26  C   UNL     1       7.573   4.953  12.472  0.00  0.00    +0.000 C 
ENDBRANCH  23  25
ENDBRANCH  20  23
ENDBRANCH  19  20
ENDBRANCH  18  19
ENDBRANCH   1  18
TORSDOF 7
ENDMDL
MODEL 2
REMARK VINA RESULT:      -7.1      1.132      1.763
REMARK  Name = 
REMARK  9 active torsions:
REMARK  status: ('A' for Active; 'I' for Inactive)
REMARK    1  A    between atoms: C_1  and  N_2
REMARK    2  A    between atoms: N_2  and  C_3
REMARK    3  A    between atoms: N_2  and  C_4
REMARK    4  A    between atoms: C_4  and  C_5
REMARK    5  A    between atoms: C_5  and  O_6
REMARK    6  A    between atoms: C_5  and  C_7
REMARK    7  A    between atoms: C_7  and  C_8
REMARK    8  A    between atoms: C_8  and  N_9
REMARK    9  A    between atoms: N_16  and  C_17
REMARK                            x       y       z     vdW  Elec       q    Type
REMARK                         _______ _______ _______ _____ _____    ______ ____
ROOT
ATOM      1  N   UNL     1       5.354   4.550  17.392  0.00  0.00    +0.000 N 
ATOM      2  C   UNL     1       4.050   3.938  17.507  0.00  0.00    +0.000 A 
ATOM      3  C   UNL     1       3.779   2.582  17.383  0.00  0.00    +0.000 A 
ATOM      4  C   UNL     1       2.503   2.117  17.715  0.00  0.00    +0.000 A 
ATOM      5  C   UNL     1       1.524   2.997  18.196  0.00  0.00    +0.000 A 
ATOM      6  C   UNL     1       1.812   4.353  18.368  0.00  0.00    +0.000 A 
ATOM      7  C   UNL     1       3.071   4.817  18.012  0.00  0.00    +0.000 A 
ATOM      8  N   UNL     1       3.623   6.096  18.343  0.00  0.00    +0.000 N 
ATOM      9  S   UNL     1       5.059   6.250  17.431  0.00  0.00    +0.000 S 
ATOM     10  O   UNL     1       4.729   6.678  16.087  0.00  0.00    +0.000 OA
ATOM     11  O   UNL     1       6.086   6.902  18.207  0.00  0.00    +0.000 OA
ENDROOT
BRANCH   8  12
ATOM     12  C   UNL     1       2.813   7.252  18.527  0.00  0.00    +0.000 A 
ATOM     13  C   UNL     1       2.639   8.231  17.545  0.00  0.00    +0.000 A 
ATOM     14  C   UNL     1       1.826   9.333  17.809  0.00  0.00    +0.000 A 
ATOM     15  C   UNL     1       1.208   9.476  19.053  0.00  0.00    +0.000 A 
ATOM     16  C   UNL     1       1.410   8.513  20.042  0.00  0.00    +0.000 A 
ATOM     17  C   UNL     1       2.219   7.409  19.783  0.00  0.00    +0.000 A 
ENDBRANCH   8  12
BRANCH   1  18
ATOM     18  C   UNL     1       6.297   4.076  16.358  0.00  0.00    +0.000 C 
BRANCH  18  19
ATOM     19  C   UNL     1       5.644   4.129  14.972  0.00  0.00    +0.000 C 
BRANCH  19  20
ATOM     20  C   UNL     1       6.713   4.123  13.877  0.00  0.00    +0.000 C 
BRANCH  20  21
ATOM     21  O   UNL     1       7.555   5.266  14.069  0.00  0.00    +0.000 OA
ATOM     22  H   UNL     1       7.894   5.528  13.194  0.00  0.00    +0.000 HD
ENDBRANCH  20  21
BRANCH  20  23
ATOM     23  C   UNL     1       6.083   4.123  12.457  0.00  0.00    +0.000 C 
BRANCH  23  25
ATOM     24  C   UNL     1       4.108   3.268  11.305  0.00  0.00    +0.000 C 
ATOM     25  N   UNL     1       5.247   2.937  12.168  0.00  0.00    +0.000 NA
ATOM     26  C   UNL     1       6.053   1.892  11.529  0.00  0.00    +0.000 C 
ENDBRANCH  23  25
ENDBRANCH  20  23
ENDBRANCH  19  20
ENDBRANCH  18  19
ENDBRANCH   1  18
TORSDOF 7
ENDMDL
MODEL 3
REMARK VINA RESULT:      -6.8      0.627      1.306
REMARK  Name = 
REMARK  9 active torsions:
REMARK  status: ('A' for Active; 'I' for Inactive)
REMARK    1  A    between atoms: C_1  and  N_2
REMARK    2  A    between atoms: N_2  and  C_3
REMARK    3  A    between atoms: N_2  and  C_4
REMARK    4  A    between atoms: C_4  and  C_5
REMARK    5  A    between atoms: C_5  and  O_6
REMARK    6  A    between atoms: C_5  and  C_7
REMARK    7  A    between atoms: C_7  and  C_8
REMARK    8  A    between atoms: C_8  and  N_9
REMARK    9  A    between atoms: N_16  and  C_17
REMARK                            x       y       z     vdW  Elec       q    Type
REMARK                         _______ _______ _______ _____ _____    ______ ____
ROOT
ATOM      1  N   UNL     1       4.714   4.074  17.825  0.00  0.00    +0.000 N 
ATOM      2  C   UNL     1       3.397   3.559  18.119  0.00  0.00    +0.000 A 
ATOM      3  C   UNL     1       3.027   2.221  18.093  0.00  0.00    +0.000 A 
ATOM      4  C   UNL     1       1.773   1.859  18.592  0.00  0.00    +0.000 A 
ATOM      5  C   UNL     1       0.915   2.823  19.139  0.00  0.00    +0.000 A 
ATOM      6  C   UNL     1       1.307   4.162  19.211  0.00  0.00    +0.000 A 
ATOM      7  C   UNL     1       2.543   4.523  18.690  0.00  0.00    +0.000 A 
ATOM      8  N   UNL     1       3.209   5.774  18.892  0.00  0.00    +0.000 N 
ATOM      9  S   UNL     1       4.535   5.791  17.815  0.00  0.00    +0.000 S 
ATOM     10  O   UNL     1       4.077   6.185  16.498  0.00  0.00    +0.000 OA
ATOM     11  O   UNL     1       5.686   6.402  18.435  0.00  0.00    +0.000 OA
ENDROOT
BRANCH   8  12
ATOM     12  C   UNL     1       2.502   6.990  19.112  0.00  0.00    +0.000 A 
ATOM     13  C   UNL     1       2.305   7.952  18.118  0.00  0.00    +0.000 A 
ATOM     14  C   UNL     1       1.598   9.117  18.419  0.00  0.00    +0.000 A 
ATOM     15  C   UNL     1       1.111   9.336  19.708  0.00  0.00    +0.000 A 
ATOM     16  C   UNL     1       1.338   8.388  20.707  0.00  0.00    +0.000 A 
ATOM     17  C   UNL     1       2.041   7.222  20.411  0.00  0.00    +0.000 A 
ENDBRANCH   8  12
BRANCH   1  18
ATOM     18  C   UNL     1       5.497   3.495  16.713  0.00  0.00    +0.000 C 
BRANCH  18  19
ATOM     19  C   UNL     1       6.742   4.344  16.435  0.00  0.00    +0.000 C 
BRANCH  19  20
ATOM     20  C   UNL     1       6.853   4.655  14.940  0.00  0.00    +0.000 C 
BRANCH  20  21
ATOM     21  O   UNL     1       6.274   5.944  14.709  0.00  0.00    +0.000 OA
ATOM     22  H   UNL     1       6.338   6.125  13.755  0.00  0.00    +0.000 HD
ENDBRANCH  20  21
BRANCH  20  23
ATOM     23  C   UNL     1       6.164   3.567  14.073  0.00  0.00    +0.000 C 
BRANCH  23  25
ATOM     24  C   UNL     1       7.187   3.518  11.857  0.00  0.00    +0.000 C 
ATOM     25  N   UNL     1       6.022   3.932  12.646  0.00  0.00    +0.000 NA
ATOM     26  C   UNL     1       4.813   3.324  12.084  0.00  0.00    +0.000 C 
ENDBRANCH  23  25
ENDBRANCH  20  23
ENDBRANCH  19  20
ENDBRANCH  18  19
ENDBRANCH   1  18
TORSDOF 7
ENDMDL
MODEL 4
REMARK VINA RESULT:      -6.6      2.762      4.250
REMARK  Name = 
REMARK  9 active torsions:
REMARK  status: ('A' for Active; 'I' for Inactive)
REMARK    1  A    between atoms: C_1  and  N_2
REMARK    2  A    between atoms: N_2  and  C_3
REMARK    3  A    between atoms: N_2  and  C_4
REMARK    4  A    between atoms: C_4  and  C_5
REMARK    5  A    between atoms: C_5  and  O_6
REMARK    6  A    between atoms: C_5  and  C_7
REMARK    7  A    between atoms: C_7  and  C_8
REMARK    8  A    between atoms: C_8  and  N_9
REMARK    9  A    between atoms: N_16  and  C_17
REMARK                            x       y       z     vdW  Elec       q    Type
REMARK                         _______ _______ _______ _____ _____    ______ ____
ROOT
ATOM      1  N   UNL     1       5.018   4.132  16.275  0.00  0.00    +0.000 N 
ATOM      2  C   UNL     1       5.874   4.567  17.355  0.00  0.00    +0.000 A 
ATOM      3  C   UNL     1       7.118   5.165  17.210  0.00  0.00    +0.000 A 
ATOM      4  C   UNL     1       7.739   5.710  18.337  0.00  0.00    +0.000 A 
ATOM      5  C   UNL     1       7.104   5.683  19.587  0.00  0.00    +0.000 A 
ATOM      6  C   UNL     1       5.830   5.126  19.723  0.00  0.00    +0.000 A 
ATOM      7  C   UNL     1       5.228   4.562  18.607  0.00  0.00    +0.000 A 
ATOM      8  N   UNL     1       3.853   4.175  18.496  0.00  0.00    +0.000 N 
ATOM      9  S   UNL     1       3.719   3.292  17.040  0.00  0.00    +0.000 S 
ATOM     10  O   UNL     1       4.142   1.926  17.268  0.00  0.00    +0.000 OA
ATOM     11  O   UNL     1       2.479   3.603  16.370  0.00  0.00    +0.000 OA
ENDROOT
BRANCH   8  12
ATOM     12  C   UNL     1       3.087   3.749  19.617  0.00  0.00    +0.000 A 
ATOM     13  C   UNL     1       3.516   2.762  20.508  0.00  0.00    +0.000 A 
ATOM     14  C   UNL     1       2.701   2.405  21.583  0.00  0.00    +0.000 A 
ATOM     15  C   UNL     1       1.455   3.009  21.758  0.00  0.00    +0.000 A 
ATOM     16  C   UNL     1       1.016   3.972  20.849  0.00  0.00    +0.000 A 
ATOM     17  C   UNL     1       1.826   4.333  19.775  0.00  0.00    +0.000 A 
ENDBRANCH   8  12
BRANCH   1  18
ATOM     18  C   UNL     1       5.609   3.475  15.090  0.00  0.00    +0.000 C 
BRANCH  18  19
ATOM     19  C   UNL     1       5.765   4.479  13.943  0.00  0.00    +0.000 C 
BRANCH  19  20
ATOM     20  C   UNL     1       7.036   4.184  13.143  0.00  0.00    +0.000 C 
BRANCH  20  21
ATOM     21  O   UNL     1       7.756   5.412  12.982  0.00  0.00    +0.000 OA
ATOM     22  H   UNL     1       8.705   5.193  12.964  0.00  0.00    +0.000 HD
ENDBRANCH  20  21
BRANCH  20  23
ATOM     23  C   UNL     1       6.715   3.538  11.768  0.00  0.00    +0.000 C 
BRANCH  23  25
ATOM     24  C   UNL     1       4.408   2.969  11.205  0.00  0.00    +0.000 C 
ATOM     25  N   UNL     1       5.657   2.505  11.819  0.00  0.00    +0.000 NA
ATOM     26  C   UNL     1       6.107   1.284  11.143  0.00  0.00    +0.000 C 
ENDBRANCH  23  25
ENDBRANCH  20  23
ENDBRANCH  19  20
ENDBRANCH  18  19
ENDBRANCH   1  18
TORSDOF 7
ENDMDL
MODEL 5
REMARK VINA RESULT:      -6.6      2.402      7.236
REMARK  Name = 
REMARK  9 active torsions:
REMARK  status: ('A' for Active; 'I' for Inactive)
REMARK    1  A    between atoms: C_1  and  N_2
REMARK    2  A    between atoms: N_2  and  C_3
REMARK    3  A    between atoms: N_2  and  C_4
REMARK    4  A    between atoms: C_4  and  C_5
REMARK    5  A    between atoms: C_5  and  O_6
REMARK    6  A    between atoms: C_5  and  C_7
REMARK    7  A    between atoms: C_7  and  C_8
REMARK    8  A    between atoms: C_8  and  N_9
REMARK    9  A    between atoms: N_16  and  C_17
REMARK                            x       y       z     vdW  Elec       q    Type
REMARK                         _______ _______ _______ _____ _____    ______ ____
ROOT
ATOM      1  N   UNL     1       2.063   5.911  19.228  0.00  0.00    +0.000 N 
ATOM      2  C   UNL     1       2.017   4.478  19.051  0.00  0.00    +0.000 A 
ATOM      3  C   UNL     1       1.059   3.628  19.585  0.00  0.00    +0.000 A 
ATOM      4  C   UNL     1       1.031   2.295  19.166  0.00  0.00    +0.000 A 
ATOM      5  C   UNL     1       1.934   1.831  18.198  0.00  0.00    +0.000 A 
ATOM      6  C   UNL     1       2.867   2.699  17.624  0.00  0.00    +0.000 A 
ATOM      7  C   UNL     1       2.908   4.016  18.063  0.00  0.00    +0.000 A 
ATOM      8  N   UNL     1       3.609   5.092  17.430  0.00  0.00    +0.000 N 
ATOM      9  S   UNL     1       3.559   6.405  18.523  0.00  0.00    +0.000 S 
ATOM     10  O   UNL     1       4.598   6.239  19.518  0.00  0.00    +0.000 OA
ATOM     11  O   UNL     1       3.375   7.649  17.814  0.00  0.00    +0.000 OA
ENDROOT
BRANCH   8  12
ATOM     12  C   UNL     1       4.797   4.890  16.672  0.00  0.00    +0.000 A 
ATOM     13  C   UNL     1       4.816   4.836  15.276  0.00  0.00    +0.000 A 
ATOM     14  C   UNL     1       6.027   4.635  14.612  0.00  0.00    +0.000 A 
ATOM     15  C   UNL     1       7.209   4.463  15.333  0.00  0.00    +0.000 A 
ATOM     16  C   UNL     1       7.182   4.485  16.728  0.00  0.00    +0.000 A 
ATOM     17  C   UNL     1       5.977   4.688  17.396  0.00  0.00    +0.000 A 
ENDBRANCH   8  12
BRANCH   1  18
ATOM     18  C   UNL     1       1.739   6.498  20.544  0.00  0.00    +0.000 C 
BRANCH  18  19
ATOM     19  C   UNL     1       1.553   8.015  20.424  0.00  0.00    +0.000 C 
BRANCH  19  20
ATOM     20  C   UNL     1       0.767   8.554  21.621  0.00  0.00    +0.000 C 
BRANCH  20  21
ATOM     21  O   UNL     1      -0.544   7.978  21.589  0.00  0.00    +0.000 OA
ATOM     22  H   UNL     1      -0.888   7.986  22.500  0.00  0.00    +0.000 HD
ENDBRANCH  20  21
BRANCH  20  23
ATOM     23  C   UNL     1       0.697  10.105  21.613  0.00  0.00    +0.000 C 
BRANCH  23  25
ATOM     24  C   UNL     1      -1.010  11.374  22.810  0.00  0.00    +0.000 C 
ATOM     25  N   UNL     1      -0.678  10.648  21.580  0.00  0.00    +0.000 NA
ATOM     26  C   UNL     1      -0.844  11.541  20.429  0.00  0.00    +0.000 C 
ENDBRANCH  23  25
ENDBRANCH  20  23
ENDBRANCH  19  20
ENDBRANCH  18  19
ENDBRANCH   1  18
TORSDOF 7
ENDMDL
MODEL 6
REMARK VINA RESULT:      -6.6      2.136      6.745
REMARK  Name = 
REMARK  9 active torsions:
REMARK  status: ('A' for Active; 'I' for Inactive)
REMARK    1  A    between atoms: C_1  and  N_2
REMARK    2  A    between atoms: N_2  and  C_3
REMARK    3  A    between atoms: N_2  and  C_4
REMARK    4  A    between atoms: C_4  and  C_5
REMARK    5  A    between atoms: C_5  and  O_6
REMARK    6  A    between atoms: C_5  and  C_7
REMARK    7  A    between atoms: C_7  and  C_8
REMARK    8  A    between atoms: C_8  and  N_9
REMARK    9  A    between atoms: N_16  and  C_17
REMARK                            x       y       z     vdW  Elec       q    Type
REMARK                         _______ _______ _______ _____ _____    ______ ____
ROOT
ATOM      1  N   UNL     1       2.059   5.958  19.178  0.00  0.00    +0.000 N 
ATOM      2  C   UNL     1       2.000   4.521  19.048  0.00  0.00    +0.000 A 
ATOM      3  C   UNL     1       1.015   3.701  19.582  0.00  0.00    +0.000 A 
ATOM      4  C   UNL     1       0.982   2.355  19.206  0.00  0.00    +0.000 A 
ATOM      5  C   UNL     1       1.906   1.847  18.281  0.00  0.00    +0.000 A 
ATOM      6  C   UNL     1       2.866   2.684  17.706  0.00  0.00    +0.000 A 
ATOM      7  C   UNL     1       2.913   4.014  18.102  0.00  0.00    +0.000 A 
ATOM      8  N   UNL     1       3.646   5.060  17.455  0.00  0.00    +0.000 N 
ATOM      9  S   UNL     1       3.582   6.409  18.502  0.00  0.00    +0.000 S 
ATOM     10  O   UNL     1       4.590   6.264  19.531  0.00  0.00    +0.000 OA
ATOM     11  O   UNL     1       3.435   7.631  17.747  0.00  0.00    +0.000 OA
ENDROOT
BRANCH   8  12
ATOM     12  C   UNL     1       4.852   4.818  16.739  0.00  0.00    +0.000 A 
ATOM     13  C   UNL     1       6.097   4.681  17.359  0.00  0.00    +0.000 A 
ATOM     14  C   UNL     1       7.230   4.444  16.581  0.00  0.00    +0.000 A 
ATOM     15  C   UNL     1       7.131   4.366  15.191  0.00  0.00    +0.000 A 
ATOM     16  C   UNL     1       5.892   4.534  14.573  0.00  0.00    +0.000 A 
ATOM     17  C   UNL     1       4.757   4.769  15.346  0.00  0.00    +0.000 A 
ENDBRANCH   8  12
BRANCH   1  18
ATOM     18  C   UNL     1       1.706   6.593  20.465  0.00  0.00    +0.000 C 
BRANCH  18  19
ATOM     19  C   UNL     1       1.646   8.117  20.312  0.00  0.00    +0.000 C 
BRANCH  19  20
ATOM     20  C   UNL     1       0.848   8.738  21.461  0.00  0.00    +0.000 C 
BRANCH  20  21
ATOM     21  O   UNL     1      -0.393   8.033  21.574  0.00  0.00    +0.000 OA
ATOM     22  H   UNL     1      -0.235   7.254  22.137  0.00  0.00    +0.000 HD
ENDBRANCH  20  21
BRANCH  20  23
ATOM     23  C   UNL     1       0.611  10.257  21.241  0.00  0.00    +0.000 C 
BRANCH  23  25
ATOM     24  C   UNL     1      -0.885  10.799  19.388  0.00  0.00    +0.000 C 
ATOM     25  N   UNL     1       0.510  10.653  19.819  0.00  0.00    +0.000 NA
ATOM     26  C   UNL     1       1.223  11.914  19.592  0.00  0.00    +0.000 C 
ENDBRANCH  23  25
ENDBRANCH  20  23
ENDBRANCH  19  20
ENDBRANCH  18  19
ENDBRANCH   1  18
TORSDOF 7
ENDMDL
MODEL 7
REMARK VINA RESULT:      -6.5      1.807      3.893
REMARK  Name = 
REMARK  9 active torsions:
REMARK  status: ('A' for Active; 'I' for Inactive)
REMARK    1  A    between atoms: C_1  and  N_2
REMARK    2  A    between atoms: N_2  and  C_3
REMARK    3  A    between atoms: N_2  and  C_4
REMARK    4  A    between atoms: C_4  and  C_5
REMARK    5  A    between atoms: C_5  and  O_6
REMARK    6  A    between atoms: C_5  and  C_7
REMARK    7  A    between atoms: C_7  and  C_8
REMARK    8  A    between atoms: C_8  and  N_9
REMARK    9  A    between atoms: N_16  and  C_17
REMARK                            x       y       z     vdW  Elec       q    Type
REMARK                         _______ _______ _______ _____ _____    ______ ____
ROOT
ATOM      1  N   UNL     1       4.860   5.370  16.868  0.00  0.00    +0.000 N 
ATOM      2  C   UNL     1       4.081   6.429  17.466  0.00  0.00    +0.000 A 
ATOM      3  C   UNL     1       4.071   7.756  17.058  0.00  0.00    +0.000 A 
ATOM      4  C   UNL     1       3.120   8.623  17.604  0.00  0.00    +0.000 A 
ATOM      5  C   UNL     1       2.171   8.155  18.524  0.00  0.00    +0.000 A 
ATOM      6  C   UNL     1       2.150   6.808  18.898  0.00  0.00    +0.000 A 
ATOM      7  C   UNL     1       3.113   5.957  18.374  0.00  0.00    +0.000 A 
ATOM      8  N   UNL     1       3.099   4.526  18.442  0.00  0.00    +0.000 N 
ATOM      9  S   UNL     1       4.633   4.005  17.900  0.00  0.00    +0.000 S 
ATOM     10  O   UNL     1       5.584   4.104  18.988  0.00  0.00    +0.000 OA
ATOM     11  O   UNL     1       4.510   2.809  17.102  0.00  0.00    +0.000 OA
ENDROOT
BRANCH   8  12
ATOM     12  C   UNL     1       2.486   3.818  19.515  0.00  0.00    +0.000 A 
ATOM     13  C   UNL     1       1.104   3.643  19.627  0.00  0.00    +0.000 A 
ATOM     14  C   UNL     1       0.587   2.934  20.712  0.00  0.00    +0.000 A 
ATOM     15  C   UNL     1       1.438   2.422  21.693  0.00  0.00    +0.000 A 
ATOM     16  C   UNL     1       2.814   2.627  21.594  0.00  0.00    +0.000 A 
ATOM     17  C   UNL     1       3.336   3.332  20.513  0.00  0.00    +0.000 A 
ENDBRANCH   8  12
BRANCH   1  18
ATOM     18  C   UNL     1       6.248   5.636  16.436  0.00  0.00    +0.000 C 
BRANCH  18  19
ATOM     19  C   UNL     1       6.918   4.342  15.960  0.00  0.00    +0.000 C 
BRANCH  19  20
ATOM     20  C   UNL     1       7.094   4.360  14.439  0.00  0.00    +0.000 C 
BRANCH  20  21
ATOM     21  O   UNL     1       7.711   5.600  14.076  0.00  0.00    +0.000 OA
ATOM     22  H   UNL     1       7.182   5.989  13.358  0.00  0.00    +0.000 HD
ENDBRANCH  20  21
BRANCH  20  23
ATOM     23  C   UNL     1       5.742   4.169  13.700  0.00  0.00    +0.000 C 
BRANCH  23  25
ATOM     24  C   UNL     1       4.607   3.274  11.732  0.00  0.00    +0.000 C 
ATOM     25  N   UNL     1       5.791   3.188  12.594  0.00  0.00    +0.000 NA
ATOM     26  C   UNL     1       6.997   3.394  11.786  0.00  0.00    +0.000 C 
ENDBRANCH  23  25
ENDBRANCH  20  23
ENDBRANCH  19  20
ENDBRANCH  18  19
ENDBRANCH   1  18
TORSDOF 7
ENDMDL
MODEL 8
REMARK VINA RESULT:      -6.5      2.231      7.116
REMARK  Name = 
REMARK  9 active torsions:
REMARK  status: ('A' for Active; 'I' for Inactive)
REMARK    1  A    between atoms: C_1  and  N_2
REMARK    2  A    between atoms: N_2  and  C_3
REMARK    3  A    between atoms: N_2  and  C_4
REMARK    4  A    between atoms: C_4  and  C_5
REMARK    5  A    between atoms: C_5  and  O_6
REMARK    6  A    between atoms: C_5  and  C_7
REMARK    7  A    between atoms: C_7  and  C_8
REMARK    8  A    between atoms: C_8  and  N_9
REMARK    9  A    between atoms: N_16  and  C_17
REMARK                            x       y       z     vdW  Elec       q    Type
REMARK                         _______ _______ _______ _____ _____    ______ ____
ROOT
ATOM      1  N   UNL     1       2.172   5.744  19.425  0.00  0.00    +0.000 N 
ATOM      2  C   UNL     1       2.089   4.323  19.177  0.00  0.00    +0.000 A 
ATOM      3  C   UNL     1       1.112   3.470  19.675  0.00  0.00    +0.000 A 
ATOM      4  C   UNL     1       1.049   2.161  19.189  0.00  0.00    +0.000 A 
ATOM      5  C   UNL     1       1.935   1.724  18.193  0.00  0.00    +0.000 A 
ATOM      6  C   UNL     1       2.885   2.597  17.657  0.00  0.00    +0.000 A 
ATOM      7  C   UNL     1       2.962   3.889  18.161  0.00  0.00    +0.000 A 
ATOM      8  N   UNL     1       3.687   4.978  17.578  0.00  0.00    +0.000 N 
ATOM      9  S   UNL     1       3.676   6.235  18.736  0.00  0.00    +0.000 S 
ATOM     10  O   UNL     1       4.716   5.993  19.714  0.00  0.00    +0.000 OA
ATOM     11  O   UNL     1       3.519   7.517  18.092  0.00  0.00    +0.000 OA
ENDROOT
BRANCH   8  12
ATOM     12  C   UNL     1       4.865   4.785  16.803  0.00  0.00    +0.000 A 
ATOM     13  C   UNL     1       6.134   4.623  17.365  0.00  0.00    +0.000 A 
ATOM     14  C   UNL     1       7.236   4.438  16.530  0.00  0.00    +0.000 A 
ATOM     15  C   UNL     1       7.082   4.436  15.143  0.00  0.00    +0.000 A 
ATOM     16  C   UNL     1       5.818   4.630  14.584  0.00  0.00    +0.000 A 
ATOM     17  C   UNL     1       4.714   4.814  15.413  0.00  0.00    +0.000 A 
ENDBRANCH   8  12
BRANCH   1  18
ATOM     18  C   UNL     1       1.870   6.271  20.772  0.00  0.00    +0.000 C 
BRANCH  18  19
ATOM     19  C   UNL     1       0.740   7.304  20.703  0.00  0.00    +0.000 C 
BRANCH  19  20
ATOM     20  C   UNL     1       1.288   8.713  20.948  0.00  0.00    +0.000 C 
BRANCH  20  21
ATOM     21  O   UNL     1       1.985   8.708  22.199  0.00  0.00    +0.000 OA
ATOM     22  H   UNL     1       1.655   7.951  22.714  0.00  0.00    +0.000 HD
ENDBRANCH  20  21
BRANCH  20  23
ATOM     23  C   UNL     1       0.159   9.779  20.939  0.00  0.00    +0.000 C 
BRANCH  23  25
ATOM     24  C   UNL     1      -0.113  12.066  21.749  0.00  0.00    +0.000 C 
ATOM     25  N   UNL     1       0.164  10.673  22.118  0.00  0.00    +0.000 NA
ATOM     26  C   UNL     1      -0.828  10.224  23.100  0.00  0.00    +0.000 C 
ENDBRANCH  23  25
ENDBRANCH  20  23
ENDBRANCH  19  20
ENDBRANCH  18  19
ENDBRANCH   1  18
TORSDOF 7
ENDMDL
MODEL 9
REMARK VINA RESULT:      -6.4      1.917      3.999
REMARK  Name = 
REMARK  9 active torsions:
REMARK  status: ('A' for Active; 'I' for Inactive)
REMARK    1  A    between atoms: C_1  and  N_2
REMARK    2  A    between atoms: N_2  and  C_3
REMARK    3  A    between atoms: N_2  and  C_4
REMARK    4  A    between atoms: C_4  and  C_5
REMARK    5  A    between atoms: C_5  and  O_6
REMARK    6  A    between atoms: C_5  and  C_7
REMARK    7  A    between atoms: C_7  and  C_8
REMARK    8  A    between atoms: C_8  and  N_9
REMARK    9  A    between atoms: N_16  and  C_17
REMARK                            x       y       z     vdW  Elec       q    Type
REMARK                         _______ _______ _______ _____ _____    ______ ____
ROOT
ATOM      1  N   UNL     1       4.654   5.253  16.777  0.00  0.00    +0.000 N 
ATOM      2  C   UNL     1       3.970   6.362  17.402  0.00  0.00    +0.000 A 
ATOM      3  C   UNL     1       3.990   7.677  16.958  0.00  0.00    +0.000 A 
ATOM      4  C   UNL     1       3.122   8.601  17.549  0.00  0.00    +0.000 A 
ATOM      5  C   UNL     1       2.225   8.200  18.549  0.00  0.00    +0.000 A 
ATOM      6  C   UNL     1       2.170   6.866  18.960  0.00  0.00    +0.000 A 
ATOM      7  C   UNL     1       3.052   5.957  18.390  0.00  0.00    +0.000 A 
ATOM      8  N   UNL     1       2.978   4.531  18.499  0.00  0.00    +0.000 N 
ATOM      9  S   UNL     1       4.443   3.926  17.860  0.00  0.00    +0.000 S 
ATOM     10  O   UNL     1       5.476   4.005  18.872  0.00  0.00    +0.000 OA
ATOM     11  O   UNL     1       4.207   2.718  17.106  0.00  0.00    +0.000 OA
ENDROOT
BRANCH   8  12
ATOM     12  C   UNL     1       2.416   3.879  19.632  0.00  0.00    +0.000 A 
ATOM     13  C   UNL     1       2.879   4.073  20.936  0.00  0.00    +0.000 A 
ATOM     14  C   UNL     1       2.268   3.394  21.991  0.00  0.00    +0.000 A 
ATOM     15  C   UNL     1       1.218   2.507  21.748  0.00  0.00    +0.000 A 
ATOM     16  C   UNL     1       0.779   2.291  20.441  0.00  0.00    +0.000 A 
ATOM     17  C   UNL     1       1.384   2.969  19.385  0.00  0.00    +0.000 A 
ENDBRANCH   8  12
BRANCH   1  18
ATOM     18  C   UNL     1       6.017   5.442  16.237  0.00  0.00    +0.000 C 
BRANCH  18  19
ATOM     19  C   UNL     1       5.993   5.428  14.705  0.00  0.00    +0.000 C 
BRANCH  19  20
ATOM     20  C   UNL     1       5.889   3.992  14.185  0.00  0.00    +0.000 C 
BRANCH  20  21
ATOM     21  O   UNL     1       6.379   3.112  15.204  0.00  0.00    +0.000 OA
ATOM     22  H   UNL     1       5.946   3.364  16.039  0.00  0.00    +0.000 HD
ENDBRANCH  20  21
BRANCH  20  23
ATOM     23  C   UNL     1       6.672   3.802  12.858  0.00  0.00    +0.000 C 
BRANCH  23  25
ATOM     24  C   UNL     1       6.133   1.816  11.543  0.00  0.00    +0.000 C 
ATOM     25  N   UNL     1       5.861   3.243  11.753  0.00  0.00    +0.000 NA
ATOM     26  C   UNL     1       4.433   3.431  12.026  0.00  0.00    +0.000 C 
ENDBRANCH  23  25
ENDBRANCH  20  23
ENDBRANCH  19  20
ENDBRANCH  18  19
ENDBRANCH   1  18
TORSDOF 7
ENDMDL
