MODEL 1
REMARK VINA RESULT:      -8.2      0.000      0.000
REMARK  Name = 
REMARK  6 active torsions:
REMARK  status: ('A' for Active; 'I' for Inactive)
REMARK    1  A    between atoms: C_1  and  C_2
REMARK    2  A    between atoms: C_2  and  C_3
REMARK    3  A    between atoms: C_2  and  C_4
REMARK    4  A    between atoms: C_9  and  O_10
REMARK    5  A    between atoms: O_10  and  C_11
REMARK    6  A    between atoms: C_14  and  N_15
REMARK                            x       y       z     vdW  Elec       q    Type
REMARK                         _______ _______ _______ _____ _____    ______ ____
ROOT
ATOM      1  C   UNL     1       7.011   6.536  17.818  0.00  0.00    +0.000 A 
ATOM      2  C   UNL     1       7.996   6.631  18.783  0.00  0.00    +0.000 A 
ATOM      3  C   UNL     1       8.658   7.843  18.943  0.00  0.00    +0.000 A 
ATOM      4  C   UNL     1       8.353   8.921  18.115  0.00  0.00    +0.000 A 
ATOM      5  C   UNL     1       7.349   8.713  17.166  0.00  0.00    +0.000 A 
ATOM      6  N   UNL     1       6.667   7.547  16.996  0.00  0.00    +0.000 NA
ENDROOT
BRANCH   4   7
ATOM      7  N   UNL     1       8.996  10.182  18.214  0.00  0.00    +0.000 N 
ATOM      8  C   UNL     1       9.248  10.841  19.396  0.00  0.00    +0.000 C 
ATOM      9  O   UNL     1       9.033  10.369  20.511  0.00  0.00    +0.000 OA
ATOM     10  N   UNL     1       9.807  12.088  19.275  0.00  0.00    +0.000 N 
ATOM     11  C   UNL     1      10.215  12.782  20.495  0.00  0.00    +0.000 C 
ATOM     12  C   UNL     1      10.718  14.098  20.005  0.00  0.00    +0.000 A 
ATOM     13  C   UNL     1      11.304  15.115  20.740  0.00  0.00    +0.000 A 
ATOM     14  C   UNL     1      11.679  16.277  20.065  0.00  0.00    +0.000 A 
ATOM     15  C   UNL     1      11.458  16.405  18.684  0.00  0.00    +0.000 A 
ATOM     16  C   UNL     1      10.868  15.369  17.953  0.00  0.00    +0.000 A 
ATOM     17  C   UNL     1      10.506  14.213  18.626  0.00  0.00    +0.000 A 
ATOM     18  C   UNL     1       9.870  12.962  18.099  0.00  0.00    +0.000 C 
ATOM     19  H   UNL     1       9.545  10.479  17.422  0.00  0.00    +0.000 HD
ENDBRANCH   4   7
BRANCH   1  20
ATOM     20  O   UNL     1       6.373   5.317  17.740  0.00  0.00    +0.000 OA
BRANCH  20  26
ATOM     21  C   UNL     1       2.180   4.105  19.893  0.00  0.00    +0.000 C 
ATOM     22  O   UNL     1       1.418   5.014  20.236  0.00  0.00    +0.000 OA
ATOM     23  N   UNL     1       3.417   4.380  19.321  0.00  0.00    +0.000 N 
ATOM     24  C   UNL     1       3.887   5.764  19.296  0.00  0.00    +0.000 C 
ATOM     25  C   UNL     1       4.090   6.244  17.864  0.00  0.00    +0.000 C 
ATOM     26  C   UNL     1       5.077   5.330  17.122  0.00  0.00    +0.000 C 
ATOM     27  C   UNL     1       4.551   3.885  17.185  0.00  0.00    +0.000 C 
ATOM     28  C   UNL     1       4.295   3.434  18.631  0.00  0.00    +0.000 C 
BRANCH  21  30
ATOM     29  C   UNL     1       1.372   2.566  21.668  0.00  0.00    +0.000 C 
ATOM     30  C   UNL     1       1.823   2.649  20.210  0.00  0.00    +0.000 C 
ATOM     31  C   UNL     1       0.716   2.133  19.287  0.00  0.00    +0.000 C 
ENDBRANCH  21  30
ENDBRANCH  20  26
ENDBRANCH   1  20
TORSDOF 4
ENDMDL
MODEL 2
REMARK VINA RESULT:      -8.2      8.568     11.927
REMARK  Name = 
REMARK  6 active torsions:
REMARK  status: ('A' for Active; 'I' for Inactive)
REMARK    1  A    between atoms: C_1  and  C_2
REMARK    2  A    between atoms: C_2  and  C_3
REMARK    3  A    between atoms: C_2  and  C_4
REMARK    4  A    between atoms: C_9  and  O_10
REMARK    5  A    between atoms: O_10  and  C_11
REMARK    6  A    between atoms: C_14  and  N_15
REMARK                            x       y       z     vdW  Elec       q    Type
REMARK                         _______ _______ _______ _____ _____    ______ ____
ROOT
ATOM      1  C   UNL     1      -0.488  11.649  22.706  0.00  0.00    +0.000 A 
ATOM      2  C   UNL     1      -0.862  10.427  23.234  0.00  0.00    +0.000 A 
ATOM      3  C   UNL     1      -0.243   9.277  22.759  0.00  0.00    +0.000 A 
ATOM      4  C   UNL     1       0.707   9.363  21.743  0.00  0.00    +0.000 A 
ATOM      5  C   UNL     1       1.003  10.646  21.275  0.00  0.00    +0.000 A 
ATOM      6  N   UNL     1       0.431  11.794  21.732  0.00  0.00    +0.000 NA
ENDROOT
BRANCH   4   7
ATOM      7  N   UNL     1       1.370   8.231  21.202  0.00  0.00    +0.000 N 
ATOM      8  C   UNL     1       1.700   8.079  19.874  0.00  0.00    +0.000 C 
ATOM      9  O   UNL     1       1.547   8.948  19.018  0.00  0.00    +0.000 OA
ATOM     10  N   UNL     1       2.266   6.875  19.536  0.00  0.00    +0.000 N 
ATOM     11  C   UNL     1       2.754   6.703  18.170  0.00  0.00    +0.000 C 
ATOM     12  C   UNL     1       3.243   5.294  18.140  0.00  0.00    +0.000 A 
ATOM     13  C   UNL     1       3.884   4.634  17.106  0.00  0.00    +0.000 A 
ATOM     14  C   UNL     1       4.231   3.297  17.298  0.00  0.00    +0.000 A 
ATOM     15  C   UNL     1       3.929   2.647  18.506  0.00  0.00    +0.000 A 
ATOM     16  C   UNL     1       3.284   3.326  19.545  0.00  0.00    +0.000 A 
ATOM     17  C   UNL     1       2.950   4.657  19.351  0.00  0.00    +0.000 A 
ATOM     18  C   UNL     1       2.269   5.613  20.283  0.00  0.00    +0.000 C 
ATOM     19  H   UNL     1       1.874   7.644  21.848  0.00  0.00    +0.000 HD
ENDBRANCH   4   7
BRANCH   1  20
ATOM     20  O   UNL     1      -1.117  12.748  23.250  0.00  0.00    +0.000 OA
BRANCH  20  26
ATOM     21  C   UNL     1      -5.568  14.712  23.364  0.00  0.00    +0.000 C 
ATOM     22  O   UNL     1      -5.681  15.876  23.761  0.00  0.00    +0.000 OA
ATOM     23  N   UNL     1      -4.335  14.071  23.355  0.00  0.00    +0.000 N 
ATOM     24  C   UNL     1      -3.196  14.728  23.994  0.00  0.00    +0.000 C 
ATOM     25  C   UNL     1      -2.088  15.000  22.985  0.00  0.00    +0.000 C 
ATOM     26  C   UNL     1      -1.641  13.696  22.308  0.00  0.00    +0.000 C 
ATOM     27  C   UNL     1      -2.870  13.032  21.661  0.00  0.00    +0.000 C 
ATOM     28  C   UNL     1      -4.002  12.817  22.677  0.00  0.00    +0.000 C 
BRANCH  21  30
ATOM     29  C   UNL     1      -7.614  13.625  24.262  0.00  0.00    +0.000 C 
ATOM     30  C   UNL     1      -6.818  13.909  22.988  0.00  0.00    +0.000 C 
ATOM     31  C   UNL     1      -7.688  14.670  21.984  0.00  0.00    +0.000 C 
ENDBRANCH  21  30
ENDBRANCH  20  26
ENDBRANCH   1  20
TORSDOF 4
ENDMDL
MODEL 3
REMARK VINA RESULT:      -8.0      7.858      9.542
REMARK  Name = 
REMARK  6 active torsions:
REMARK  status: ('A' for Active; 'I' for Inactive)
REMARK    1  A    between atoms: C_1  and  C_2
REMARK    2  A    between atoms: C_2  and  C_3
REMARK    3  A    between atoms: C_2  and  C_4
REMARK    4  A    between atoms: C_9  and  O_10
REMARK    5  A    between atoms: O_10  and  C_11
REMARK    6  A    between atoms: C_14  and  N_15
REMARK                            x       y       z     vdW  Elec       q    Type
REMARK                         _______ _______ _______ _____ _____    ______ ____
ROOT
ATOM      1  C   UNL     1       1.582   8.416  20.156  0.00  0.00    +0.000 A 
ATOM      2  C   UNL     1       1.393   8.421  21.525  0.00  0.00    +0.000 A 
ATOM      3  C   UNL     1       0.615   9.425  22.088  0.00  0.00    +0.000 A 
ATOM      4  C   UNL     1       0.073  10.425  21.282  0.00  0.00    +0.000 A 
ATOM      5  C   UNL     1       0.334  10.330  19.913  0.00  0.00    +0.000 A 
ATOM      6  N   UNL     1       1.074   9.349  19.326  0.00  0.00    +0.000 NA
ENDROOT
BRANCH   4   7
ATOM      7  N   UNL     1      -0.720  11.487  21.790  0.00  0.00    +0.000 N 
ATOM      8  C   UNL     1      -0.259  12.762  22.028  0.00  0.00    +0.000 C 
ATOM      9  O   UNL     1       0.868  13.157  21.735  0.00  0.00    +0.000 OA
ATOM     10  N   UNL     1      -1.163  13.624  22.596  0.00  0.00    +0.000 N 
ATOM     11  C   UNL     1      -0.774  15.024  22.754  0.00  0.00    +0.000 C 
ATOM     12  C   UNL     1      -1.945  15.645  23.438  0.00  0.00    +0.000 A 
ATOM     13  C   UNL     1      -2.141  16.978  23.755  0.00  0.00    +0.000 A 
ATOM     14  C   UNL     1      -3.315  17.326  24.423  0.00  0.00    +0.000 A 
ATOM     15  C   UNL     1      -4.260  16.346  24.766  0.00  0.00    +0.000 A 
ATOM     16  C   UNL     1      -4.051  15.002  24.438  0.00  0.00    +0.000 A 
ATOM     17  C   UNL     1      -2.888  14.663  23.766  0.00  0.00    +0.000 A 
ATOM     18  C   UNL     1      -2.417  13.321  23.292  0.00  0.00    +0.000 C 
ATOM     19  H   UNL     1      -1.720  11.391  21.706  0.00  0.00    +0.000 HD
ENDBRANCH   4   7
BRANCH   1  20
ATOM     20  O   UNL     1       2.333   7.371  19.664  0.00  0.00    +0.000 OA
BRANCH  20  26
ATOM     21  C   UNL     1       5.173   4.527  16.919  0.00  0.00    +0.000 C 
ATOM     22  O   UNL     1       4.798   3.372  16.696  0.00  0.00    +0.000 OA
ATOM     23  N   UNL     1       4.438   5.377  17.738  0.00  0.00    +0.000 N 
ATOM     24  C   UNL     1       3.305   4.829  18.482  0.00  0.00    +0.000 C 
ATOM     25  C   UNL     1       2.005   5.512  18.075  0.00  0.00    +0.000 C 
ATOM     26  C   UNL     1       2.102   7.030  18.289  0.00  0.00    +0.000 C 
ATOM     27  C   UNL     1       3.313   7.561  17.500  0.00  0.00    +0.000 C 
ATOM     28  C   UNL     1       4.607   6.824  17.877  0.00  0.00    +0.000 C 
BRANCH  21  30
ATOM     29  C   UNL     1       7.618   4.540  17.362  0.00  0.00    +0.000 C 
ATOM     30  C   UNL     1       6.531   5.004  16.393  0.00  0.00    +0.000 C 
ATOM     31  C   UNL     1       6.808   4.456  14.990  0.00  0.00    +0.000 C 
ENDBRANCH  21  30
ENDBRANCH  20  26
ENDBRANCH   1  20
TORSDOF 4
ENDMDL
MODEL 4
REMARK VINA RESULT:      -7.9      8.196     10.362
REMARK  Name = 
REMARK  6 active torsions:
REMARK  status: ('A' for Active; 'I' for Inactive)
REMARK    1  A    between atoms: C_1  and  C_2
REMARK    2  A    between atoms: C_2  and  C_3
REMARK    3  A    between atoms: C_2  and  C_4
REMARK    4  A    between atoms: C_9  and  O_10
REMARK    5  A    between atoms: O_10  and  C_11
REMARK    6  A    between atoms: C_14  and  N_15
REMARK                            x       y       z     vdW  Elec       q    Type
REMARK                         _______ _______ _______ _____ _____    ______ ____
ROOT
ATOM      1  C   UNL     1       1.328   8.740  20.488  0.00  0.00    +0.000 A 
ATOM      2  C   UNL     1       0.785   8.589  21.750  0.00  0.00    +0.000 A 
ATOM      3  C   UNL     1      -0.186   9.490  22.171  0.00  0.00    +0.000 A 
ATOM      4  C   UNL     1      -0.568  10.544  21.342  0.00  0.00    +0.000 A 
ATOM      5  C   UNL     1       0.052  10.608  20.092  0.00  0.00    +0.000 A 
ATOM      6  N   UNL     1       0.991   9.732  19.641  0.00  0.00    +0.000 NA
ENDROOT
BRANCH   4   7
ATOM      7  N   UNL     1      -1.544  11.507  21.710  0.00  0.00    +0.000 N 
ATOM      8  C   UNL     1      -1.322  12.552  22.579  0.00  0.00    +0.000 C 
ATOM      9  O   UNL     1      -0.226  12.831  23.061  0.00  0.00    +0.000 OA
ATOM     10  N   UNL     1      -2.416  13.327  22.868  0.00  0.00    +0.000 N 
ATOM     11  C   UNL     1      -2.217  14.524  23.681  0.00  0.00    +0.000 C 
ATOM     12  C   UNL     1      -3.592  15.080  23.841  0.00  0.00    +0.000 A 
ATOM     13  C   UNL     1      -3.969  16.261  24.458  0.00  0.00    +0.000 A 
ATOM     14  C   UNL     1      -5.329  16.567  24.509  0.00  0.00    +0.000 A 
ATOM     15  C   UNL     1      -6.280  15.694  23.954  0.00  0.00    +0.000 A 
ATOM     16  C   UNL     1      -5.885  14.506  23.331  0.00  0.00    +0.000 A 
ATOM     17  C   UNL     1      -4.532  14.211  23.275  0.00  0.00    +0.000 A 
ATOM     18  C   UNL     1      -3.839  13.027  22.672  0.00  0.00    +0.000 C 
ATOM     19  H   UNL     1      -2.342  11.604  21.102  0.00  0.00    +0.000 HD
ENDBRANCH   4   7
BRANCH   1  20
ATOM     20  O   UNL     1       2.258   7.790  20.125  0.00  0.00    +0.000 OA
BRANCH  20  26
ATOM     21  C   UNL     1       5.038   4.452  17.930  0.00  0.00    +0.000 C 
ATOM     22  O   UNL     1       5.002   3.294  18.356  0.00  0.00    +0.000 OA
ATOM     23  N   UNL     1       4.311   5.467  18.542  0.00  0.00    +0.000 N 
ATOM     24  C   UNL     1       3.642   5.185  19.811  0.00  0.00    +0.000 C 
ATOM     25  C   UNL     1       2.134   5.366  19.684  0.00  0.00    +0.000 C 
ATOM     26  C   UNL     1       1.799   6.787  19.207  0.00  0.00    +0.000 C 
ATOM     27  C   UNL     1       2.533   7.045  17.878  0.00  0.00    +0.000 C 
ATOM     28  C   UNL     1       4.044   6.802  18.005  0.00  0.00    +0.000 C 
BRANCH  21  30
ATOM     29  C   UNL     1       7.427   4.594  17.262  0.00  0.00    +0.000 C 
ATOM     30  C   UNL     1       5.991   4.816  16.787  0.00  0.00    +0.000 C 
ATOM     31  C   UNL     1       5.713   3.972  15.540  0.00  0.00    +0.000 C 
ENDBRANCH  21  30
ENDBRANCH  20  26
ENDBRANCH   1  20
TORSDOF 4
ENDMDL
MODEL 5
REMARK VINA RESULT:      -7.8      7.994     10.223
REMARK  Name = 
REMARK  6 active torsions:
REMARK  status: ('A' for Active; 'I' for Inactive)
REMARK    1  A    between atoms: C_1  and  C_2
REMARK    2  A    between atoms: C_2  and  C_3
REMARK    3  A    between atoms: C_2  and  C_4
REMARK    4  A    between atoms: C_9  and  O_10
REMARK    5  A    between atoms: O_10  and  C_11
REMARK    6  A    between atoms: C_14  and  N_15
REMARK                            x       y       z     vdW  Elec       q    Type
REMARK                         _______ _______ _______ _____ _____    ______ ____
ROOT
ATOM      1  C   UNL     1       1.400   8.652  19.956  0.00  0.00    +0.000 A 
ATOM      2  C   UNL     1       1.014   9.611  19.039  0.00  0.00    +0.000 A 
ATOM      3  C   UNL     1       0.104  10.584  19.435  0.00  0.00    +0.000 A 
ATOM      4  C   UNL     1      -0.431  10.560  20.722  0.00  0.00    +0.000 A 
ATOM      5  C   UNL     1       0.021   9.540  21.564  0.00  0.00    +0.000 A 
ATOM      6  N   UNL     1       0.926   8.584  21.216  0.00  0.00    +0.000 NA
ENDROOT
BRANCH   4   7
ATOM      7  N   UNL     1      -1.372  11.513  21.190  0.00  0.00    +0.000 N 
ATOM      8  C   UNL     1      -1.132  12.418  22.199  0.00  0.00    +0.000 C 
ATOM      9  O   UNL     1      -0.041  12.573  22.746  0.00  0.00    +0.000 OA
ATOM     10  N   UNL     1      -2.198  13.202  22.561  0.00  0.00    +0.000 N 
ATOM     11  C   UNL     1      -1.971  14.267  23.535  0.00  0.00    +0.000 C 
ATOM     12  C   UNL     1      -3.323  14.866  23.731  0.00  0.00    +0.000 A 
ATOM     13  C   UNL     1      -3.667  15.971  24.492  0.00  0.00    +0.000 A 
ATOM     14  C   UNL     1      -5.012  16.337  24.545  0.00  0.00    +0.000 A 
ATOM     15  C   UNL     1      -5.982  15.596  23.850  0.00  0.00    +0.000 A 
ATOM     16  C   UNL     1      -5.622  14.484  23.082  0.00  0.00    +0.000 A 
ATOM     17  C   UNL     1      -4.283  14.131  23.025  0.00  0.00    +0.000 A 
ATOM     18  C   UNL     1      -3.626  13.005  22.286  0.00  0.00    +0.000 C 
ATOM     19  H   UNL     1      -2.143  11.732  20.579  0.00  0.00    +0.000 HD
ENDBRANCH   4   7
BRANCH   1  20
ATOM     20  O   UNL     1       2.332   7.741  19.505  0.00  0.00    +0.000 OA
BRANCH  20  26
ATOM     21  C   UNL     1       5.218   4.609  17.151  0.00  0.00    +0.000 C 
ATOM     22  O   UNL     1       4.861   3.430  17.078  0.00  0.00    +0.000 OA
ATOM     23  N   UNL     1       4.470   5.547  17.854  0.00  0.00    +0.000 N 
ATOM     24  C   UNL     1       3.343   5.083  18.661  0.00  0.00    +0.000 C 
ATOM     25  C   UNL     1       2.034   5.689  18.169  0.00  0.00    +0.000 C 
ATOM     26  C   UNL     1       2.109   7.223  18.185  0.00  0.00    +0.000 C 
ATOM     27  C   UNL     1       3.314   7.665  17.335  0.00  0.00    +0.000 C 
ATOM     28  C   UNL     1       4.617   7.002  17.805  0.00  0.00    +0.000 C 
BRANCH  21  30
ATOM     29  C   UNL     1       7.679   4.527  17.493  0.00  0.00    +0.000 C 
ATOM     30  C   UNL     1       6.571   5.034  16.569  0.00  0.00    +0.000 C 
ATOM     31  C   UNL     1       6.768   4.477  15.156  0.00  0.00    +0.000 C 
ENDBRANCH  21  30
ENDBRANCH  20  26
ENDBRANCH   1  20
TORSDOF 4
ENDMDL
MODEL 6
REMARK VINA RESULT:      -7.7      8.657     12.448
REMARK  Name = 
REMARK  6 active torsions:
REMARK  status: ('A' for Active; 'I' for Inactive)
REMARK    1  A    between atoms: C_1  and  C_2
REMARK    2  A    between atoms: C_2  and  C_3
REMARK    3  A    between atoms: C_2  and  C_4
REMARK    4  A    between atoms: C_9  and  O_10
REMARK    5  A    between atoms: O_10  and  C_11
REMARK    6  A    between atoms: C_14  and  N_15
REMARK                            x       y       z     vdW  Elec       q    Type
REMARK                         _______ _______ _______ _____ _____    ______ ____
ROOT
ATOM      1  C   UNL     1      -0.537  11.216  22.386  0.00  0.00    +0.000 A 
ATOM      2  C   UNL     1      -0.650  10.937  21.037  0.00  0.00    +0.000 A 
ATOM      3  C   UNL     1      -0.133   9.739  20.558  0.00  0.00    +0.000 A 
ATOM      4  C   UNL     1       0.519   8.862  21.424  0.00  0.00    +0.000 A 
ATOM      5  C   UNL     1       0.586   9.248  22.765  0.00  0.00    +0.000 A 
ATOM      6  N   UNL     1       0.073  10.403  23.271  0.00  0.00    +0.000 NA
ENDROOT
BRANCH   4   7
ATOM      7  N   UNL     1       1.081   7.630  21.002  0.00  0.00    +0.000 N 
ATOM      8  C   UNL     1       1.808   7.456  19.846  0.00  0.00    +0.000 C 
ATOM      9  O   UNL     1       2.140   8.370  19.093  0.00  0.00    +0.000 OA
ATOM     10  N   UNL     1       2.197   6.169  19.575  0.00  0.00    +0.000 N 
ATOM     11  C   UNL     1       3.078   5.941  18.433  0.00  0.00    +0.000 C 
ATOM     12  C   UNL     1       3.248   4.459  18.402  0.00  0.00    +0.000 A 
ATOM     13  C   UNL     1       4.056   3.709  17.565  0.00  0.00    +0.000 A 
ATOM     14  C   UNL     1       4.034   2.321  17.705  0.00  0.00    +0.000 A 
ATOM     15  C   UNL     1       3.209   1.713  18.665  0.00  0.00    +0.000 A 
ATOM     16  C   UNL     1       2.400   2.482  19.508  0.00  0.00    +0.000 A 
ATOM     17  C   UNL     1       2.433   3.861  19.370  0.00  0.00    +0.000 A 
ATOM     18  C   UNL     1       1.684   4.912  20.132  0.00  0.00    +0.000 C 
ATOM     19  H   UNL     1       1.200   6.917  21.705  0.00  0.00    +0.000 HD
ENDBRANCH   4   7
BRANCH   1  20
ATOM     20  O   UNL     1      -1.103  12.404  22.796  0.00  0.00    +0.000 OA
BRANCH  20  26
ATOM     21  C   UNL     1      -3.675  16.485  23.440  0.00  0.00    +0.000 C 
ATOM     22  O   UNL     1      -3.891  17.198  22.456  0.00  0.00    +0.000 OA
ATOM     23  N   UNL     1      -2.903  15.333  23.339  0.00  0.00    +0.000 N 
ATOM     24  C   UNL     1      -2.195  15.069  22.088  0.00  0.00    +0.000 C 
ATOM     25  C   UNL     1      -2.667  13.765  21.459  0.00  0.00    +0.000 C 
ATOM     26  C   UNL     1      -2.480  12.594  22.437  0.00  0.00    +0.000 C 
ATOM     27  C   UNL     1      -3.229  12.920  23.742  0.00  0.00    +0.000 C 
ATOM     28  C   UNL     1      -2.785  14.266  24.334  0.00  0.00    +0.000 C 
BRANCH  21  30
ATOM     29  C   UNL     1      -3.149  17.934  25.389  0.00  0.00    +0.000 C 
ATOM     30  C   UNL     1      -4.155  16.930  24.826  0.00  0.00    +0.000 C 
ATOM     31  C   UNL     1      -5.547  17.564  24.756  0.00  0.00    +0.000 C 
ENDBRANCH  21  30
ENDBRANCH  20  26
ENDBRANCH   1  20
TORSDOF 4
ENDMDL
MODEL 7
REMARK VINA RESULT:      -7.7      8.574     11.648
REMARK  Name = 
REMARK  6 active torsions:
REMARK  status: ('A' for Active; 'I' for Inactive)
REMARK    1  A    between atoms: C_1  and  C_2
REMARK    2  A    between atoms: C_2  and  C_3
REMARK    3  A    between atoms: C_2  and  C_4
REMARK    4  A    between atoms: C_9  and  O_10
REMARK    5  A    between atoms: O_10  and  C_11
REMARK    6  A    between atoms: C_14  and  N_15
REMARK                            x       y       z     vdW  Elec       q    Type
REMARK                         _______ _______ _______ _____ _____    ______ ____
ROOT
ATOM      1  C   UNL     1      -0.788  12.554  20.816  0.00  0.00    +0.000 A 
ATOM      2  C   UNL     1      -1.327  11.748  19.831  0.00  0.00    +0.000 A 
ATOM      3  C   UNL     1      -0.661  10.577  19.489  0.00  0.00    +0.000 A 
ATOM      4  C   UNL     1       0.547  10.253  20.106  0.00  0.00    +0.000 A 
ATOM      5  C   UNL     1       1.006  11.143  21.080  0.00  0.00    +0.000 A 
ATOM      6  N   UNL     1       0.369  12.287  21.454  0.00  0.00    +0.000 NA
ENDROOT
BRANCH   4   7
ATOM      7  N   UNL     1       1.286   9.082  19.798  0.00  0.00    +0.000 N 
ATOM      8  C   UNL     1       1.989   8.885  18.630  0.00  0.00    +0.000 C 
ATOM      9  O   UNL     1       2.138   9.741  17.759  0.00  0.00    +0.000 OA
ATOM     10  N   UNL     1       2.572   7.652  18.487  0.00  0.00    +0.000 N 
ATOM     11  C   UNL     1       3.436   7.428  17.330  0.00  0.00    +0.000 C 
ATOM     12  C   UNL     1       3.845   6.000  17.461  0.00  0.00    +0.000 A 
ATOM     13  C   UNL     1       4.733   5.289  16.671  0.00  0.00    +0.000 A 
ATOM     14  C   UNL     1       4.944   3.943  16.972  0.00  0.00    +0.000 A 
ATOM     15  C   UNL     1       4.266   3.335  18.040  0.00  0.00    +0.000 A 
ATOM     16  C   UNL     1       3.374   4.064  18.833  0.00  0.00    +0.000 A 
ATOM     17  C   UNL     1       3.175   5.403  18.536  0.00  0.00    +0.000 A 
ATOM     18  C   UNL     1       2.294   6.409  19.213  0.00  0.00    +0.000 C 
ATOM     19  H   UNL     1       1.547   8.490  20.570  0.00  0.00    +0.000 HD
ENDBRANCH   4   7
BRANCH   1  20
ATOM     20  O   UNL     1      -1.521  13.679  21.129  0.00  0.00    +0.000 OA
BRANCH  20  26
ATOM     21  C   UNL     1      -6.000  13.418  23.014  0.00  0.00    +0.000 C 
ATOM     22  O   UNL     1      -6.317  12.392  23.622  0.00  0.00    +0.000 OA
ATOM     23  N   UNL     1      -4.756  13.539  22.405  0.00  0.00    +0.000 N 
ATOM     24  C   UNL     1      -3.891  12.364  22.335  0.00  0.00    +0.000 C 
ATOM     25  C   UNL     1      -2.583  12.605  23.080  0.00  0.00    +0.000 C 
ATOM     26  C   UNL     1      -1.859  13.837  22.515  0.00  0.00    +0.000 C 
ATOM     27  C   UNL     1      -2.810  15.045  22.596  0.00  0.00    +0.000 C 
ATOM     28  C   UNL     1      -4.146  14.767  21.892  0.00  0.00    +0.000 C 
BRANCH  21  30
ATOM     29  C   UNL     1      -7.901  14.183  21.608  0.00  0.00    +0.000 C 
ATOM     30  C   UNL     1      -7.030  14.536  22.814  0.00  0.00    +0.000 C 
ATOM     31  C   UNL     1      -7.903  14.717  24.058  0.00  0.00    +0.000 C 
ENDBRANCH  21  30
ENDBRANCH  20  26
ENDBRANCH   1  20
TORSDOF 4
ENDMDL
MODEL 8
REMARK VINA RESULT:      -7.7      8.899     12.356
REMARK  Name = 
REMARK  6 active torsions:
REMARK  status: ('A' for Active; 'I' for Inactive)
REMARK    1  A    between atoms: C_1  and  C_2
REMARK    2  A    between atoms: C_2  and  C_3
REMARK    3  A    between atoms: C_2  and  C_4
REMARK    4  A    between atoms: C_9  and  O_10
REMARK    5  A    between atoms: O_10  and  C_11
REMARK    6  A    between atoms: C_14  and  N_15
REMARK                            x       y       z     vdW  Elec       q    Type
REMARK                         _______ _______ _______ _____ _____    ______ ____
ROOT
ATOM      1  C   UNL     1      -0.491  11.515  22.695  0.00  0.00    +0.000 A 
ATOM      2  C   UNL     1      -0.935  10.300  23.182  0.00  0.00    +0.000 A 
ATOM      3  C   UNL     1      -0.332   9.135  22.720  0.00  0.00    +0.000 A 
ATOM      4  C   UNL     1       0.672   9.203  21.755  0.00  0.00    +0.000 A 
ATOM      5  C   UNL     1       1.035  10.481  21.324  0.00  0.00    +0.000 A 
ATOM      6  N   UNL     1       0.481  11.642  21.770  0.00  0.00    +0.000 NA
ENDROOT
BRANCH   4   7
ATOM      7  N   UNL     1       1.322   8.057  21.229  0.00  0.00    +0.000 N 
ATOM      8  C   UNL     1       1.737   7.923  19.923  0.00  0.00    +0.000 C 
ATOM      9  O   UNL     1       1.682   8.820  19.084  0.00  0.00    +0.000 OA
ATOM     10  N   UNL     1       2.274   6.704  19.591  0.00  0.00    +0.000 N 
ATOM     11  C   UNL     1       2.848   6.545  18.258  0.00  0.00    +0.000 C 
ATOM     12  C   UNL     1       3.278   5.117  18.222  0.00  0.00    +0.000 A 
ATOM     13  C   UNL     1       3.961   4.455  17.216  0.00  0.00    +0.000 A 
ATOM     14  C   UNL     1       4.236   3.099  17.395  0.00  0.00    +0.000 A 
ATOM     15  C   UNL     1       3.823   2.433  18.560  0.00  0.00    +0.000 A 
ATOM     16  C   UNL     1       3.136   3.114  19.571  0.00  0.00    +0.000 A 
ATOM     17  C   UNL     1       2.873   4.463  19.392  0.00  0.00    +0.000 A 
ATOM     18  C   UNL     1       2.170   5.425  20.301  0.00  0.00    +0.000 C 
ATOM     19  H   UNL     1       1.753   7.432  21.892  0.00  0.00    +0.000 HD
ENDBRANCH   4   7
BRANCH   1  20
ATOM     20  O   UNL     1      -1.109  12.627  23.224  0.00  0.00    +0.000 OA
BRANCH  20  26
ATOM     21  C   UNL     1      -3.186  16.893  24.310  0.00  0.00    +0.000 C 
ATOM     22  O   UNL     1      -2.451  17.836  24.616  0.00  0.00    +0.000 OA
ATOM     23  N   UNL     1      -2.664  15.633  24.040  0.00  0.00    +0.000 N 
ATOM     24  C   UNL     1      -1.246  15.388  24.300  0.00  0.00    +0.000 C 
ATOM     25  C   UNL     1      -0.515  15.013  23.017  0.00  0.00    +0.000 C 
ATOM     26  C   UNL     1      -1.160  13.779  22.368  0.00  0.00    +0.000 C 
ATOM     27  C   UNL     1      -2.651  14.075  22.125  0.00  0.00    +0.000 C 
ATOM     28  C   UNL     1      -3.364  14.509  23.415  0.00  0.00    +0.000 C 
BRANCH  21  30
ATOM     29  C   UNL     1      -5.066  17.969  25.527  0.00  0.00    +0.000 C 
ATOM     30  C   UNL     1      -4.708  17.067  24.346  0.00  0.00    +0.000 C 
ATOM     31  C   UNL     1      -5.229  17.677  23.042  0.00  0.00    +0.000 C 
ENDBRANCH  21  30
ENDBRANCH  20  26
ENDBRANCH   1  20
TORSDOF 4
ENDMDL
MODEL 9
REMARK VINA RESULT:      -7.7      8.175     11.217
REMARK  Name = 
REMARK  6 active torsions:
REMARK  status: ('A' for Active; 'I' for Inactive)
REMARK    1  A    between atoms: C_1  and  C_2
REMARK    2  A    between atoms: C_2  and  C_3
REMARK    3  A    between atoms: C_2  and  C_4
REMARK    4  A    between atoms: C_9  and  O_10
REMARK    5  A    between atoms: O_10  and  C_11
REMARK    6  A    between atoms: C_14  and  N_15
REMARK                            x       y       z     vdW  Elec       q    Type
REMARK                         _______ _______ _______ _____ _____    ______ ____
ROOT
ATOM      1  C   UNL     1      -0.549  10.951  21.520  0.00  0.00    +0.000 A 
ATOM      2  C   UNL     1       0.213   9.973  22.130  0.00  0.00    +0.000 A 
ATOM      3  C   UNL     1       1.019   9.164  21.337  0.00  0.00    +0.000 A 
ATOM      4  C   UNL     1       1.020   9.321  19.952  0.00  0.00    +0.000 A 
ATOM      5  C   UNL     1       0.205  10.333  19.440  0.00  0.00    +0.000 A 
ATOM      6  N   UNL     1      -0.580  11.156  20.189  0.00  0.00    +0.000 NA
ENDROOT
BRANCH   4   7
ATOM      7  N   UNL     1       1.807   8.524  19.081  0.00  0.00    +0.000 N 
ATOM      8  C   UNL     1       2.210   7.235  19.351  0.00  0.00    +0.000 C 
ATOM      9  O   UNL     1       1.852   6.589  20.334  0.00  0.00    +0.000 OA
ATOM     10  N   UNL     1       3.035   6.662  18.416  0.00  0.00    +0.000 N 
ATOM     11  C   UNL     1       3.391   5.255  18.582  0.00  0.00    +0.000 C 
ATOM     12  C   UNL     1       4.320   4.985  17.447  0.00  0.00    +0.000 A 
ATOM     13  C   UNL     1       4.894   3.780  17.080  0.00  0.00    +0.000 A 
ATOM     14  C   UNL     1       5.759   3.773  15.985  0.00  0.00    +0.000 A 
ATOM     15  C   UNL     1       6.038   4.959  15.287  0.00  0.00    +0.000 A 
ATOM     16  C   UNL     1       5.449   6.170  15.665  0.00  0.00    +0.000 A 
ATOM     17  C   UNL     1       4.583   6.169  16.748  0.00  0.00    +0.000 A 
ATOM     18  C   UNL     1       3.820   7.306  17.358  0.00  0.00    +0.000 C 
ATOM     19  H   UNL     1       1.836   8.798  18.112  0.00  0.00    +0.000 HD
ENDBRANCH   4   7
BRANCH   1  20
ATOM     20  O   UNL     1      -1.295  11.739  22.371  0.00  0.00    +0.000 OA
BRANCH  20  26
ATOM     21  C   UNL     1      -5.129  14.498  23.543  0.00  0.00    +0.000 C 
ATOM     22  O   UNL     1      -4.971  15.385  24.387  0.00  0.00    +0.000 OA
ATOM     23  N   UNL     1      -4.091  13.639  23.199  0.00  0.00    +0.000 N 
ATOM     24  C   UNL     1      -2.858  13.678  23.982  0.00  0.00    +0.000 C 
ATOM     25  C   UNL     1      -1.670  14.063  23.109  0.00  0.00    +0.000 C 
ATOM     26  C   UNL     1      -1.525  13.086  21.932  0.00  0.00    +0.000 C 
ATOM     27  C   UNL     1      -2.848  13.066  21.145  0.00  0.00    +0.000 C 
ATOM     28  C   UNL     1      -4.045  12.735  22.048  0.00  0.00    +0.000 C 
BRANCH  21  30
ATOM     29  C   UNL     1      -7.555  14.372  24.063  0.00  0.00    +0.000 C 
ATOM     30  C   UNL     1      -6.518  14.250  22.946  0.00  0.00    +0.000 C 
ATOM     31  C   UNL     1      -6.830  15.248  21.828  0.00  0.00    +0.000 C 
ENDBRANCH  21  30
ENDBRANCH  20  26
ENDBRANCH   1  20
TORSDOF 4
ENDMDL
