MODEL 1
REMARK VINA RESULT:      -6.4      0.000      0.000
REMARK  Name = 
REMARK  8 active torsions:
REMARK  status: ('A' for Active; 'I' for Inactive)
REMARK    1  A    between atoms: C_1  and  C_2
REMARK    2  A    between atoms: C_2  and  N_3
REMARK    3  A    between atoms: N_3  and  C_4
REMARK    4  A    between atoms: C_4  and  N_6
REMARK    5  A    between atoms: N_6  and  N_7
REMARK    6  A    between atoms: N_10  and  C_11
REMARK    7  A    between atoms: C_14  and  S_15
REMARK    8  A    between atoms: S_15  and  C_16
REMARK                            x       y       z     vdW  Elec       q    Type
REMARK                         _______ _______ _______ _____ _____    ______ ____
ROOT
ATOM      1  N   UNL     1       4.196   4.810  17.216  0.00  0.00    +0.000 N 
ATOM      2  C   UNL     1       3.871   5.705  18.225  0.00  0.00    +0.000 C 
ATOM      3  O   UNL     1       4.496   5.745  19.273  0.00  0.00    +0.000 OA
ATOM      4  N   UNL     1       2.768   6.464  17.881  0.00  0.00    +0.000 N 
ATOM      5  H   UNL     1       4.207   5.191  16.274  0.00  0.00    +0.000 HD
ATOM      6  H   UNL     1       2.222   6.113  17.111  0.00  0.00    +0.000 HD
ENDROOT
BRANCH   4   7
ATOM      7  C   UNL     1       2.192   7.482  18.662  0.00  0.00    +0.000 A 
ATOM      8  C   UNL     1       1.845   8.734  18.142  0.00  0.00    +0.000 A 
ATOM      9  C   UNL     1       1.263   9.709  18.955  0.00  0.00    +0.000 A 
ATOM     10  C   UNL     1       1.019   9.424  20.296  0.00  0.00    +0.000 A 
ATOM     11  C   UNL     1       1.378   8.190  20.841  0.00  0.00    +0.000 A 
ATOM     12  C   UNL     1       1.953   7.217  20.017  0.00  0.00    +0.000 A 
BRANCH  10  13
ATOM     13  S   UNL     1       0.233  10.647  21.314  0.00  0.00    +0.000 S 
ATOM     14  C   UNL     1      -0.046   9.765  22.828  0.00  0.00    +0.000 C 
ATOM     15  O   UNL     1       1.202  11.694  21.567  0.00  0.00    +0.000 OA
ATOM     16  O   UNL     1      -1.060  10.949  20.724  0.00  0.00    +0.000 OA
ENDBRANCH  10  13
ENDBRANCH   4   7
BRANCH   1  17
ATOM     17  N   UNL     1       5.288   3.961  17.491  0.00  0.00    +0.000 N 
ATOM     18  H   UNL     1       5.082   3.047  17.899  0.00  0.00    +0.000 HD
BRANCH  17  19
ATOM     19  C   UNL     1       6.567   4.316  17.145  0.00  0.00    +0.000 C 
ATOM     20  S   UNL     1       6.977   4.514  15.546  0.00  0.00    +0.000 S 
BRANCH  19  21
ATOM     21  N   UNL     1       7.402   4.418  18.229  0.00  0.00    +0.000 N 
ATOM     22  H   UNL     1       7.334   3.613  18.838  0.00  0.00    +0.000 HD
BRANCH  21  24
ATOM     23  C   UNL     1       7.517   6.825  17.958  0.00  0.00    +0.000 C 
ATOM     24  C   UNL     1       7.938   5.638  18.802  0.00  0.00    +0.000 C 
ENDBRANCH  21  24
ENDBRANCH  19  21
ENDBRANCH  17  19
ENDBRANCH   1  17
TORSDOF 6
ENDMDL
MODEL 2
REMARK VINA RESULT:      -6.4      3.452      7.791
REMARK  Name = 
REMARK  8 active torsions:
REMARK  status: ('A' for Active; 'I' for Inactive)
REMARK    1  A    between atoms: C_1  and  C_2
REMARK    2  A    between atoms: C_2  and  N_3
REMARK    3  A    between atoms: N_3  and  C_4
REMARK    4  A    between atoms: C_4  and  N_6
REMARK    5  A    between atoms: N_6  and  N_7
REMARK    6  A    between atoms: N_10  and  C_11
REMARK    7  A    between atoms: C_14  and  S_15
REMARK    8  A    between atoms: S_15  and  C_16
REMARK                            x       y       z     vdW  Elec       q    Type
REMARK                         _______ _______ _______ _____ _____    ______ ____
ROOT
ATOM      1  N   UNL     1       1.464  10.050  17.675  0.00  0.00    +0.000 N 
ATOM      2  C   UNL     1       1.736   8.923  18.436  0.00  0.00    +0.000 C 
ATOM      3  O   UNL     1       1.480   8.877  19.630  0.00  0.00    +0.000 OA
ATOM      4  N   UNL     1       2.343   7.943  17.674  0.00  0.00    +0.000 N 
ATOM      5  H   UNL     1       1.039   9.879  16.768  0.00  0.00    +0.000 HD
ATOM      6  H   UNL     1       2.722   8.249  16.792  0.00  0.00    +0.000 HD
ENDROOT
BRANCH   4   7
ATOM      7  C   UNL     1       2.726   6.666  18.126  0.00  0.00    +0.000 A 
ATOM      8  C   UNL     1       4.034   6.361  18.519  0.00  0.00    +0.000 A 
ATOM      9  C   UNL     1       4.364   5.081  18.971  0.00  0.00    +0.000 A 
ATOM     10  C   UNL     1       3.373   4.105  19.039  0.00  0.00    +0.000 A 
ATOM     11  C   UNL     1       2.068   4.381  18.630  0.00  0.00    +0.000 A 
ATOM     12  C   UNL     1       1.746   5.668  18.185  0.00  0.00    +0.000 A 
BRANCH  10  13
ATOM     13  S   UNL     1       3.784   2.495  19.663  0.00  0.00    +0.000 S 
ATOM     14  C   UNL     1       2.807   2.394  21.140  0.00  0.00    +0.000 C 
ATOM     15  O   UNL     1       3.283   1.518  18.717  0.00  0.00    +0.000 OA
ATOM     16  O   UNL     1       5.184   2.513  20.049  0.00  0.00    +0.000 OA
ENDBRANCH  10  13
ENDBRANCH   4   7
BRANCH   1  17
ATOM     17  N   UNL     1       0.878  11.125  18.376  0.00  0.00    +0.000 N 
ATOM     18  H   UNL     1       1.495  11.880  18.681  0.00  0.00    +0.000 HD
BRANCH  17  19
ATOM     19  C   UNL     1      -0.479  11.193  18.565  0.00  0.00    +0.000 C 
ATOM     20  S   UNL     1      -1.099  11.547  20.066  0.00  0.00    +0.000 S 
BRANCH  19  21
ATOM     21  N   UNL     1      -1.190  10.892  17.430  0.00  0.00    +0.000 N 
ATOM     22  H   UNL     1      -1.170  11.650  16.758  0.00  0.00    +0.000 HD
BRANCH  21  24
ATOM     23  C   UNL     1      -2.709   9.843  15.858  0.00  0.00    +0.000 C 
ATOM     24  C   UNL     1      -2.264   9.926  17.306  0.00  0.00    +0.000 C 
ENDBRANCH  21  24
ENDBRANCH  19  21
ENDBRANCH  17  19
ENDBRANCH   1  17
TORSDOF 6
ENDMDL
MODEL 3
REMARK VINA RESULT:      -6.4      0.766      1.706
REMARK  Name = 
REMARK  8 active torsions:
REMARK  status: ('A' for Active; 'I' for Inactive)
REMARK    1  A    between atoms: C_1  and  C_2
REMARK    2  A    between atoms: C_2  and  N_3
REMARK    3  A    between atoms: N_3  and  C_4
REMARK    4  A    between atoms: C_4  and  N_6
REMARK    5  A    between atoms: N_6  and  N_7
REMARK    6  A    between atoms: N_10  and  C_11
REMARK    7  A    between atoms: C_14  and  S_15
REMARK    8  A    between atoms: S_15  and  C_16
REMARK                            x       y       z     vdW  Elec       q    Type
REMARK                         _______ _______ _______ _____ _____    ______ ____
ROOT
ATOM      1  N   UNL     1       4.375   4.689  17.573  0.00  0.00    +0.000 N 
ATOM      2  C   UNL     1       4.048   5.745  18.413  0.00  0.00    +0.000 C 
ATOM      3  O   UNL     1       4.753   6.052  19.362  0.00  0.00    +0.000 OA
ATOM      4  N   UNL     1       2.849   6.322  18.042  0.00  0.00    +0.000 N 
ATOM      5  H   UNL     1       4.268   4.867  16.579  0.00  0.00    +0.000 HD
ATOM      6  H   UNL     1       2.278   5.776  17.417  0.00  0.00    +0.000 HD
ENDROOT
BRANCH   4   7
ATOM      7  C   UNL     1       2.241   7.430  18.660  0.00  0.00    +0.000 A 
ATOM      8  C   UNL     1       1.901   7.450  20.017  0.00  0.00    +0.000 A 
ATOM      9  C   UNL     1       1.308   8.578  20.589  0.00  0.00    +0.000 A 
ATOM     10  C   UNL     1       1.065   9.697  19.796  0.00  0.00    +0.000 A 
ATOM     11  C   UNL     1       1.375   9.690  18.436  0.00  0.00    +0.000 A 
ATOM     12  C   UNL     1       1.975   8.558  17.874  0.00  0.00    +0.000 A 
BRANCH  10  13
ATOM     13  S   UNL     1       0.359  11.148  20.537  0.00  0.00    +0.000 S 
ATOM     14  C   UNL     1       0.051  12.185  19.131  0.00  0.00    +0.000 C 
ATOM     15  O   UNL     1      -0.915  10.769  21.114  0.00  0.00    +0.000 OA
ATOM     16  O   UNL     1       1.389  11.778  21.344  0.00  0.00    +0.000 OA
ENDBRANCH  10  13
ENDBRANCH   4   7
BRANCH   1  17
ATOM     17  N   UNL     1       5.567   4.008  17.897  0.00  0.00    +0.000 N 
ATOM     18  H   UNL     1       5.502   3.236  18.563  0.00  0.00    +0.000 HD
BRANCH  17  19
ATOM     19  C   UNL     1       6.751   4.316  17.276  0.00  0.00    +0.000 C 
ATOM     20  S   UNL     1       6.830   4.403  15.618  0.00  0.00    +0.000 S 
BRANCH  19  21
ATOM     21  N   UNL     1       7.789   4.474  18.160  0.00  0.00    +0.000 N 
ATOM     22  H   UNL     1       8.213   3.588  18.408  0.00  0.00    +0.000 HD
BRANCH  21  24
ATOM     23  C   UNL     1       7.897   6.892  18.304  0.00  0.00    +0.000 C 
ATOM     24  C   UNL     1       8.000   5.585  19.067  0.00  0.00    +0.000 C 
ENDBRANCH  21  24
ENDBRANCH  19  21
ENDBRANCH  17  19
ENDBRANCH   1  17
TORSDOF 6
ENDMDL
MODEL 4
REMARK VINA RESULT:      -6.2      2.215      3.138
REMARK  Name = 
REMARK  8 active torsions:
REMARK  status: ('A' for Active; 'I' for Inactive)
REMARK    1  A    between atoms: C_1  and  C_2
REMARK    2  A    between atoms: C_2  and  N_3
REMARK    3  A    between atoms: N_3  and  C_4
REMARK    4  A    between atoms: C_4  and  N_6
REMARK    5  A    between atoms: N_6  and  N_7
REMARK    6  A    between atoms: N_10  and  C_11
REMARK    7  A    between atoms: C_14  and  S_15
REMARK    8  A    between atoms: S_15  and  C_16
REMARK                            x       y       z     vdW  Elec       q    Type
REMARK                         _______ _______ _______ _____ _____    ______ ____
ROOT
ATOM      1  N   UNL     1       4.262   3.994  16.546  0.00  0.00    +0.000 N 
ATOM      2  C   UNL     1       4.131   4.873  17.611  0.00  0.00    +0.000 C 
ATOM      3  O   UNL     1       5.087   5.185  18.306  0.00  0.00    +0.000 OA
ATOM      4  N   UNL     1       2.819   5.275  17.767  0.00  0.00    +0.000 N 
ATOM      5  H   UNL     1       3.786   4.264  15.690  0.00  0.00    +0.000 HD
ATOM      6  H   UNL     1       2.132   4.714  17.288  0.00  0.00    +0.000 HD
ENDROOT
BRANCH   4   7
ATOM      7  C   UNL     1       2.343   6.182  18.732  0.00  0.00    +0.000 A 
ATOM      8  C   UNL     1       1.979   5.794  20.025  0.00  0.00    +0.000 A 
ATOM      9  C   UNL     1       1.522   6.734  20.952  0.00  0.00    +0.000 A 
ATOM     10  C   UNL     1       1.440   8.073  20.581  0.00  0.00    +0.000 A 
ATOM     11  C   UNL     1       1.776   8.479  19.289  0.00  0.00    +0.000 A 
ATOM     12  C   UNL     1       2.239   7.531  18.370  0.00  0.00    +0.000 A 
BRANCH  10  13
ATOM     13  S   UNL     1       0.909   9.273  21.776  0.00  0.00    +0.000 S 
ATOM     14  C   UNL     1       0.801  10.757  20.809  0.00  0.00    +0.000 C 
ATOM     15  O   UNL     1      -0.427   8.906  22.201  0.00  0.00    +0.000 OA
ATOM     16  O   UNL     1       1.981   9.441  22.741  0.00  0.00    +0.000 OA
ENDBRANCH  10  13
ENDBRANCH   4   7
BRANCH   1  17
ATOM     17  N   UNL     1       5.563   3.495  16.330  0.00  0.00    +0.000 N 
ATOM     18  H   UNL     1       5.885   2.741  16.940  0.00  0.00    +0.000 HD
BRANCH  17  19
ATOM     19  C   UNL     1       6.333   3.948  15.289  0.00  0.00    +0.000 C 
ATOM     20  S   UNL     1       7.288   5.297  15.478  0.00  0.00    +0.000 S 
BRANCH  19  21
ATOM     21  N   UNL     1       6.166   3.211  14.144  0.00  0.00    +0.000 N 
ATOM     22  H   UNL     1       6.325   2.224  14.302  0.00  0.00    +0.000 HD
BRANCH  21  24
ATOM     23  C   UNL     1       5.016   3.322  12.012  0.00  0.00    +0.000 C 
ATOM     24  C   UNL     1       6.273   3.687  12.779  0.00  0.00    +0.000 C 
ENDBRANCH  21  24
ENDBRANCH  19  21
ENDBRANCH  17  19
ENDBRANCH   1  17
TORSDOF 6
ENDMDL
MODEL 5
REMARK VINA RESULT:      -6.2      2.033      2.413
REMARK  Name = 
REMARK  8 active torsions:
REMARK  status: ('A' for Active; 'I' for Inactive)
REMARK    1  A    between atoms: C_1  and  C_2
REMARK    2  A    between atoms: C_2  and  N_3
REMARK    3  A    between atoms: N_3  and  C_4
REMARK    4  A    between atoms: C_4  and  N_6
REMARK    5  A    between atoms: N_6  and  N_7
REMARK    6  A    between atoms: N_10  and  C_11
REMARK    7  A    between atoms: C_14  and  S_15
REMARK    8  A    between atoms: S_15  and  C_16
REMARK                            x       y       z     vdW  Elec       q    Type
REMARK                         _______ _______ _______ _____ _____    ______ ____
ROOT
ATOM      1  N   UNL     1       3.889   5.374  19.843  0.00  0.00    +0.000 N 
ATOM      2  C   UNL     1       2.848   6.137  19.333  0.00  0.00    +0.000 C 
ATOM      3  O   UNL     1       2.229   5.793  18.338  0.00  0.00    +0.000 OA
ATOM      4  N   UNL     1       2.670   7.293  20.069  0.00  0.00    +0.000 N 
ATOM      5  H   UNL     1       3.894   5.253  20.852  0.00  0.00    +0.000 HD
ATOM      6  H   UNL     1       3.434   7.543  20.676  0.00  0.00    +0.000 HD
ENDROOT
BRANCH   4   7
ATOM      7  C   UNL     1       1.687   8.273  19.842  0.00  0.00    +0.000 A 
ATOM      8  C   UNL     1       0.762   8.661  20.817  0.00  0.00    +0.000 A 
ATOM      9  C   UNL     1      -0.189   9.648  20.547  0.00  0.00    +0.000 A 
ATOM     10  C   UNL     1      -0.206  10.256  19.295  0.00  0.00    +0.000 A 
ATOM     11  C   UNL     1       0.693   9.867  18.300  0.00  0.00    +0.000 A 
ATOM     12  C   UNL     1       1.646   8.884  18.582  0.00  0.00    +0.000 A 
BRANCH  10  13
ATOM     13  S   UNL     1      -1.382  11.546  18.972  0.00  0.00    +0.000 S 
ATOM     14  C   UNL     1      -1.756  12.141  20.601  0.00  0.00    +0.000 C 
ATOM     15  O   UNL     1      -0.692  12.595  18.249  0.00  0.00    +0.000 OA
ATOM     16  O   UNL     1      -2.580  10.927  18.432  0.00  0.00    +0.000 OA
ENDBRANCH  10  13
ENDBRANCH   4   7
BRANCH   1  17
ATOM     17  N   UNL     1       4.174   4.190  19.133  0.00  0.00    +0.000 N 
ATOM     18  H   UNL     1       3.600   3.369  19.337  0.00  0.00    +0.000 HD
BRANCH  17  19
ATOM     19  C   UNL     1       5.128   4.166  18.148  0.00  0.00    +0.000 C 
ATOM     20  S   UNL     1       4.680   4.056  16.550  0.00  0.00    +0.000 S 
BRANCH  19  21
ATOM     21  N   UNL     1       6.407   4.187  18.645  0.00  0.00    +0.000 N 
ATOM     22  H   UNL     1       6.426   4.049  19.648  0.00  0.00    +0.000 HD
BRANCH  21  24
ATOM     23  C   UNL     1       7.552   6.303  18.349  0.00  0.00    +0.000 C 
ATOM     24  C   UNL     1       7.565   4.818  18.043  0.00  0.00    +0.000 C 
ENDBRANCH  21  24
ENDBRANCH  19  21
ENDBRANCH  17  19
ENDBRANCH   1  17
TORSDOF 6
ENDMDL
MODEL 6
REMARK VINA RESULT:      -6.2      3.701      8.063
REMARK  Name = 
REMARK  8 active torsions:
REMARK  status: ('A' for Active; 'I' for Inactive)
REMARK    1  A    between atoms: C_1  and  C_2
REMARK    2  A    between atoms: C_2  and  N_3
REMARK    3  A    between atoms: N_3  and  C_4
REMARK    4  A    between atoms: C_4  and  N_6
REMARK    5  A    between atoms: N_6  and  N_7
REMARK    6  A    between atoms: N_10  and  C_11
REMARK    7  A    between atoms: C_14  and  S_15
REMARK    8  A    between atoms: S_15  and  C_16
REMARK                            x       y       z     vdW  Elec       q    Type
REMARK                         _______ _______ _______ _____ _____    ______ ____
ROOT
ATOM      1  N   UNL     1       0.468  10.768  19.656  0.00  0.00    +0.000 N 
ATOM      2  C   UNL     1       1.015   9.683  18.988  0.00  0.00    +0.000 C 
ATOM      3  O   UNL     1       1.048   9.630  17.768  0.00  0.00    +0.000 OA
ATOM      4  N   UNL     1       1.449   8.718  19.877  0.00  0.00    +0.000 N 
ATOM      5  H   UNL     1       1.003  11.116  20.447  0.00  0.00    +0.000 HD
ATOM      6  H   UNL     1       1.099   8.804  20.817  0.00  0.00    +0.000 HD
ENDROOT
BRANCH   4   7
ATOM      7  C   UNL     1       2.078   7.506  19.537  0.00  0.00    +0.000 A 
ATOM      8  C   UNL     1       2.853   7.349  18.384  0.00  0.00    +0.000 A 
ATOM      9  C   UNL     1       3.467   6.128  18.095  0.00  0.00    +0.000 A 
ATOM     10  C   UNL     1       3.310   5.061  18.975  0.00  0.00    +0.000 A 
ATOM     11  C   UNL     1       2.522   5.188  20.120  0.00  0.00    +0.000 A 
ATOM     12  C   UNL     1       1.917   6.417  20.404  0.00  0.00    +0.000 A 
BRANCH  10  13
ATOM     13  S   UNL     1       4.133   3.526  18.633  0.00  0.00    +0.000 S 
ATOM     14  C   UNL     1       4.671   3.743  16.957  0.00  0.00    +0.000 C 
ATOM     15  O   UNL     1       5.304   3.458  19.484  0.00  0.00    +0.000 OA
ATOM     16  O   UNL     1       3.132   2.473  18.653  0.00  0.00    +0.000 OA
ENDBRANCH  10  13
ENDBRANCH   4   7
BRANCH   1  17
ATOM     17  N   UNL     1      -0.041  11.791  18.830  0.00  0.00    +0.000 N 
ATOM     18  H   UNL     1       0.626  12.464  18.447  0.00  0.00    +0.000 HD
BRANCH  17  19
ATOM     19  C   UNL     1      -1.369  11.830  18.485  0.00  0.00    +0.000 C 
ATOM     20  S   UNL     1      -2.518  12.221  19.622  0.00  0.00    +0.000 S 
BRANCH  19  21
ATOM     21  N   UNL     1      -1.590  11.471  17.179  0.00  0.00    +0.000 N 
ATOM     22  H   UNL     1      -1.519  12.262  16.552  0.00  0.00    +0.000 HD
BRANCH  21  24
ATOM     23  C   UNL     1      -2.880  10.597  15.322  0.00  0.00    +0.000 C 
ATOM     24  C   UNL     1      -2.330  10.317  16.707  0.00  0.00    +0.000 C 
ENDBRANCH  21  24
ENDBRANCH  19  21
ENDBRANCH  17  19
ENDBRANCH   1  17
TORSDOF 6
ENDMDL
MODEL 7
REMARK VINA RESULT:      -6.2      3.557      8.307
REMARK  Name = 
REMARK  8 active torsions:
REMARK  status: ('A' for Active; 'I' for Inactive)
REMARK    1  A    between atoms: C_1  and  C_2
REMARK    2  A    between atoms: C_2  and  N_3
REMARK    3  A    between atoms: N_3  and  C_4
REMARK    4  A    between atoms: C_4  and  N_6
REMARK    5  A    between atoms: N_6  and  N_7
REMARK    6  A    between atoms: N_10  and  C_11
REMARK    7  A    between atoms: C_14  and  S_15
REMARK    8  A    between atoms: S_15  and  C_16
REMARK                            x       y       z     vdW  Elec       q    Type
REMARK                         _______ _______ _______ _____ _____    ______ ____
ROOT
ATOM      1  N   UNL     1       0.072  10.688  18.144  0.00  0.00    +0.000 N 
ATOM      2  C   UNL     1       0.940   9.798  18.761  0.00  0.00    +0.000 C 
ATOM      3  O   UNL     1       1.123   9.814  19.968  0.00  0.00    +0.000 OA
ATOM      4  N   UNL     1       1.550   8.974  17.834  0.00  0.00    +0.000 N 
ATOM      5  H   UNL     1      -0.546  10.289  17.444  0.00  0.00    +0.000 HD
ATOM      6  H   UNL     1       1.491   9.279  16.876  0.00  0.00    +0.000 HD
ENDROOT
BRANCH   4   7
ATOM      7  C   UNL     1       2.462   7.943  18.122  0.00  0.00    +0.000 A 
ATOM      8  C   UNL     1       2.297   7.059  19.194  0.00  0.00    +0.000 A 
ATOM      9  C   UNL     1       3.225   6.042  19.432  0.00  0.00    +0.000 A 
ATOM     10  C   UNL     1       4.319   5.905  18.583  0.00  0.00    +0.000 A 
ATOM     11  C   UNL     1       4.516   6.789  17.521  0.00  0.00    +0.000 A 
ATOM     12  C   UNL     1       3.578   7.800  17.287  0.00  0.00    +0.000 A 
BRANCH  10  13
ATOM     13  S   UNL     1       5.469   4.581  18.857  0.00  0.00    +0.000 S 
ATOM     14  C   UNL     1       6.229   4.396  17.265  0.00  0.00    +0.000 C 
ATOM     15  O   UNL     1       6.470   5.057  19.789  0.00  0.00    +0.000 OA
ATOM     16  O   UNL     1       4.701   3.379  19.132  0.00  0.00    +0.000 OA
ENDBRANCH  10  13
ENDBRANCH   4   7
BRANCH   1  17
ATOM     17  N   UNL     1      -0.570  11.601  19.006  0.00  0.00    +0.000 N 
ATOM     18  H   UNL     1      -0.021  11.989  19.775  0.00  0.00    +0.000 HD
BRANCH  17  19
ATOM     19  C   UNL     1      -1.857  12.014  18.769  0.00  0.00    +0.000 C 
ATOM     20  S   UNL     1      -2.838  12.463  20.034  0.00  0.00    +0.000 S 
BRANCH  19  21
ATOM     21  N   UNL     1      -2.200  11.952  17.442  0.00  0.00    +0.000 N 
ATOM     22  H   UNL     1      -1.895  12.772  16.933  0.00  0.00    +0.000 HD
BRANCH  21  24
ATOM     23  C   UNL     1      -2.879  10.739  15.456  0.00  0.00    +0.000 C 
ATOM     24  C   UNL     1      -3.271  11.170  16.856  0.00  0.00    +0.000 C 
ENDBRANCH  21  24
ENDBRANCH  19  21
ENDBRANCH  17  19
ENDBRANCH   1  17
TORSDOF 6
ENDMDL
MODEL 8
REMARK VINA RESULT:      -6.1      3.457      8.037
REMARK  Name = 
REMARK  8 active torsions:
REMARK  status: ('A' for Active; 'I' for Inactive)
REMARK    1  A    between atoms: C_1  and  C_2
REMARK    2  A    between atoms: C_2  and  N_3
REMARK    3  A    between atoms: N_3  and  C_4
REMARK    4  A    between atoms: C_4  and  N_6
REMARK    5  A    between atoms: N_6  and  N_7
REMARK    6  A    between atoms: N_10  and  C_11
REMARK    7  A    between atoms: C_14  and  S_15
REMARK    8  A    between atoms: S_15  and  C_16
REMARK                            x       y       z     vdW  Elec       q    Type
REMARK                         _______ _______ _______ _____ _____    ______ ____
ROOT
ATOM      1  N   UNL     1       0.963  10.769  17.884  0.00  0.00    +0.000 N 
ATOM      2  C   UNL     1       1.382   9.616  18.533  0.00  0.00    +0.000 C 
ATOM      3  O   UNL     1       1.236   9.469  19.737  0.00  0.00    +0.000 OA
ATOM      4  N   UNL     1       1.987   8.741  17.653  0.00  0.00    +0.000 N 
ATOM      5  H   UNL     1       0.473  10.628  17.006  0.00  0.00    +0.000 HD
ATOM      6  H   UNL     1       2.264   9.136  16.768  0.00  0.00    +0.000 HD
ENDROOT
BRANCH   4   7
ATOM      7  C   UNL     1       2.500   7.471  17.973  0.00  0.00    +0.000 A 
ATOM      8  C   UNL     1       1.710   6.445  18.504  0.00  0.00    +0.000 A 
ATOM      9  C   UNL     1       2.263   5.195  18.796  0.00  0.00    +0.000 A 
ATOM     10  C   UNL     1       3.613   4.971  18.543  0.00  0.00    +0.000 A 
ATOM     11  C   UNL     1       4.424   5.987  18.035  0.00  0.00    +0.000 A 
ATOM     12  C   UNL     1       3.860   7.232  17.740  0.00  0.00    +0.000 A 
BRANCH  10  13
ATOM     13  S   UNL     1       4.301   3.367  18.866  0.00  0.00    +0.000 S 
ATOM     14  C   UNL     1       3.320   2.795  20.229  0.00  0.00    +0.000 C 
ATOM     15  O   UNL     1       4.018   2.530  17.717  0.00  0.00    +0.000 OA
ATOM     16  O   UNL     1       5.662   3.556  19.338  0.00  0.00    +0.000 OA
ENDBRANCH  10  13
ENDBRANCH   4   7
BRANCH   1  17
ATOM     17  N   UNL     1       0.366  11.744  18.710  0.00  0.00    +0.000 N 
ATOM     18  H   UNL     1       0.976  12.254  19.353  0.00  0.00    +0.000 HD
BRANCH  17  19
ATOM     19  C   UNL     1      -0.965  12.053  18.594  0.00  0.00    +0.000 C 
ATOM     20  S   UNL     1      -1.870  12.380  19.950  0.00  0.00    +0.000 S 
BRANCH  19  21
ATOM     21  N   UNL     1      -1.412  12.001  17.298  0.00  0.00    +0.000 N 
ATOM     22  H   UNL     1      -1.069  12.778  16.746  0.00  0.00    +0.000 HD
BRANCH  21  24
ATOM     23  C   UNL     1      -2.308   9.834  16.681  0.00  0.00    +0.000 C 
ATOM     24  C   UNL     1      -2.595  11.318  16.812  0.00  0.00    +0.000 C 
ENDBRANCH  21  24
ENDBRANCH  19  21
ENDBRANCH  17  19
ENDBRANCH   1  17
TORSDOF 6
ENDMDL
MODEL 9
REMARK VINA RESULT:      -6.1      3.762      8.078
REMARK  Name = 
REMARK  8 active torsions:
REMARK  status: ('A' for Active; 'I' for Inactive)
REMARK    1  A    between atoms: C_1  and  C_2
REMARK    2  A    between atoms: C_2  and  N_3
REMARK    3  A    between atoms: N_3  and  C_4
REMARK    4  A    between atoms: C_4  and  N_6
REMARK    5  A    between atoms: N_6  and  N_7
REMARK    6  A    between atoms: N_10  and  C_11
REMARK    7  A    between atoms: C_14  and  S_15
REMARK    8  A    between atoms: S_15  and  C_16
REMARK                            x       y       z     vdW  Elec       q    Type
REMARK                         _______ _______ _______ _____ _____    ______ ____
ROOT
ATOM      1  N   UNL     1       0.704  10.672  19.709  0.00  0.00    +0.000 N 
ATOM      2  C   UNL     1       1.178   9.554  19.038  0.00  0.00    +0.000 C 
ATOM      3  O   UNL     1       1.189   9.495  17.818  0.00  0.00    +0.000 OA
ATOM      4  N   UNL     1       1.570   8.570  19.925  0.00  0.00    +0.000 N 
ATOM      5  H   UNL     1       1.270  10.991  20.490  0.00  0.00    +0.000 HD
ATOM      6  H   UNL     1       1.239   8.680  20.871  0.00  0.00    +0.000 HD
ENDROOT
BRANCH   4   7
ATOM      7  C   UNL     1       2.122   7.322  19.582  0.00  0.00    +0.000 A 
ATOM      8  C   UNL     1       2.890   7.122  18.430  0.00  0.00    +0.000 A 
ATOM      9  C   UNL     1       3.428   5.866  18.139  0.00  0.00    +0.000 A 
ATOM     10  C   UNL     1       3.201   4.808  19.013  0.00  0.00    +0.000 A 
ATOM     11  C   UNL     1       2.419   4.979  20.156  0.00  0.00    +0.000 A 
ATOM     12  C   UNL     1       1.892   6.242  20.444  0.00  0.00    +0.000 A 
BRANCH  10  13
ATOM     13  S   UNL     1       3.928   3.225  18.667  0.00  0.00    +0.000 S 
ATOM     14  C   UNL     1       2.576   2.112  18.947  0.00  0.00    +0.000 C 
ATOM     15  O   UNL     1       4.261   3.196  17.257  0.00  0.00    +0.000 OA
ATOM     16  O   UNL     1       4.938   2.971  19.680  0.00  0.00    +0.000 OA
ENDBRANCH  10  13
ENDBRANCH   4   7
BRANCH   1  17
ATOM     17  N   UNL     1       0.242  11.719  18.886  0.00  0.00    +0.000 N 
ATOM     18  H   UNL     1       0.944  12.307  18.432  0.00  0.00    +0.000 HD
BRANCH  17  19
ATOM     19  C   UNL     1      -1.097  11.888  18.638  0.00  0.00    +0.000 C 
ATOM     20  S   UNL     1      -2.101  12.480  19.825  0.00  0.00    +0.000 S 
BRANCH  19  21
ATOM     21  N   UNL     1      -1.462  11.475  17.381  0.00  0.00    +0.000 N 
ATOM     22  H   UNL     1      -0.805  11.784  16.675  0.00  0.00    +0.000 HD
BRANCH  21  24
ATOM     23  C   UNL     1      -3.130   9.716  17.402  0.00  0.00    +0.000 C 
ATOM     24  C   UNL     1      -2.794  11.119  16.934  0.00  0.00    +0.000 C 
ENDBRANCH  21  24
ENDBRANCH  19  21
ENDBRANCH  17  19
ENDBRANCH   1  17
TORSDOF 6
ENDMDL
