MODEL 1
REMARK VINA RESULT:      -6.4      0.000      0.000
REMARK  Name = 
REMARK  2 active torsions:
REMARK  status: ('A' for Active; 'I' for Inactive)
REMARK    1  A    between atoms: N_5  and  C_6
REMARK    2  A    between atoms: C_6  and  C_7
REMARK                            x       y       z     vdW  Elec       q    Type
REMARK                         _______ _______ _______ _____ _____    ______ ____
ROOT
ATOM      1  O   UNL     1       2.264   2.294  17.171  0.00  0.00    +0.000 OA
ATOM      2  C   UNL     1       2.819   3.332  17.450  0.00  0.00    +0.000 C 
ATOM      3  C   UNL     1       2.542   4.247  18.651  0.00  0.00    +0.000 C 
ATOM      4  O   UNL     1       1.698   4.040  19.495  0.00  0.00    +0.000 OA
ATOM      5  N   UNL     1       3.435   5.307  18.526  0.00  0.00    +0.000 N 
ATOM      6  C   UNL     1       4.241   5.165  17.369  0.00  0.00    +0.000 A 
ATOM      7  C   UNL     1       5.254   5.943  16.818  0.00  0.00    +0.000 A 
ATOM      8 BR   UNL     1       5.877   7.587  17.516  0.00  0.00    +0.000 Br
ATOM      9  C   UNL     1       5.883   5.502  15.636  0.00  0.00    +0.000 A 
ATOM     10  C   UNL     1       5.503   4.304  15.012  0.00  0.00    +0.000 A 
ATOM     11 BR   UNL     1       6.377   3.758  13.427  0.00  0.00    +0.000 Br
ATOM     12  C   UNL     1       4.491   3.518  15.543  0.00  0.00    +0.000 A 
ATOM     13  C   UNL     1       3.893   3.977  16.705  0.00  0.00    +0.000 A 
ENDROOT
BRANCH   5  14
ATOM     14  C   UNL     1       3.475   6.355  19.519  0.00  0.00    +0.000 C 
BRANCH  14  15
ATOM     15  C   UNL     1       2.451   7.458  19.340  0.00  0.00    +0.000 A 
ATOM     16  C   UNL     1       1.724   7.987  20.418  0.00  0.00    +0.000 A 
ATOM     17  C   UNL     1       0.870   9.080  20.239  0.00  0.00    +0.000 A 
ATOM     18  C   UNL     1       0.746   9.665  18.982  0.00  0.00    +0.000 A 
ATOM     19 CL   UNL     1      -0.273  11.036  18.772  0.00  0.00    +0.000 Cl
ATOM     20  C   UNL     1       1.460   9.159  17.900  0.00  0.00    +0.000 A 
ATOM     21  C   UNL     1       2.310   8.064  18.079  0.00  0.00    +0.000 A 
ENDBRANCH  14  15
ENDBRANCH   5  14
TORSDOF 2
ENDMDL
MODEL 2
REMARK VINA RESULT:      -6.1      0.123      1.060
REMARK  Name = 
REMARK  2 active torsions:
REMARK  status: ('A' for Active; 'I' for Inactive)
REMARK    1  A    between atoms: N_5  and  C_6
REMARK    2  A    between atoms: C_6  and  C_7
REMARK                            x       y       z     vdW  Elec       q    Type
REMARK                         _______ _______ _______ _____ _____    ______ ____
ROOT
ATOM      1  O   UNL     1       2.195   2.398  17.103  0.00  0.00    +0.000 OA
ATOM      2  C   UNL     1       2.782   3.412  17.403  0.00  0.00    +0.000 C 
ATOM      3  C   UNL     1       2.519   4.322  18.610  0.00  0.00    +0.000 C 
ATOM      4  O   UNL     1       1.654   4.136  19.439  0.00  0.00    +0.000 OA
ATOM      5  N   UNL     1       3.451   5.350  18.513  0.00  0.00    +0.000 N 
ATOM      6  C   UNL     1       4.270   5.193  17.366  0.00  0.00    +0.000 A 
ATOM      7  C   UNL     1       5.320   5.940  16.841  0.00  0.00    +0.000 A 
ATOM      8 BR   UNL     1       5.990   7.552  17.568  0.00  0.00    +0.000 Br
ATOM      9  C   UNL     1       5.951   5.490  15.664  0.00  0.00    +0.000 A 
ATOM     10  C   UNL     1       5.538   4.313  15.020  0.00  0.00    +0.000 A 
ATOM     11 BR   UNL     1       6.417   3.755  13.442  0.00  0.00    +0.000 Br
ATOM     12  C   UNL     1       4.490   3.559  15.525  0.00  0.00    +0.000 A 
ATOM     13  C   UNL     1       3.890   4.026  16.683  0.00  0.00    +0.000 A 
ENDROOT
BRANCH   5  14
ATOM     14  C   UNL     1       3.513   6.385  19.519  0.00  0.00    +0.000 C 
BRANCH  14  15
ATOM     15  C   UNL     1       2.587   7.564  19.294  0.00  0.00    +0.000 A 
ATOM     16  C   UNL     1       2.413   8.150  18.030  0.00  0.00    +0.000 A 
ATOM     17  C   UNL     1       1.469   9.161  17.833  0.00  0.00    +0.000 A 
ATOM     18  C   UNL     1       0.676   9.588  18.895  0.00  0.00    +0.000 A 
ATOM     19 CL   UNL     1      -0.514  10.804  18.641  0.00  0.00    +0.000 Cl
ATOM     20  C   UNL     1       0.829   9.019  20.156  0.00  0.00    +0.000 A 
ATOM     21  C   UNL     1       1.777   8.010  20.353  0.00  0.00    +0.000 A 
ENDBRANCH  14  15
ENDBRANCH   5  14
TORSDOF 2
ENDMDL
MODEL 3
REMARK VINA RESULT:      -6.0      3.275      6.046
REMARK  Name = 
REMARK  2 active torsions:
REMARK  status: ('A' for Active; 'I' for Inactive)
REMARK    1  A    between atoms: N_5  and  C_6
REMARK    2  A    between atoms: C_6  and  C_7
REMARK                            x       y       z     vdW  Elec       q    Type
REMARK                         _______ _______ _______ _____ _____    ______ ____
ROOT
ATOM      1  O   UNL     1       0.994   3.675  18.064  0.00  0.00    +0.000 OA
ATOM      2  C   UNL     1       2.100   4.130  17.889  0.00  0.00    +0.000 C 
ATOM      3  C   UNL     1       3.403   3.354  17.653  0.00  0.00    +0.000 C 
ATOM      4  O   UNL     1       3.490   2.146  17.617  0.00  0.00    +0.000 OA
ATOM      5  N   UNL     1       4.393   4.321  17.511  0.00  0.00    +0.000 N 
ATOM      6  C   UNL     1       3.857   5.628  17.643  0.00  0.00    +0.000 A 
ATOM      7  C   UNL     1       4.425   6.896  17.586  0.00  0.00    +0.000 A 
ATOM      8 BR   UNL     1       6.261   7.264  17.322  0.00  0.00    +0.000 Br
ATOM      9  C   UNL     1       3.591   8.021  17.744  0.00  0.00    +0.000 A 
ATOM     10  C   UNL     1       2.212   7.882  17.960  0.00  0.00    +0.000 A 
ATOM     11 BR   UNL     1       1.138   9.423  18.169  0.00  0.00    +0.000 Br
ATOM     12  C   UNL     1       1.628   6.625  18.026  0.00  0.00    +0.000 A 
ATOM     13  C   UNL     1       2.473   5.539  17.866  0.00  0.00    +0.000 A 
ENDROOT
BRANCH   5  14
ATOM     14  C   UNL     1       5.760   3.941  17.238  0.00  0.00    +0.000 C 
BRANCH  14  15
ATOM     15  C   UNL     1       6.183   4.038  15.786  0.00  0.00    +0.000 A 
ATOM     16  C   UNL     1       5.403   3.514  14.742  0.00  0.00    +0.000 A 
ATOM     17  C   UNL     1       5.763   3.718  13.407  0.00  0.00    +0.000 A 
ATOM     18  C   UNL     1       6.899   4.462  13.100  0.00  0.00    +0.000 A 
ATOM     19 CL   UNL     1       7.318   4.748  11.456  0.00  0.00    +0.000 Cl
ATOM     20  C   UNL     1       7.684   4.995  14.118  0.00  0.00    +0.000 A 
ATOM     21  C   UNL     1       7.325   4.786  15.454  0.00  0.00    +0.000 A 
ENDBRANCH  14  15
ENDBRANCH   5  14
TORSDOF 2
ENDMDL
MODEL 4
REMARK VINA RESULT:      -5.9      4.104      5.789
REMARK  Name = 
REMARK  2 active torsions:
REMARK  status: ('A' for Active; 'I' for Inactive)
REMARK    1  A    between atoms: N_5  and  C_6
REMARK    2  A    between atoms: C_6  and  C_7
REMARK                            x       y       z     vdW  Elec       q    Type
REMARK                         _______ _______ _______ _____ _____    ______ ____
ROOT
ATOM      1  O   UNL     1       3.470   7.930  16.962  0.00  0.00    +0.000 OA
ATOM      2  C   UNL     1       2.742   8.335  17.839  0.00  0.00    +0.000 C 
ATOM      3  C   UNL     1       2.136   9.739  17.976  0.00  0.00    +0.000 C 
ATOM      4  O   UNL     1       2.323  10.650  17.200  0.00  0.00    +0.000 OA
ATOM      5  N   UNL     1       1.379   9.705  19.144  0.00  0.00    +0.000 N 
ATOM      6  C   UNL     1       1.450   8.433  19.765  0.00  0.00    +0.000 A 
ATOM      7  C   UNL     1       0.887   7.911  20.925  0.00  0.00    +0.000 A 
ATOM      8 BR   UNL     1      -0.216   8.863  22.132  0.00  0.00    +0.000 Br
ATOM      9  C   UNL     1       1.148   6.568  21.263  0.00  0.00    +0.000 A 
ATOM     10  C   UNL     1       1.962   5.759  20.456  0.00  0.00    +0.000 A 
ATOM     11 BR   UNL     1       2.283   3.965  20.955  0.00  0.00    +0.000 Br
ATOM     12  C   UNL     1       2.538   6.263  19.299  0.00  0.00    +0.000 A 
ATOM     13  C   UNL     1       2.262   7.586  18.993  0.00  0.00    +0.000 A 
ENDROOT
BRANCH   5  14
ATOM     14  C   UNL     1       0.630  10.865  19.568  0.00  0.00    +0.000 C 
BRANCH  14  15
ATOM     15  C   UNL     1      -0.753  11.002  18.963  0.00  0.00    +0.000 A 
ATOM     16  C   UNL     1      -1.207  10.159  17.935  0.00  0.00    +0.000 A 
ATOM     17  C   UNL     1      -2.525  10.236  17.476  0.00  0.00    +0.000 A 
ATOM     18  C   UNL     1      -3.408  11.146  18.049  0.00  0.00    +0.000 A 
ATOM     19 CL   UNL     1      -5.041  11.209  17.511  0.00  0.00    +0.000 Cl
ATOM     20  C   UNL     1      -2.981  11.988  19.072  0.00  0.00    +0.000 A 
ATOM     21  C   UNL     1      -1.661  11.913  19.528  0.00  0.00    +0.000 A 
ENDBRANCH  14  15
ENDBRANCH   5  14
TORSDOF 2
ENDMDL
MODEL 5
REMARK VINA RESULT:      -5.9      5.704      9.075
REMARK  Name = 
REMARK  2 active torsions:
REMARK  status: ('A' for Active; 'I' for Inactive)
REMARK    1  A    between atoms: N_5  and  C_6
REMARK    2  A    between atoms: C_6  and  C_7
REMARK                            x       y       z     vdW  Elec       q    Type
REMARK                         _______ _______ _______ _____ _____    ______ ____
ROOT
ATOM      1  O   UNL     1      -0.860  13.475  22.433  0.00  0.00    +0.000 OA
ATOM      2  C   UNL     1      -0.853  12.842  21.403  0.00  0.00    +0.000 C 
ATOM      3  C   UNL     1       0.360  12.223  20.694  0.00  0.00    +0.000 C 
ATOM      4  O   UNL     1       1.503  12.301  21.089  0.00  0.00    +0.000 OA
ATOM      5  N   UNL     1      -0.148  11.604  19.556  0.00  0.00    +0.000 N 
ATOM      6  C   UNL     1      -1.553  11.773  19.464  0.00  0.00    +0.000 A 
ATOM      7  C   UNL     1      -2.499  11.356  18.534  0.00  0.00    +0.000 A 
ATOM      8 BR   UNL     1      -2.130  10.375  16.959  0.00  0.00    +0.000 Br
ATOM      9  C   UNL     1      -3.853  11.684  18.748  0.00  0.00    +0.000 A 
ATOM     10  C   UNL     1      -4.255  12.421  19.873  0.00  0.00    +0.000 A 
ATOM     11 BR   UNL     1      -6.083  12.836  20.112  0.00  0.00    +0.000 Br
ATOM     12  C   UNL     1      -3.325  12.851  20.808  0.00  0.00    +0.000 A 
ATOM     13  C   UNL     1      -2.003  12.512  20.570  0.00  0.00    +0.000 A 
ENDROOT
BRANCH   5  14
ATOM     14  C   UNL     1       0.725  10.882  18.661  0.00  0.00    +0.000 C 
BRANCH  14  15
ATOM     15  C   UNL     1       1.232   9.552  19.182  0.00  0.00    +0.000 A 
ATOM     16  C   UNL     1       0.887   9.064  20.453  0.00  0.00    +0.000 A 
ATOM     17  C   UNL     1       1.278   7.786  20.860  0.00  0.00    +0.000 A 
ATOM     18  C   UNL     1       2.006   6.973  19.995  0.00  0.00    +0.000 A 
ATOM     19 CL   UNL     1       2.451   5.384  20.482  0.00  0.00    +0.000 Cl
ATOM     20  C   UNL     1       2.356   7.434  18.729  0.00  0.00    +0.000 A 
ATOM     21  C   UNL     1       1.968   8.715  18.324  0.00  0.00    +0.000 A 
ENDBRANCH  14  15
ENDBRANCH   5  14
TORSDOF 2
ENDMDL
MODEL 6
REMARK VINA RESULT:      -5.9      6.334      9.728
REMARK  Name = 
REMARK  2 active torsions:
REMARK  status: ('A' for Active; 'I' for Inactive)
REMARK    1  A    between atoms: N_5  and  C_6
REMARK    2  A    between atoms: C_6  and  C_7
REMARK                            x       y       z     vdW  Elec       q    Type
REMARK                         _______ _______ _______ _____ _____    ______ ____
ROOT
ATOM      1  O   UNL     1      -4.955  11.200  16.888  0.00  0.00    +0.000 OA
ATOM      2  C   UNL     1      -4.058  11.474  17.650  0.00  0.00    +0.000 C 
ATOM      3  C   UNL     1      -2.548  11.382  17.388  0.00  0.00    +0.000 C 
ATOM      4  O   UNL     1      -2.050  11.002  16.351  0.00  0.00    +0.000 OA
ATOM      5  N   UNL     1      -1.938  11.803  18.566  0.00  0.00    +0.000 N 
ATOM      6  C   UNL     1      -2.902  12.143  19.549  0.00  0.00    +0.000 A 
ATOM      7  C   UNL     1      -2.799  12.603  20.858  0.00  0.00    +0.000 A 
ATOM      8 BR   UNL     1      -1.181  12.902  21.792  0.00  0.00    +0.000 Br
ATOM      9  C   UNL     1      -3.980  12.869  21.579  0.00  0.00    +0.000 A 
ATOM     10  C   UNL     1      -5.245  12.674  21.003  0.00  0.00    +0.000 A 
ATOM     11 BR   UNL     1      -6.799  13.043  22.014  0.00  0.00    +0.000 Br
ATOM     12  C   UNL     1      -5.368  12.210  19.702  0.00  0.00    +0.000 A 
ATOM     13  C   UNL     1      -4.189  11.959  19.019  0.00  0.00    +0.000 A 
ENDROOT
BRANCH   5  14
ATOM     14  C   UNL     1      -0.499  11.875  18.664  0.00  0.00    +0.000 C 
BRANCH  14  15
ATOM     15  C   UNL     1       0.202  10.552  18.900  0.00  0.00    +0.000 A 
ATOM     16  C   UNL     1       0.958   9.916  17.902  0.00  0.00    +0.000 A 
ATOM     17  C   UNL     1       1.685   8.756  18.184  0.00  0.00    +0.000 A 
ATOM     18  C   UNL     1       1.677   8.227  19.471  0.00  0.00    +0.000 A 
ATOM     19 CL   UNL     1       2.605   6.823  19.826  0.00  0.00    +0.000 Cl
ATOM     20  C   UNL     1       0.938   8.843  20.477  0.00  0.00    +0.000 A 
ATOM     21  C   UNL     1       0.208  10.001  20.193  0.00  0.00    +0.000 A 
ENDBRANCH  14  15
ENDBRANCH   5  14
TORSDOF 2
ENDMDL
MODEL 7
REMARK VINA RESULT:      -5.9      5.673      9.156
REMARK  Name = 
REMARK  2 active torsions:
REMARK  status: ('A' for Active; 'I' for Inactive)
REMARK    1  A    between atoms: N_5  and  C_6
REMARK    2  A    between atoms: C_6  and  C_7
REMARK                            x       y       z     vdW  Elec       q    Type
REMARK                         _______ _______ _______ _____ _____    ______ ____
ROOT
ATOM      1  O   UNL     1      -4.224  10.709  17.751  0.00  0.00    +0.000 OA
ATOM      2  C   UNL     1      -3.193  11.080  18.262  0.00  0.00    +0.000 C 
ATOM      3  C   UNL     1      -1.763  10.662  17.892  0.00  0.00    +0.000 C 
ATOM      4  O   UNL     1      -1.479   9.876  17.015  0.00  0.00    +0.000 OA
ATOM      5  N   UNL     1      -0.933  11.358  18.766  0.00  0.00    +0.000 N 
ATOM      6  C   UNL     1      -1.686  12.164  19.656  0.00  0.00    +0.000 A 
ATOM      7  C   UNL     1      -1.329  13.022  20.691  0.00  0.00    +0.000 A 
ATOM      8 BR   UNL     1       0.438  13.360  21.276  0.00  0.00    +0.000 Br
ATOM      9  C   UNL     1      -2.345  13.705  21.389  0.00  0.00    +0.000 A 
ATOM     10  C   UNL     1      -3.699  13.530  21.061  0.00  0.00    +0.000 A 
ATOM     11 BR   UNL     1      -5.023  14.467  22.030  0.00  0.00    +0.000 Br
ATOM     12  C   UNL     1      -4.075  12.674  20.036  0.00  0.00    +0.000 A 
ATOM     13  C   UNL     1      -3.053  12.019  19.368  0.00  0.00    +0.000 A 
ENDROOT
BRANCH   5  14
ATOM     14  C   UNL     1       0.503  11.228  18.677  0.00  0.00    +0.000 C 
BRANCH  14  15
ATOM     15  C   UNL     1       1.043   9.830  18.906  0.00  0.00    +0.000 A 
ATOM     16  C   UNL     1       1.737   9.123  17.910  0.00  0.00    +0.000 A 
ATOM     17  C   UNL     1       2.320   7.883  18.187  0.00  0.00    +0.000 A 
ATOM     18  C   UNL     1       2.229   7.343  19.467  0.00  0.00    +0.000 A 
ATOM     19 CL   UNL     1       2.983   5.836  19.816  0.00  0.00    +0.000 Cl
ATOM     20  C   UNL     1       1.549   8.028  20.470  0.00  0.00    +0.000 A 
ATOM     21  C   UNL     1       0.963   9.266  20.191  0.00  0.00    +0.000 A 
ENDBRANCH  14  15
ENDBRANCH   5  14
TORSDOF 2
ENDMDL
MODEL 8
REMARK VINA RESULT:      -5.9      6.068      9.569
REMARK  Name = 
REMARK  2 active torsions:
REMARK  status: ('A' for Active; 'I' for Inactive)
REMARK    1  A    between atoms: N_5  and  C_6
REMARK    2  A    between atoms: C_6  and  C_7
REMARK                            x       y       z     vdW  Elec       q    Type
REMARK                         _______ _______ _______ _____ _____    ______ ____
ROOT
ATOM      1  O   UNL     1      -1.348  13.650  23.062  0.00  0.00    +0.000 OA
ATOM      2  C   UNL     1      -1.278  13.171  21.954  0.00  0.00    +0.000 C 
ATOM      3  C   UNL     1      -0.008  12.837  21.158  0.00  0.00    +0.000 C 
ATOM      4  O   UNL     1       1.122  13.025  21.553  0.00  0.00    +0.000 OA
ATOM      5  N   UNL     1      -0.452  12.312  19.949  0.00  0.00    +0.000 N 
ATOM      6  C   UNL     1      -1.869  12.287  19.890  0.00  0.00    +0.000 A 
ATOM      7  C   UNL     1      -2.771  11.868  18.917  0.00  0.00    +0.000 A 
ATOM      8 BR   UNL     1      -2.308  11.174  17.219  0.00  0.00    +0.000 Br
ATOM      9  C   UNL     1      -4.151  11.963  19.184  0.00  0.00    +0.000 A 
ATOM     10  C   UNL     1      -4.624  12.474  20.403  0.00  0.00    +0.000 A 
ATOM     11 BR   UNL     1      -6.486  12.583  20.709  0.00  0.00    +0.000 Br
ATOM     12  C   UNL     1      -3.741  12.902  21.382  0.00  0.00    +0.000 A 
ATOM     13  C   UNL     1      -2.391  12.795  21.091  0.00  0.00    +0.000 A 
ENDROOT
BRANCH   5  14
ATOM     14  C   UNL     1       0.490  11.852  18.956  0.00  0.00    +0.000 C 
BRANCH  14  15
ATOM     15  C   UNL     1       0.935  10.411  19.101  0.00  0.00    +0.000 A 
ATOM     16  C   UNL     1       1.625   9.733  18.082  0.00  0.00    +0.000 A 
ATOM     17  C   UNL     1       2.121   8.443  18.289  0.00  0.00    +0.000 A 
ATOM     18  C   UNL     1       1.944   7.819  19.521  0.00  0.00    +0.000 A 
ATOM     19 CL   UNL     1       2.590   6.247  19.786  0.00  0.00    +0.000 Cl
ATOM     20  C   UNL     1       1.266   8.473  20.546  0.00  0.00    +0.000 A 
ATOM     21  C   UNL     1       0.767   9.763  20.337  0.00  0.00    +0.000 A 
ENDBRANCH  14  15
ENDBRANCH   5  14
TORSDOF 2
ENDMDL
MODEL 9
REMARK VINA RESULT:      -5.8      5.796      9.203
REMARK  Name = 
REMARK  2 active torsions:
REMARK  status: ('A' for Active; 'I' for Inactive)
REMARK    1  A    between atoms: N_5  and  C_6
REMARK    2  A    between atoms: C_6  and  C_7
REMARK                            x       y       z     vdW  Elec       q    Type
REMARK                         _______ _______ _______ _____ _____    ______ ____
ROOT
ATOM      1  O   UNL     1      -4.403  10.746  17.559  0.00  0.00    +0.000 OA
ATOM      2  C   UNL     1      -3.391  11.141  18.089  0.00  0.00    +0.000 C 
ATOM      3  C   UNL     1      -1.943  10.852  17.669  0.00  0.00    +0.000 C 
ATOM      4  O   UNL     1      -1.623  10.163  16.726  0.00  0.00    +0.000 OA
ATOM      5  N   UNL     1      -1.146  11.525  18.590  0.00  0.00    +0.000 N 
ATOM      6  C   UNL     1      -1.936  12.201  19.554  0.00  0.00    +0.000 A 
ATOM      7  C   UNL     1      -1.618  12.991  20.655  0.00  0.00    +0.000 A 
ATOM      8 BR   UNL     1       0.132  13.395  21.246  0.00  0.00    +0.000 Br
ATOM      9  C   UNL     1      -2.666  13.543  21.419  0.00  0.00    +0.000 A 
ATOM     10  C   UNL     1      -4.010  13.306  21.092  0.00  0.00    +0.000 A 
ATOM     11 BR   UNL     1      -5.377  14.068  22.151  0.00  0.00    +0.000 Br
ATOM     12  C   UNL     1      -4.346  12.517  20.002  0.00  0.00    +0.000 A 
ATOM     13  C   UNL     1      -3.295  11.990  19.270  0.00  0.00    +0.000 A 
ENDROOT
BRANCH   5  14
ATOM     14  C   UNL     1       0.294  11.499  18.475  0.00  0.00    +0.000 C 
BRANCH  14  15
ATOM     15  C   UNL     1       0.955  10.202  18.899  0.00  0.00    +0.000 A 
ATOM     16  C   UNL     1       0.774   9.654  20.179  0.00  0.00    +0.000 A 
ATOM     17  C   UNL     1       1.304   8.402  20.503  0.00  0.00    +0.000 A 
ATOM     18  C   UNL     1       2.009   7.677  19.546  0.00  0.00    +0.000 A 
ATOM     19 CL   UNL     1       2.626   6.118  19.934  0.00  0.00    +0.000 Cl
ATOM     20  C   UNL     1       2.198   8.200  18.270  0.00  0.00    +0.000 A 
ATOM     21  C   UNL     1       1.670   9.454  17.948  0.00  0.00    +0.000 A 
ENDBRANCH  14  15
ENDBRANCH   5  14
TORSDOF 2
ENDMDL
