MODEL 1
REMARK VINA RESULT:      -6.9      0.000      0.000
REMARK  Name = 
REMARK  3 active torsions:
REMARK  status: ('A' for Active; 'I' for Inactive)
REMARK    1  A    between atoms: N_1  and  C_2
REMARK    2  A    between atoms: C_7  and  C_8
REMARK    3  A    between atoms: C_9  and  C_10
REMARK                            x       y       z     vdW  Elec       q    Type
REMARK                         _______ _______ _______ _____ _____    ______ ____
ROOT
ATOM      1  C   UNL     1       3.575   2.654  20.102  0.00  0.00    +0.000 A 
ATOM      2  C   UNL     1       2.693   2.512  21.183  0.00  0.00    +0.000 A 
ATOM      3  C   UNL     1       1.445   3.140  21.184  0.00  0.00    +0.000 A 
ATOM      4  C   UNL     1       1.084   3.967  20.125  0.00  0.00    +0.000 A 
ATOM      5  C   UNL     1       1.973   4.171  19.069  0.00  0.00    +0.000 A 
ATOM      6  C   UNL     1       3.219   3.528  19.053  0.00  0.00    +0.000 A 
ENDROOT
BRANCH   1   7
ATOM      7  N   UNL     1       4.863   2.098  20.208  0.00  0.00    +0.000 N 
ATOM      8  H   UNL     1       5.166   1.608  19.373  0.00  0.00    +0.000 HD
ATOM      9  H   UNL     1       5.560   2.760  20.540  0.00  0.00    +0.000 HD
ENDBRANCH   1   7
BRANCH   6  10
ATOM     10  C   UNL     1       4.085   3.736  17.925  0.00  0.00    +0.000 C 
ATOM     11  C   UNL     1       4.823   3.962  17.002  0.00  0.00    +0.000 C 
BRANCH  11  12
ATOM     12  C   UNL     1       5.727   4.275  15.941  0.00  0.00    +0.000 A 
ATOM     13  C   UNL     1       6.798   5.141  16.119  0.00  0.00    +0.000 A 
ATOM     14  N   UNL     1       7.626   5.495  15.104  0.00  0.00    +0.000 NA
ATOM     15  C   UNL     1       7.336   4.939  13.906  0.00  0.00    +0.000 A 
ATOM     16  C   UNL     1       6.274   4.065  13.732  0.00  0.00    +0.000 A 
ATOM     17  N   UNL     1       5.443   3.714  14.743  0.00  0.00    +0.000 NA
ENDBRANCH  11  12
ENDBRANCH   6  10
TORSDOF 3
ENDMDL
MODEL 2
REMARK VINA RESULT:      -6.7      1.363      1.443
REMARK  Name = 
REMARK  3 active torsions:
REMARK  status: ('A' for Active; 'I' for Inactive)
REMARK    1  A    between atoms: N_1  and  C_2
REMARK    2  A    between atoms: C_7  and  C_8
REMARK    3  A    between atoms: C_9  and  C_10
REMARK                            x       y       z     vdW  Elec       q    Type
REMARK                         _______ _______ _______ _____ _____    ______ ____
ROOT
ATOM      1  C   UNL     1       2.803   4.582  19.690  0.00  0.00    +0.000 A 
ATOM      2  C   UNL     1       1.814   4.300  20.645  0.00  0.00    +0.000 A 
ATOM      3  C   UNL     1       0.856   3.309  20.420  0.00  0.00    +0.000 A 
ATOM      4  C   UNL     1       0.838   2.623  19.210  0.00  0.00    +0.000 A 
ATOM      5  C   UNL     1       1.774   2.932  18.223  0.00  0.00    +0.000 A 
ATOM      6  C   UNL     1       2.751   3.912  18.450  0.00  0.00    +0.000 A 
ENDROOT
BRANCH   1   7
ATOM      7  N   UNL     1       3.667   5.668  19.918  0.00  0.00    +0.000 N 
ATOM      8  H   UNL     1       3.941   6.157  19.072  0.00  0.00    +0.000 HD
ATOM      9  H   UNL     1       3.332   6.304  20.639  0.00  0.00    +0.000 HD
ENDBRANCH   1   7
BRANCH   6  10
ATOM     10  C   UNL     1       3.719   4.168  17.419  0.00  0.00    +0.000 C 
ATOM     11  C   UNL     1       4.565   4.347  16.582  0.00  0.00    +0.000 C 
BRANCH  11  12
ATOM     12  C   UNL     1       5.598   4.506  15.609  0.00  0.00    +0.000 A 
ATOM     13  C   UNL     1       6.728   5.275  15.854  0.00  0.00    +0.000 A 
ATOM     14  N   UNL     1       7.686   5.484  14.917  0.00  0.00    +0.000 NA
ATOM     15  C   UNL     1       7.464   4.885  13.725  0.00  0.00    +0.000 A 
ATOM     16  C   UNL     1       6.342   4.106  13.484  0.00  0.00    +0.000 A 
ATOM     17  N   UNL     1       5.382   3.900  14.418  0.00  0.00    +0.000 NA
ENDBRANCH  11  12
ENDBRANCH   6  10
TORSDOF 3
ENDMDL
MODEL 3
REMARK VINA RESULT:      -6.7      6.181      8.575
REMARK  Name = 
REMARK  3 active torsions:
REMARK  status: ('A' for Active; 'I' for Inactive)
REMARK    1  A    between atoms: N_1  and  C_2
REMARK    2  A    between atoms: C_7  and  C_8
REMARK    3  A    between atoms: C_9  and  C_10
REMARK                            x       y       z     vdW  Elec       q    Type
REMARK                         _______ _______ _______ _____ _____    ______ ____
ROOT
ATOM      1  C   UNL     1       9.495  11.329  20.280  0.00  0.00    +0.000 A 
ATOM      2  C   UNL     1      10.080  12.592  20.452  0.00  0.00    +0.000 A 
ATOM      3  C   UNL     1      10.511  13.343  19.357  0.00  0.00    +0.000 A 
ATOM      4  C   UNL     1      10.418  12.815  18.073  0.00  0.00    +0.000 A 
ATOM      5  C   UNL     1       9.896  11.534  17.886  0.00  0.00    +0.000 A 
ATOM      6  C   UNL     1       9.442  10.783  18.981  0.00  0.00    +0.000 A 
ENDROOT
BRANCH   1   7
ATOM      7  N   UNL     1       9.188  10.569  21.424  0.00  0.00    +0.000 N 
ATOM      8  H   UNL     1       8.381  10.910  21.936  0.00  0.00    +0.000 HD
ATOM      9  H   UNL     1       9.132   9.570  21.239  0.00  0.00    +0.000 HD
ENDBRANCH   1   7
BRANCH   6  10
ATOM     10  C   UNL     1       8.877   9.485  18.735  0.00  0.00    +0.000 C 
ATOM     11  C   UNL     1       8.413   8.406  18.474  0.00  0.00    +0.000 C 
BRANCH  11  12
ATOM     12  C   UNL     1       7.893   7.127  18.108  0.00  0.00    +0.000 A 
ATOM     13  C   UNL     1       7.822   6.075  19.012  0.00  0.00    +0.000 A 
ATOM     14  N   UNL     1       7.388   4.839  18.661  0.00  0.00    +0.000 NA
ATOM     15  C   UNL     1       7.025   4.704  17.365  0.00  0.00    +0.000 A 
ATOM     16  C   UNL     1       7.083   5.758  16.466  0.00  0.00    +0.000 A 
ATOM     17  N   UNL     1       7.521   6.992  16.814  0.00  0.00    +0.000 NA
ENDBRANCH  11  12
ENDBRANCH   6  10
TORSDOF 3
ENDMDL
MODEL 4
REMARK VINA RESULT:      -6.6      1.209      1.249
REMARK  Name = 
REMARK  3 active torsions:
REMARK  status: ('A' for Active; 'I' for Inactive)
REMARK    1  A    between atoms: N_1  and  C_2
REMARK    2  A    between atoms: C_7  and  C_8
REMARK    3  A    between atoms: C_9  and  C_10
REMARK                            x       y       z     vdW  Elec       q    Type
REMARK                         _______ _______ _______ _____ _____    ______ ____
ROOT
ATOM      1  C   UNL     1       2.210   2.781  18.776  0.00  0.00    +0.000 A 
ATOM      2  C   UNL     1       1.313   2.579  19.836  0.00  0.00    +0.000 A 
ATOM      3  C   UNL     1       1.096   3.570  20.795  0.00  0.00    +0.000 A 
ATOM      4  C   UNL     1       1.819   4.758  20.742  0.00  0.00    +0.000 A 
ATOM      5  C   UNL     1       2.761   4.952  19.731  0.00  0.00    +0.000 A 
ATOM      6  C   UNL     1       2.969   3.969  18.753  0.00  0.00    +0.000 A 
ENDROOT
BRANCH   1   7
ATOM      7  N   UNL     1       2.476   1.706  17.907  0.00  0.00    +0.000 N 
ATOM      8  H   UNL     1       2.938   1.981  17.047  0.00  0.00    +0.000 HD
ATOM      9  H   UNL     1       2.944   0.928  18.364  0.00  0.00    +0.000 HD
ENDBRANCH   1   7
BRANCH   6  10
ATOM     10  C   UNL     1       3.921   4.231  17.709  0.00  0.00    +0.000 C 
ATOM     11  C   UNL     1       4.727   4.394  16.830  0.00  0.00    +0.000 C 
BRANCH  11  12
ATOM     12  C   UNL     1       5.679   4.526  15.773  0.00  0.00    +0.000 A 
ATOM     13  C   UNL     1       6.817   5.310  15.902  0.00  0.00    +0.000 A 
ATOM     14  N   UNL     1       7.696   5.493  14.884  0.00  0.00    +0.000 NA
ATOM     15  C   UNL     1       7.385   4.852  13.735  0.00  0.00    +0.000 A 
ATOM     16  C   UNL     1       6.255   4.058  13.611  0.00  0.00    +0.000 A 
ATOM     17  N   UNL     1       5.374   3.878  14.625  0.00  0.00    +0.000 NA
ENDBRANCH  11  12
ENDBRANCH   6  10
TORSDOF 3
ENDMDL
MODEL 5
REMARK VINA RESULT:      -6.5      1.282      1.769
REMARK  Name = 
REMARK  3 active torsions:
REMARK  status: ('A' for Active; 'I' for Inactive)
REMARK    1  A    between atoms: N_1  and  C_2
REMARK    2  A    between atoms: C_7  and  C_8
REMARK    3  A    between atoms: C_9  and  C_10
REMARK                            x       y       z     vdW  Elec       q    Type
REMARK                         _______ _______ _______ _____ _____    ______ ____
ROOT
ATOM      1  C   UNL     1       1.771   3.769  19.017  0.00  0.00    +0.000 A 
ATOM      2  C   UNL     1       0.873   3.443  20.044  0.00  0.00    +0.000 A 
ATOM      3  C   UNL     1       1.324   2.916  21.256  0.00  0.00    +0.000 A 
ATOM      4  C   UNL     1       2.677   2.651  21.437  0.00  0.00    +0.000 A 
ATOM      5  C   UNL     1       3.579   2.909  20.404  0.00  0.00    +0.000 A 
ATOM      6  C   UNL     1       3.135   3.458  19.192  0.00  0.00    +0.000 A 
ENDROOT
BRANCH   1   7
ATOM      7  N   UNL     1       1.251   4.185  17.777  0.00  0.00    +0.000 N 
ATOM      8  H   UNL     1       1.610   3.660  16.987  0.00  0.00    +0.000 HD
ATOM      9  H   UNL     1       0.236   4.248  17.768  0.00  0.00    +0.000 HD
ENDBRANCH   1   7
BRANCH   6  10
ATOM     10  C   UNL     1       4.106   3.744  18.172  0.00  0.00    +0.000 C 
ATOM     11  C   UNL     1       4.877   3.990  17.280  0.00  0.00    +0.000 C 
BRANCH  11  12
ATOM     12  C   UNL     1       5.743   4.305  16.189  0.00  0.00    +0.000 A 
ATOM     13  C   UNL     1       6.796   5.199  16.321  0.00  0.00    +0.000 A 
ATOM     14  N   UNL     1       7.588   5.554  15.278  0.00  0.00    +0.000 NA
ATOM     15  C   UNL     1       7.278   4.970  14.098  0.00  0.00    +0.000 A 
ATOM     16  C   UNL     1       6.234   4.068  13.969  0.00  0.00    +0.000 A 
ATOM     17  N   UNL     1       5.440   3.715  15.009  0.00  0.00    +0.000 NA
ENDBRANCH  11  12
ENDBRANCH   6  10
TORSDOF 3
ENDMDL
MODEL 6
REMARK VINA RESULT:      -6.5      6.048      8.760
REMARK  Name = 
REMARK  3 active torsions:
REMARK  status: ('A' for Active; 'I' for Inactive)
REMARK    1  A    between atoms: N_1  and  C_2
REMARK    2  A    between atoms: C_7  and  C_8
REMARK    3  A    between atoms: C_9  and  C_10
REMARK                            x       y       z     vdW  Elec       q    Type
REMARK                         _______ _______ _______ _____ _____    ______ ____
ROOT
ATOM      1  C   UNL     1       8.908  12.129  17.973  0.00  0.00    +0.000 A 
ATOM      2  C   UNL     1       9.515  13.340  18.336  0.00  0.00    +0.000 A 
ATOM      3  C   UNL     1      10.557  13.375  19.265  0.00  0.00    +0.000 A 
ATOM      4  C   UNL     1      10.969  12.202  19.890  0.00  0.00    +0.000 A 
ATOM      5  C   UNL     1      10.335  10.995  19.589  0.00  0.00    +0.000 A 
ATOM      6  C   UNL     1       9.302  10.951  18.642  0.00  0.00    +0.000 A 
ENDROOT
BRANCH   1   7
ATOM      7  N   UNL     1       7.786  12.167  17.124  0.00  0.00    +0.000 N 
ATOM      8  H   UNL     1       7.487  11.253  16.801  0.00  0.00    +0.000 HD
ATOM      9  H   UNL     1       7.015  12.712  17.501  0.00  0.00    +0.000 HD
ENDBRANCH   1   7
BRANCH   6  10
ATOM     10  C   UNL     1       8.706   9.680  18.336  0.00  0.00    +0.000 C 
ATOM     11  C   UNL     1       8.250   8.590  18.106  0.00  0.00    +0.000 C 
BRANCH  11  12
ATOM     12  C   UNL     1       7.747   7.273  17.878  0.00  0.00    +0.000 A 
ATOM     13  C   UNL     1       7.873   6.264  18.823  0.00  0.00    +0.000 A 
ATOM     14  N   UNL     1       7.455   4.993  18.595  0.00  0.00    +0.000 NA
ATOM     15  C   UNL     1       6.901   4.781  17.379  0.00  0.00    +0.000 A 
ATOM     16  C   UNL     1       6.764   5.792  16.441  0.00  0.00    +0.000 A 
ATOM     17  N   UNL     1       7.185   7.060  16.665  0.00  0.00    +0.000 NA
ENDBRANCH  11  12
ENDBRANCH   6  10
TORSDOF 3
ENDMDL
MODEL 7
REMARK VINA RESULT:      -6.5      1.129      1.441
REMARK  Name = 
REMARK  3 active torsions:
REMARK  status: ('A' for Active; 'I' for Inactive)
REMARK    1  A    between atoms: N_1  and  C_2
REMARK    2  A    between atoms: C_7  and  C_8
REMARK    3  A    between atoms: C_9  and  C_10
REMARK                            x       y       z     vdW  Elec       q    Type
REMARK                         _______ _______ _______ _____ _____    ______ ____
ROOT
ATOM      1  C   UNL     1       4.056   3.321  18.953  0.00  0.00    +0.000 A 
ATOM      2  C   UNL     1       3.178   3.156  20.034  0.00  0.00    +0.000 A 
ATOM      3  C   UNL     1       1.797   3.281  19.867  0.00  0.00    +0.000 A 
ATOM      4  C   UNL     1       1.277   3.630  18.625  0.00  0.00    +0.000 A 
ATOM      5  C   UNL     1       2.138   3.860  17.551  0.00  0.00    +0.000 A 
ATOM      6  C   UNL     1       3.525   3.716  17.708  0.00  0.00    +0.000 A 
ENDROOT
BRANCH   1   7
ATOM      7  N   UNL     1       5.441   3.301  19.203  0.00  0.00    +0.000 N 
ATOM      8  H   UNL     1       5.919   2.506  18.792  0.00  0.00    +0.000 HD
ATOM      9  H   UNL     1       5.901   4.182  18.985  0.00  0.00    +0.000 HD
ENDBRANCH   1   7
BRANCH   6  10
ATOM     10  C   UNL     1       4.370   3.924  16.564  0.00  0.00    +0.000 C 
ATOM     11  C   UNL     1       5.117   4.117  15.640  0.00  0.00    +0.000 C 
BRANCH  11  12
ATOM     12  C   UNL     1       6.052   4.350  14.586  0.00  0.00    +0.000 A 
ATOM     13  C   UNL     1       7.106   5.244  14.722  0.00  0.00    +0.000 A 
ATOM     14  N   UNL     1       7.964   5.520  13.708  0.00  0.00    +0.000 NA
ATOM     15  C   UNL     1       7.721   4.858  12.554  0.00  0.00    +0.000 A 
ATOM     16  C   UNL     1       6.676   3.956  12.423  0.00  0.00    +0.000 A 
ATOM     17  N   UNL     1       5.816   3.682  13.433  0.00  0.00    +0.000 NA
ENDBRANCH  11  12
ENDBRANCH   6  10
TORSDOF 3
ENDMDL
MODEL 8
REMARK VINA RESULT:      -6.4      1.549      6.756
REMARK  Name = 
REMARK  3 active torsions:
REMARK  status: ('A' for Active; 'I' for Inactive)
REMARK    1  A    between atoms: N_1  and  C_2
REMARK    2  A    between atoms: C_7  and  C_8
REMARK    3  A    between atoms: C_9  and  C_10
REMARK                            x       y       z     vdW  Elec       q    Type
REMARK                         _______ _______ _______ _____ _____    ______ ____
ROOT
ATOM      1  C   UNL     1       7.014   5.072  14.487  0.00  0.00    +0.000 A 
ATOM      2  C   UNL     1       7.791   5.148  13.322  0.00  0.00    +0.000 A 
ATOM      3  C   UNL     1       7.418   4.470  12.160  0.00  0.00    +0.000 A 
ATOM      4  C   UNL     1       6.289   3.657  12.163  0.00  0.00    +0.000 A 
ATOM      5  C   UNL     1       5.537   3.519  13.330  0.00  0.00    +0.000 A 
ATOM      6  C   UNL     1       5.895   4.213  14.495  0.00  0.00    +0.000 A 
ENDROOT
BRANCH   1   7
ATOM      7  N   UNL     1       7.500   5.679  15.660  0.00  0.00    +0.000 N 
ATOM      8  H   UNL     1       6.821   6.274  16.123  0.00  0.00    +0.000 HD
ATOM      9  H   UNL     1       7.935   5.020  16.301  0.00  0.00    +0.000 HD
ENDBRANCH   1   7
BRANCH   6  10
ATOM     10  C   UNL     1       5.068   4.071  15.661  0.00  0.00    +0.000 C 
ATOM     11  C   UNL     1       4.343   3.914  16.609  0.00  0.00    +0.000 C 
BRANCH  11  12
ATOM     12  C   UNL     1       3.462   3.674  17.707  0.00  0.00    +0.000 A 
ATOM     13  C   UNL     1       3.903   3.703  19.023  0.00  0.00    +0.000 A 
ATOM     14  N   UNL     1       3.090   3.416  20.072  0.00  0.00    +0.000 NA
ATOM     15  C   UNL     1       1.816   3.104  19.742  0.00  0.00    +0.000 A 
ATOM     16  C   UNL     1       1.373   3.088  18.428  0.00  0.00    +0.000 A 
ATOM     17  N   UNL     1       2.184   3.370  17.380  0.00  0.00    +0.000 NA
ENDBRANCH  11  12
ENDBRANCH   6  10
TORSDOF 3
ENDMDL
MODEL 9
REMARK VINA RESULT:      -6.3      6.277      8.758
REMARK  Name = 
REMARK  3 active torsions:
REMARK  status: ('A' for Active; 'I' for Inactive)
REMARK    1  A    between atoms: N_1  and  C_2
REMARK    2  A    between atoms: C_7  and  C_8
REMARK    3  A    between atoms: C_9  and  C_10
REMARK                            x       y       z     vdW  Elec       q    Type
REMARK                         _______ _______ _______ _____ _____    ______ ____
ROOT
ATOM      1  C   UNL     1      10.561  11.517  18.705  0.00  0.00    +0.000 A 
ATOM      2  C   UNL     1      11.055  12.709  19.256  0.00  0.00    +0.000 A 
ATOM      3  C   UNL     1      10.703  13.107  20.548  0.00  0.00    +0.000 A 
ATOM      4  C   UNL     1       9.803  12.346  21.287  0.00  0.00    +0.000 A 
ATOM      5  C   UNL     1       9.252  11.190  20.733  0.00  0.00    +0.000 A 
ATOM      6  C   UNL     1       9.617  10.774  19.444  0.00  0.00    +0.000 A 
ENDROOT
BRANCH   1   7
ATOM      7  N   UNL     1      10.854  11.227  17.360  0.00  0.00    +0.000 N 
ATOM      8  H   UNL     1      10.407  11.855  16.700  0.00  0.00    +0.000 HD
ATOM      9  H   UNL     1      11.849  11.124  17.179  0.00  0.00    +0.000 HD
ENDBRANCH   1   7
BRANCH   6  10
ATOM     10  C   UNL     1       9.054   9.556  18.931  0.00  0.00    +0.000 C 
ATOM     11  C   UNL     1       8.566   8.522  18.553  0.00  0.00    +0.000 C 
BRANCH  11  12
ATOM     12  C   UNL     1       7.955   7.293  18.160  0.00  0.00    +0.000 A 
ATOM     13  C   UNL     1       7.972   6.169  18.975  0.00  0.00    +0.000 A 
ATOM     14  N   UNL     1       7.450   4.978  18.588  0.00  0.00    +0.000 NA
ATOM     15  C   UNL     1       6.906   4.965  17.349  0.00  0.00    +0.000 A 
ATOM     16  C   UNL     1       6.878   6.091  16.541  0.00  0.00    +0.000 A 
ATOM     17  N   UNL     1       7.403   7.280  16.924  0.00  0.00    +0.000 NA
ENDBRANCH  11  12
ENDBRANCH   6  10
TORSDOF 3
ENDMDL
