MODEL 1
REMARK VINA RESULT:      -6.9      0.000      0.000
REMARK  Name = 
REMARK  6 active torsions:
REMARK  status: ('A' for Active; 'I' for Inactive)
REMARK    1  A    between atoms: C_1  and  C_2
REMARK    2  A    between atoms: C_2  and  O_3
REMARK    3  A    between atoms: C_2  and  C_4
REMARK    4  A    between atoms: C_2  and  C_9
REMARK    5  A    between atoms: C_4  and  S_5
REMARK    6  A    between atoms: S_5  and  C_6
REMARK                            x       y       z     vdW  Elec       q    Type
REMARK                         _______ _______ _______ _____ _____    ______ ____
ROOT
ATOM      1  C   UNL     1       3.932   5.808  18.695  0.00  0.00    +0.000 A 
ATOM      2  N   UNL     1       3.564   6.741  17.846  0.00  0.00    +0.000 NA
ATOM      3  C   UNL     1       2.657   7.532  18.510  0.00  0.00    +0.000 A 
ATOM      4  C   UNL     1       1.980   8.676  18.081  0.00  0.00    +0.000 A 
ATOM      5  C   UNL     1       1.125   9.331  18.975  0.00  0.00    +0.000 A 
ATOM      6 CL   UNL     1       0.326  10.755  18.400  0.00  0.00    +0.000 Cl
ATOM      7  C   UNL     1       0.938   8.847  20.276  0.00  0.00    +0.000 A 
ATOM      8 CL   UNL     1      -0.110   9.633  21.409  0.00  0.00    +0.000 Cl
ATOM      9  C   UNL     1       1.603   7.692  20.720  0.00  0.00    +0.000 A 
ATOM     10  C   UNL     1       2.448   7.072  19.806  0.00  0.00    +0.000 A 
ATOM     11  N   UNL     1       3.248   5.955  19.894  0.00  0.00    +0.000 N 
ATOM     12  H   UNL     1       3.335   5.379  20.714  0.00  0.00    +0.000 HD
ENDROOT
BRANCH   1  14
ATOM     13  C   UNL     1       4.627   3.466  19.253  0.00  0.00    +0.000 C 
ATOM     14  C   UNL     1       4.981   4.729  18.466  0.00  0.00    +0.000 C 
BRANCH  14  15
ATOM     15  O   UNL     1       6.202   5.258  19.018  0.00  0.00    +0.000 OA
ATOM     16  H   UNL     1       6.107   6.208  19.185  0.00  0.00    +0.000 HD
ENDBRANCH  14  15
BRANCH  14  17
ATOM     17  C   UNL     1       5.292   4.486  16.973  0.00  0.00    +0.000 C 
BRANCH  17  18
ATOM     18  S   UNL     1       6.854   5.139  16.430  0.00  0.00    +0.000 S 
ATOM     19  C   UNL     1       6.930   4.811  14.671  0.00  0.00    +0.000 C 
ATOM     20  O   UNL     1       6.820   6.590  16.574  0.00  0.00    +0.000 OA
ATOM     21  O   UNL     1       7.906   4.364  17.037  0.00  0.00    +0.000 OA
ENDBRANCH  17  18
ENDBRANCH  14  17
ENDBRANCH   1  14
TORSDOF 4
ENDMDL
MODEL 2
REMARK VINA RESULT:      -6.9      0.668      1.822
REMARK  Name = 
REMARK  6 active torsions:
REMARK  status: ('A' for Active; 'I' for Inactive)
REMARK    1  A    between atoms: C_1  and  C_2
REMARK    2  A    between atoms: C_2  and  O_3
REMARK    3  A    between atoms: C_2  and  C_4
REMARK    4  A    between atoms: C_2  and  C_9
REMARK    5  A    between atoms: C_4  and  S_5
REMARK    6  A    between atoms: S_5  and  C_6
REMARK                            x       y       z     vdW  Elec       q    Type
REMARK                         _______ _______ _______ _____ _____    ______ ____
ROOT
ATOM      1  C   UNL     1       4.024   5.251  18.389  0.00  0.00    +0.000 A 
ATOM      2  N   UNL     1       3.432   5.411  19.552  0.00  0.00    +0.000 NA
ATOM      3  C   UNL     1       2.757   6.606  19.481  0.00  0.00    +0.000 A 
ATOM      4  C   UNL     1       1.946   7.236  20.427  0.00  0.00    +0.000 A 
ATOM      5  C   UNL     1       1.333   8.449  20.092  0.00  0.00    +0.000 A 
ATOM      6 CL   UNL     1       0.321   9.178  21.292  0.00  0.00    +0.000 Cl
ATOM      7  C   UNL     1       1.535   9.033  18.834  0.00  0.00    +0.000 A 
ATOM      8 CL   UNL     1       0.792  10.532  18.386  0.00  0.00    +0.000 Cl
ATOM      9  C   UNL     1       2.357   8.418  17.876  0.00  0.00    +0.000 A 
ATOM     10  C   UNL     1       2.943   7.211  18.243  0.00  0.00    +0.000 A 
ATOM     11  N   UNL     1       3.778   6.346  17.572  0.00  0.00    +0.000 N 
ATOM     12  H   UNL     1       4.110   6.486  16.634  0.00  0.00    +0.000 HD
ENDROOT
BRANCH   1  14
ATOM     13  C   UNL     1       4.126   2.748  18.337  0.00  0.00    +0.000 C 
ATOM     14  C   UNL     1       4.835   4.044  17.937  0.00  0.00    +0.000 C 
BRANCH  14  15
ATOM     15  O   UNL     1       6.069   4.112  18.677  0.00  0.00    +0.000 OA
ATOM     16  H   UNL     1       6.567   4.903  18.419  0.00  0.00    +0.000 HD
ENDBRANCH  14  15
BRANCH  14  17
ATOM     17  C   UNL     1       5.256   4.111  16.454  0.00  0.00    +0.000 C 
BRANCH  17  18
ATOM     18  S   UNL     1       6.794   4.953  16.162  0.00  0.00    +0.000 S 
ATOM     19  C   UNL     1       7.019   4.947  14.385  0.00  0.00    +0.000 C 
ATOM     20  O   UNL     1       6.633   6.351  16.548  0.00  0.00    +0.000 OA
ATOM     21  O   UNL     1       7.860   4.156  16.713  0.00  0.00    +0.000 OA
ENDBRANCH  17  18
ENDBRANCH  14  17
ENDBRANCH   1  14
TORSDOF 4
ENDMDL
MODEL 3
REMARK VINA RESULT:      -6.6      4.152      4.677
REMARK  Name = 
REMARK  6 active torsions:
REMARK  status: ('A' for Active; 'I' for Inactive)
REMARK    1  A    between atoms: C_1  and  C_2
REMARK    2  A    between atoms: C_2  and  O_3
REMARK    3  A    between atoms: C_2  and  C_4
REMARK    4  A    between atoms: C_2  and  C_9
REMARK    5  A    between atoms: C_4  and  S_5
REMARK    6  A    between atoms: S_5  and  C_6
REMARK                            x       y       z     vdW  Elec       q    Type
REMARK                         _______ _______ _______ _____ _____    ______ ____
ROOT
ATOM      1  C   UNL     1       5.688   4.142  16.871  0.00  0.00    +0.000 A 
ATOM      2  N   UNL     1       4.443   3.993  16.477  0.00  0.00    +0.000 NA
ATOM      3  C   UNL     1       3.729   3.608  17.586  0.00  0.00    +0.000 A 
ATOM      4  C   UNL     1       2.365   3.344  17.730  0.00  0.00    +0.000 A 
ATOM      5  C   UNL     1       1.872   3.001  18.995  0.00  0.00    +0.000 A 
ATOM      6 CL   UNL     1       0.172   2.705  19.123  0.00  0.00    +0.000 Cl
ATOM      7  C   UNL     1       2.729   2.910  20.100  0.00  0.00    +0.000 A 
ATOM      8 CL   UNL     1       2.153   2.490  21.678  0.00  0.00    +0.000 Cl
ATOM      9  C   UNL     1       4.105   3.161  19.970  0.00  0.00    +0.000 A 
ATOM     10  C   UNL     1       4.556   3.505  18.700  0.00  0.00    +0.000 A 
ATOM     11  N   UNL     1       5.806   3.821  18.216  0.00  0.00    +0.000 N 
ATOM     12  H   UNL     1       6.643   3.846  18.771  0.00  0.00    +0.000 HD
ENDROOT
BRANCH   1  14
ATOM     13  C   UNL     1       6.760   4.078  14.607  0.00  0.00    +0.000 C 
ATOM     14  C   UNL     1       6.857   4.634  16.029  0.00  0.00    +0.000 C 
BRANCH  14  15
ATOM     15  O   UNL     1       8.033   4.068  16.639  0.00  0.00    +0.000 OA
ATOM     16  H   UNL     1       8.819   4.570  16.373  0.00  0.00    +0.000 HD
ENDBRANCH  14  15
BRANCH  14  17
ATOM     17  C   UNL     1       7.065   6.162  16.106  0.00  0.00    +0.000 C 
BRANCH  17  18
ATOM     18  S   UNL     1       7.013   6.830  17.752  0.00  0.00    +0.000 S 
ATOM     19  C   UNL     1       7.766   8.451  17.640  0.00  0.00    +0.000 C 
ATOM     20  O   UNL     1       5.618   7.052  18.114  0.00  0.00    +0.000 OA
ATOM     21  O   UNL     1       7.873   6.037  18.592  0.00  0.00    +0.000 OA
ENDBRANCH  17  18
ENDBRANCH  14  17
ENDBRANCH   1  14
TORSDOF 4
ENDMDL
MODEL 4
REMARK VINA RESULT:      -6.6      1.245      2.204
REMARK  Name = 
REMARK  6 active torsions:
REMARK  status: ('A' for Active; 'I' for Inactive)
REMARK    1  A    between atoms: C_1  and  C_2
REMARK    2  A    between atoms: C_2  and  O_3
REMARK    3  A    between atoms: C_2  and  C_4
REMARK    4  A    between atoms: C_2  and  C_9
REMARK    5  A    between atoms: C_4  and  S_5
REMARK    6  A    between atoms: S_5  and  C_6
REMARK                            x       y       z     vdW  Elec       q    Type
REMARK                         _______ _______ _______ _____ _____    ______ ____
ROOT
ATOM      1  C   UNL     1       3.810   4.986  18.609  0.00  0.00    +0.000 A 
ATOM      2  N   UNL     1       3.200   5.152  19.761  0.00  0.00    +0.000 NA
ATOM      3  C   UNL     1       2.612   6.393  19.713  0.00  0.00    +0.000 A 
ATOM      4  C   UNL     1       1.822   7.050  20.658  0.00  0.00    +0.000 A 
ATOM      5  C   UNL     1       1.303   8.313  20.347  0.00  0.00    +0.000 A 
ATOM      6 CL   UNL     1       0.314   9.075  21.544  0.00  0.00    +0.000 Cl
ATOM      7  C   UNL     1       1.579   8.918  19.113  0.00  0.00    +0.000 A 
ATOM      8 CL   UNL     1       0.953  10.478  18.694  0.00  0.00    +0.000 Cl
ATOM      9  C   UNL     1       2.381   8.276  18.156  0.00  0.00    +0.000 A 
ATOM     10  C   UNL     1       2.872   7.021  18.499  0.00  0.00    +0.000 A 
ATOM     11  N   UNL     1       3.662   6.119  17.821  0.00  0.00    +0.000 N 
ATOM     12  H   UNL     1       4.027   6.264  16.896  0.00  0.00    +0.000 HD
ENDROOT
BRANCH   1  14
ATOM     13  C   UNL     1       3.554   2.708  17.599  0.00  0.00    +0.000 C 
ATOM     14  C   UNL     1       4.547   3.739  18.139  0.00  0.00    +0.000 C 
BRANCH  14  15
ATOM     15  O   UNL     1       5.153   3.183  19.321  0.00  0.00    +0.000 OA
ATOM     16  H   UNL     1       5.648   3.868  19.794  0.00  0.00    +0.000 HD
ENDBRANCH  14  15
BRANCH  14  17
ATOM     17  C   UNL     1       5.728   4.047  17.193  0.00  0.00    +0.000 C 
BRANCH  17  18
ATOM     18  S   UNL     1       7.084   4.899  17.963  0.00  0.00    +0.000 S 
ATOM     19  C   UNL     1       7.257   6.440  17.067  0.00  0.00    +0.000 C 
ATOM     20  O   UNL     1       6.690   5.258  19.321  0.00  0.00    +0.000 OA
ATOM     21  O   UNL     1       8.289   4.148  17.722  0.00  0.00    +0.000 OA
ENDBRANCH  17  18
ENDBRANCH  14  17
ENDBRANCH   1  14
TORSDOF 4
ENDMDL
MODEL 5
REMARK VINA RESULT:      -6.4      0.916      1.107
REMARK  Name = 
REMARK  6 active torsions:
REMARK  status: ('A' for Active; 'I' for Inactive)
REMARK    1  A    between atoms: C_1  and  C_2
REMARK    2  A    between atoms: C_2  and  O_3
REMARK    3  A    between atoms: C_2  and  C_4
REMARK    4  A    between atoms: C_2  and  C_9
REMARK    5  A    between atoms: C_4  and  S_5
REMARK    6  A    between atoms: S_5  and  C_6
REMARK                            x       y       z     vdW  Elec       q    Type
REMARK                         _______ _______ _______ _____ _____    ______ ____
ROOT
ATOM      1  C   UNL     1       3.876   5.621  18.799  0.00  0.00    +0.000 A 
ATOM      2  N   UNL     1       3.560   6.559  17.934  0.00  0.00    +0.000 NA
ATOM      3  C   UNL     1       2.682   7.398  18.578  0.00  0.00    +0.000 A 
ATOM      4  C   UNL     1       2.062   8.565  18.127  0.00  0.00    +0.000 A 
ATOM      5  C   UNL     1       1.228   9.270  19.004  0.00  0.00    +0.000 A 
ATOM      6 CL   UNL     1       0.500  10.720  18.403  0.00  0.00    +0.000 Cl
ATOM      7  C   UNL     1       1.005   8.810  20.309  0.00  0.00    +0.000 A 
ATOM      8 CL   UNL     1      -0.019   9.657  21.420  0.00  0.00    +0.000 Cl
ATOM      9  C   UNL     1       1.612   7.632  20.774  0.00  0.00    +0.000 A 
ATOM     10  C   UNL     1       2.439   6.964  19.877  0.00  0.00    +0.000 A 
ATOM     11  N   UNL     1       3.187   5.813  19.988  0.00  0.00    +0.000 N 
ATOM     12  H   UNL     1       3.239   5.245  20.815  0.00  0.00    +0.000 HD
ENDROOT
BRANCH   1  14
ATOM     13  C   UNL     1       4.295   3.167  19.086  0.00  0.00    +0.000 C 
ATOM     14  C   UNL     1       4.879   4.493  18.594  0.00  0.00    +0.000 C 
BRANCH  14  15
ATOM     15  O   UNL     1       5.998   4.817  19.441  0.00  0.00    +0.000 OA
ATOM     16  H   UNL     1       6.828   4.681  18.960  0.00  0.00    +0.000 HD
ENDBRANCH  14  15
BRANCH  14  17
ATOM     17  C   UNL     1       5.461   4.445  17.166  0.00  0.00    +0.000 C 
BRANCH  17  18
ATOM     18  S   UNL     1       7.160   4.954  17.046  0.00  0.00    +0.000 S 
ATOM     19  C   UNL     1       7.161   6.717  17.363  0.00  0.00    +0.000 C 
ATOM     20  O   UNL     1       7.902   4.342  18.142  0.00  0.00    +0.000 OA
ATOM     21  O   UNL     1       7.590   4.784  15.681  0.00  0.00    +0.000 OA
ENDBRANCH  17  18
ENDBRANCH  14  17
ENDBRANCH   1  14
TORSDOF 4
ENDMDL
MODEL 6
REMARK VINA RESULT:      -6.3      1.266      1.471
REMARK  Name = 
REMARK  6 active torsions:
REMARK  status: ('A' for Active; 'I' for Inactive)
REMARK    1  A    between atoms: C_1  and  C_2
REMARK    2  A    between atoms: C_2  and  O_3
REMARK    3  A    between atoms: C_2  and  C_4
REMARK    4  A    between atoms: C_2  and  C_9
REMARK    5  A    between atoms: C_4  and  S_5
REMARK    6  A    between atoms: S_5  and  C_6
REMARK                            x       y       z     vdW  Elec       q    Type
REMARK                         _______ _______ _______ _____ _____    ______ ____
ROOT
ATOM      1  C   UNL     1       3.631   5.190  18.517  0.00  0.00    +0.000 A 
ATOM      2  N   UNL     1       3.370   6.207  17.726  0.00  0.00    +0.000 NA
ATOM      3  C   UNL     1       2.640   7.101  18.472  0.00  0.00    +0.000 A 
ATOM      4  C   UNL     1       2.132   8.355  18.127  0.00  0.00    +0.000 A 
ATOM      5  C   UNL     1       1.444   9.096  19.096  0.00  0.00    +0.000 A 
ATOM      6 CL   UNL     1       0.853  10.652  18.623  0.00  0.00    +0.000 Cl
ATOM      7  C   UNL     1       1.255   8.589  20.389  0.00  0.00    +0.000 A 
ATOM      8 CL   UNL     1       0.412   9.478  21.611  0.00  0.00    +0.000 Cl
ATOM      9  C   UNL     1       1.750   7.325  20.749  0.00  0.00    +0.000 A 
ATOM     10  C   UNL     1       2.433   6.621  19.762  0.00  0.00    +0.000 A 
ATOM     11  N   UNL     1       3.048   5.389  19.760  0.00  0.00    +0.000 N 
ATOM     12  H   UNL     1       3.087   4.771  20.552  0.00  0.00    +0.000 HD
ENDROOT
BRANCH   1  14
ATOM     13  C   UNL     1       3.620   2.886  17.533  0.00  0.00    +0.000 C 
ATOM     14  C   UNL     1       4.480   3.971  18.184  0.00  0.00    +0.000 C 
BRANCH  14  15
ATOM     15  O   UNL     1       4.936   3.463  19.453  0.00  0.00    +0.000 OA
ATOM     16  H   UNL     1       5.293   2.568  19.343  0.00  0.00    +0.000 HD
ENDBRANCH  14  15
BRANCH  14  17
ATOM     17  C   UNL     1       5.769   4.317  17.408  0.00  0.00    +0.000 C 
BRANCH  17  18
ATOM     18  S   UNL     1       6.987   5.198  18.358  0.00  0.00    +0.000 S 
ATOM     19  C   UNL     1       7.301   6.712  17.455  0.00  0.00    +0.000 C 
ATOM     20  O   UNL     1       6.382   5.596  19.625  0.00  0.00    +0.000 OA
ATOM     21  O   UNL     1       8.214   4.444  18.334  0.00  0.00    +0.000 OA
ENDBRANCH  17  18
ENDBRANCH  14  17
ENDBRANCH   1  14
TORSDOF 4
ENDMDL
MODEL 7
REMARK VINA RESULT:      -6.3      3.909      4.480
REMARK  Name = 
REMARK  6 active torsions:
REMARK  status: ('A' for Active; 'I' for Inactive)
REMARK    1  A    between atoms: C_1  and  C_2
REMARK    2  A    between atoms: C_2  and  O_3
REMARK    3  A    between atoms: C_2  and  C_4
REMARK    4  A    between atoms: C_2  and  C_9
REMARK    5  A    between atoms: C_4  and  S_5
REMARK    6  A    between atoms: S_5  and  C_6
REMARK                            x       y       z     vdW  Elec       q    Type
REMARK                         _______ _______ _______ _____ _____    ______ ____
ROOT
ATOM      1  C   UNL     1       5.609   5.113  18.059  0.00  0.00    +0.000 A 
ATOM      2  N   UNL     1       5.288   5.035  19.331  0.00  0.00    +0.000 NA
ATOM      3  C   UNL     1       4.092   4.361  19.387  0.00  0.00    +0.000 A 
ATOM      4  C   UNL     1       3.325   3.984  20.492  0.00  0.00    +0.000 A 
ATOM      5  C   UNL     1       2.146   3.259  20.281  0.00  0.00    +0.000 A 
ATOM      6 CL   UNL     1       1.243   2.799  21.684  0.00  0.00    +0.000 Cl
ATOM      7  C   UNL     1       1.731   2.924  18.985  0.00  0.00    +0.000 A 
ATOM      8 CL   UNL     1       0.280   2.027  18.688  0.00  0.00    +0.000 Cl
ATOM      9  C   UNL     1       2.485   3.304  17.863  0.00  0.00    +0.000 A 
ATOM     10  C   UNL     1       3.653   4.018  18.113  0.00  0.00    +0.000 A 
ATOM     11  N   UNL     1       4.620   4.532  17.278  0.00  0.00    +0.000 N 
ATOM     12  H   UNL     1       4.608   4.455  16.276  0.00  0.00    +0.000 HD
ENDROOT
BRANCH   1  14
ATOM     13  C   UNL     1       7.871   6.050  18.594  0.00  0.00    +0.000 C 
ATOM     14  C   UNL     1       6.887   5.702  17.475  0.00  0.00    +0.000 C 
BRANCH  14  15
ATOM     15  O   UNL     1       6.488   6.935  16.846  0.00  0.00    +0.000 OA
ATOM     16  H   UNL     1       6.403   7.634  17.511  0.00  0.00    +0.000 HD
ENDBRANCH  14  15
BRANCH  14  17
ATOM     17  C   UNL     1       7.488   4.850  16.337  0.00  0.00    +0.000 C 
BRANCH  17  18
ATOM     18  S   UNL     1       6.862   5.235  14.719  0.00  0.00    +0.000 S 
ATOM     19  C   UNL     1       6.262   3.685  14.051  0.00  0.00    +0.000 C 
ATOM     20  O   UNL     1       5.692   6.094  14.872  0.00  0.00    +0.000 OA
ATOM     21  O   UNL     1       7.967   5.639  13.888  0.00  0.00    +0.000 OA
ENDBRANCH  17  18
ENDBRANCH  14  17
ENDBRANCH   1  14
TORSDOF 4
ENDMDL
MODEL 8
REMARK VINA RESULT:      -6.3      1.890      2.266
REMARK  Name = 
REMARK  6 active torsions:
REMARK  status: ('A' for Active; 'I' for Inactive)
REMARK    1  A    between atoms: C_1  and  C_2
REMARK    2  A    between atoms: C_2  and  O_3
REMARK    3  A    between atoms: C_2  and  C_4
REMARK    4  A    between atoms: C_2  and  C_9
REMARK    5  A    between atoms: C_4  and  S_5
REMARK    6  A    between atoms: S_5  and  C_6
REMARK                            x       y       z     vdW  Elec       q    Type
REMARK                         _______ _______ _______ _____ _____    ______ ____
ROOT
ATOM      1  C   UNL     1       2.538   6.946  19.124  0.00  0.00    +0.000 A 
ATOM      2  N   UNL     1       2.304   7.894  18.244  0.00  0.00    +0.000 NA
ATOM      3  C   UNL     1       1.660   8.900  18.922  0.00  0.00    +0.000 A 
ATOM      4  C   UNL     1       1.211  10.144  18.471  0.00  0.00    +0.000 A 
ATOM      5  C   UNL     1       0.609  11.018  19.383  0.00  0.00    +0.000 A 
ATOM      6 CL   UNL     1       0.090  12.554  18.778  0.00  0.00    +0.000 Cl
ATOM      7  C   UNL     1       0.444  10.653  20.726  0.00  0.00    +0.000 A 
ATOM      8 CL   UNL     1      -0.294  11.710  21.882  0.00  0.00    +0.000 Cl
ATOM      9  C   UNL     1       0.879   9.403  21.194  0.00  0.00    +0.000 A 
ATOM     10  C   UNL     1       1.479   8.564  20.260  0.00  0.00    +0.000 A 
ATOM     11  N   UNL     1       2.020   7.302  20.361  0.00  0.00    +0.000 N 
ATOM     12  H   UNL     1       2.055   6.764  21.209  0.00  0.00    +0.000 HD
ENDROOT
BRANCH   1  14
ATOM     13  C   UNL     1       2.394   4.616  18.213  0.00  0.00    +0.000 C 
ATOM     14  C   UNL     1       3.300   5.649  18.886  0.00  0.00    +0.000 C 
BRANCH  14  15
ATOM     15  O   UNL     1       3.630   5.152  20.197  0.00  0.00    +0.000 OA
ATOM     16  H   UNL     1       4.275   4.432  20.126  0.00  0.00    +0.000 HD
ENDBRANCH  14  15
BRANCH  14  17
ATOM     17  C   UNL     1       4.660   5.859  18.186  0.00  0.00    +0.000 C 
BRANCH  17  18
ATOM     18  S   UNL     1       5.958   4.792  18.765  0.00  0.00    +0.000 S 
ATOM     19  C   UNL     1       7.106   4.642  17.399  0.00  0.00    +0.000 C 
ATOM     20  O   UNL     1       6.679   5.480  19.830  0.00  0.00    +0.000 OA
ATOM     21  O   UNL     1       5.405   3.479  18.981  0.00  0.00    +0.000 OA
ENDBRANCH  17  18
ENDBRANCH  14  17
ENDBRANCH   1  14
TORSDOF 4
ENDMDL
MODEL 9
REMARK VINA RESULT:      -6.2      1.369      2.335
REMARK  Name = 
REMARK  6 active torsions:
REMARK  status: ('A' for Active; 'I' for Inactive)
REMARK    1  A    between atoms: C_1  and  C_2
REMARK    2  A    between atoms: C_2  and  O_3
REMARK    3  A    between atoms: C_2  and  C_4
REMARK    4  A    between atoms: C_2  and  C_9
REMARK    5  A    between atoms: C_4  and  S_5
REMARK    6  A    between atoms: S_5  and  C_6
REMARK                            x       y       z     vdW  Elec       q    Type
REMARK                         _______ _______ _______ _____ _____    ______ ____
ROOT
ATOM      1  C   UNL     1       3.018   5.413  18.745  0.00  0.00    +0.000 A 
ATOM      2  N   UNL     1       2.594   5.751  19.942  0.00  0.00    +0.000 NA
ATOM      3  C   UNL     1       2.119   7.037  19.835  0.00  0.00    +0.000 A 
ATOM      4  C   UNL     1       1.533   7.861  20.799  0.00  0.00    +0.000 A 
ATOM      5  C   UNL     1       1.092   9.135  20.421  0.00  0.00    +0.000 A 
ATOM      6 CL   UNL     1       0.354  10.107  21.648  0.00  0.00    +0.000 Cl
ATOM      7  C   UNL     1       1.245   9.587  19.104  0.00  0.00    +0.000 A 
ATOM      8 CL   UNL     1       0.711  11.156  18.602  0.00  0.00    +0.000 Cl
ATOM      9  C   UNL     1       1.843   8.775  18.126  0.00  0.00    +0.000 A 
ATOM     10  C   UNL     1       2.262   7.514  18.537  0.00  0.00    +0.000 A 
ATOM     11  N   UNL     1       2.864   6.474  17.865  0.00  0.00    +0.000 N 
ATOM     12  H   UNL     1       3.107   6.490  16.890  0.00  0.00    +0.000 HD
ENDROOT
BRANCH   1  14
ATOM     13  C   UNL     1       2.471   3.232  17.639  0.00  0.00    +0.000 C 
ATOM     14  C   UNL     1       3.565   4.056  18.322  0.00  0.00    +0.000 C 
BRANCH  14  15
ATOM     15  O   UNL     1       3.916   3.385  19.547  0.00  0.00    +0.000 OA
ATOM     16  H   UNL     1       3.325   2.630  19.693  0.00  0.00    +0.000 HD
ENDBRANCH  14  15
BRANCH  14  17
ATOM     17  C   UNL     1       4.885   4.150  17.528  0.00  0.00    +0.000 C 
BRANCH  17  18
ATOM     18  S   UNL     1       6.124   5.180  18.278  0.00  0.00    +0.000 S 
ATOM     19  C   UNL     1       7.691   4.603  17.631  0.00  0.00    +0.000 C 
ATOM     20  O   UNL     1       5.954   6.541  17.781  0.00  0.00    +0.000 OA
ATOM     21  O   UNL     1       6.142   4.912  19.693  0.00  0.00    +0.000 OA
ENDBRANCH  17  18
ENDBRANCH  14  17
ENDBRANCH   1  14
TORSDOF 4
ENDMDL
