MODEL 1
REMARK VINA RESULT:      -7.4      0.000      0.000
REMARK  Name = 
REMARK  3 active torsions:
REMARK  status: ('A' for Active; 'I' for Inactive)
REMARK    1  A    between atoms: C_1  and  C_2
REMARK    2  A    between atoms: C_2  and  N_3
REMARK    3  A    between atoms: C_12  and  C_13
REMARK                            x       y       z     vdW  Elec       q    Type
REMARK                         _______ _______ _______ _____ _____    ______ ____
ROOT
ATOM      1  N   UNL     1       6.758   6.113  17.741  0.00  0.00    +0.000 NA
ATOM      2  C   UNL     1       5.882   7.163  17.214  0.00  0.00    +0.000 C 
ATOM      3  C   UNL     1       4.578   6.460  16.854  0.00  0.00    +0.000 C 
ATOM      4  C   UNL     1       4.555   5.208  17.728  0.00  0.00    +0.000 C 
ATOM      5  C   UNL     1       5.891   5.193  18.484  0.00  0.00    +0.000 C 
ATOM      6  C   UNL     1       4.384   3.926  16.877  0.00  0.00    +0.000 C 
ATOM      7  O   UNL     1       5.066   3.545  15.943  0.00  0.00    +0.000 OA
ATOM      8  N   UNL     1       3.275   3.247  17.369  0.00  0.00    +0.000 N 
ATOM      9  C   UNL     1       2.677   3.922  18.424  0.00  0.00    +0.000 A 
ATOM     10  C   UNL     1       1.576   3.537  19.170  0.00  0.00    +0.000 A 
ATOM     11  C   UNL     1       0.810   2.275  18.929  0.00  0.00    +0.000 C 
ATOM     12  C   UNL     1       1.190   4.398  20.212  0.00  0.00    +0.000 A 
ATOM     13  C   UNL     1       1.890   5.591  20.471  0.00  0.00    +0.000 A 
ATOM     14  C   UNL     1       2.990   5.955  19.694  0.00  0.00    +0.000 A 
ATOM     15  C   UNL     1       3.376   5.106  18.671  0.00  0.00    +0.000 A 
ATOM     16  H   UNL     1       2.973   2.368  16.980  0.00  0.00    +0.000 HD
ENDROOT
BRANCH   1  18
ATOM     17  C   UNL     1       8.221   8.122  18.192  0.00  0.00    +0.000 C 
ATOM     18  C   UNL     1       7.883   6.666  18.503  0.00  0.00    +0.000 C 
ENDBRANCH   1  18
TORSDOF 1
ENDMDL
MODEL 2
REMARK VINA RESULT:      -7.2      2.552      3.713
REMARK  Name = 
REMARK  3 active torsions:
REMARK  status: ('A' for Active; 'I' for Inactive)
REMARK    1  A    between atoms: C_1  and  C_2
REMARK    2  A    between atoms: C_2  and  N_3
REMARK    3  A    between atoms: C_12  and  C_13
REMARK                            x       y       z     vdW  Elec       q    Type
REMARK                         _______ _______ _______ _____ _____    ______ ____
ROOT
ATOM      1  N   UNL     1       5.558   4.409  17.718  0.00  0.00    +0.000 NA
ATOM      2  C   UNL     1       4.498   4.175  16.734  0.00  0.00    +0.000 C 
ATOM      3  C   UNL     1       3.193   4.465  17.467  0.00  0.00    +0.000 C 
ATOM      4  C   UNL     1       3.585   5.405  18.606  0.00  0.00    +0.000 C 
ATOM      5  C   UNL     1       5.113   5.540  18.537  0.00  0.00    +0.000 C 
ATOM      6  C   UNL     1       3.137   4.848  19.980  0.00  0.00    +0.000 C 
ATOM      7  O   UNL     1       3.393   3.766  20.474  0.00  0.00    +0.000 OA
ATOM      8  N   UNL     1       2.358   5.826  20.588  0.00  0.00    +0.000 N 
ATOM      9  C   UNL     1       2.216   6.951  19.788  0.00  0.00    +0.000 A 
ATOM     10  C   UNL     1       1.535   8.122  20.075  0.00  0.00    +0.000 A 
ATOM     11  C   UNL     1       0.794   8.361  21.352  0.00  0.00    +0.000 C 
ATOM     12  C   UNL     1       1.572   9.127  19.092  0.00  0.00    +0.000 A 
ATOM     13  C   UNL     1       2.263   8.940  17.882  0.00  0.00    +0.000 A 
ATOM     14  C   UNL     1       2.932   7.744  17.619  0.00  0.00    +0.000 A 
ATOM     15  C   UNL     1       2.901   6.754  18.587  0.00  0.00    +0.000 A 
ATOM     16  H   UNL     1       1.962   5.696  21.506  0.00  0.00    +0.000 HD
ENDROOT
BRANCH   1  18
ATOM     17  C   UNL     1       6.856   4.589  15.559  0.00  0.00    +0.000 C 
ATOM     18  C   UNL     1       6.871   4.572  17.085  0.00  0.00    +0.000 C 
ENDBRANCH   1  18
TORSDOF 1
ENDMDL
MODEL 3
REMARK VINA RESULT:      -7.0      2.183      3.304
REMARK  Name = 
REMARK  3 active torsions:
REMARK  status: ('A' for Active; 'I' for Inactive)
REMARK    1  A    between atoms: C_1  and  C_2
REMARK    2  A    between atoms: C_2  and  N_3
REMARK    3  A    between atoms: C_12  and  C_13
REMARK                            x       y       z     vdW  Elec       q    Type
REMARK                         _______ _______ _______ _____ _____    ______ ____
ROOT
ATOM      1  N   UNL     1       6.334   5.144  15.533  0.00  0.00    +0.000 NA
ATOM      2  C   UNL     1       7.201   4.642  16.602  0.00  0.00    +0.000 C 
ATOM      3  C   UNL     1       6.395   4.801  17.886  0.00  0.00    +0.000 C 
ATOM      4  C   UNL     1       4.937   4.812  17.434  0.00  0.00    +0.000 C 
ATOM      5  C   UNL     1       4.968   4.756  15.900  0.00  0.00    +0.000 C 
ATOM      6  C   UNL     1       4.200   6.082  17.929  0.00  0.00    +0.000 C 
ATOM      7  O   UNL     1       4.507   7.247  17.755  0.00  0.00    +0.000 OA
ATOM      8  N   UNL     1       3.081   5.660  18.638  0.00  0.00    +0.000 N 
ATOM      9  C   UNL     1       2.991   4.276  18.694  0.00  0.00    +0.000 A 
ATOM     10  C   UNL     1       2.004   3.508  19.289  0.00  0.00    +0.000 A 
ATOM     11  C   UNL     1       0.832   4.083  20.019  0.00  0.00    +0.000 C 
ATOM     12  C   UNL     1       2.138   2.114  19.174  0.00  0.00    +0.000 A 
ATOM     13  C   UNL     1       3.225   1.538  18.492  0.00  0.00    +0.000 A 
ATOM     14  C   UNL     1       4.208   2.340  17.910  0.00  0.00    +0.000 A 
ATOM     15  C   UNL     1       4.076   3.714  18.018  0.00  0.00    +0.000 A 
ATOM     16  H   UNL     1       2.433   6.314  19.048  0.00  0.00    +0.000 HD
ENDROOT
BRANCH   1  18
ATOM     17  C   UNL     1       5.825   3.743  13.495  0.00  0.00    +0.000 C 
ATOM     18  C   UNL     1       6.777   4.698  14.209  0.00  0.00    +0.000 C 
ENDBRANCH   1  18
TORSDOF 1
ENDMDL
MODEL 4
REMARK VINA RESULT:      -6.9      2.232      3.050
REMARK  Name = 
REMARK  3 active torsions:
REMARK  status: ('A' for Active; 'I' for Inactive)
REMARK    1  A    between atoms: C_1  and  C_2
REMARK    2  A    between atoms: C_2  and  N_3
REMARK    3  A    between atoms: C_12  and  C_13
REMARK                            x       y       z     vdW  Elec       q    Type
REMARK                         _______ _______ _______ _____ _____    ______ ____
ROOT
ATOM      1  N   UNL     1       6.225   5.666  15.821  0.00  0.00    +0.000 NA
ATOM      2  C   UNL     1       7.107   5.835  16.979  0.00  0.00    +0.000 C 
ATOM      3  C   UNL     1       6.180   6.113  18.157  0.00  0.00    +0.000 C 
ATOM      4  C   UNL     1       4.839   5.505  17.752  0.00  0.00    +0.000 C 
ATOM      5  C   UNL     1       5.024   4.988  16.318  0.00  0.00    +0.000 C 
ATOM      6  C   UNL     1       3.699   6.551  17.822  0.00  0.00    +0.000 C 
ATOM      7  O   UNL     1       3.637   7.636  17.276  0.00  0.00    +0.000 OA
ATOM      8  N   UNL     1       2.710   6.029  18.650  0.00  0.00    +0.000 N 
ATOM      9  C   UNL     1       3.056   4.783  19.152  0.00  0.00    +0.000 A 
ATOM     10  C   UNL     1       2.312   3.960  19.982  0.00  0.00    +0.000 A 
ATOM     11  C   UNL     1       0.958   4.316  20.507  0.00  0.00    +0.000 C 
ATOM     12  C   UNL     1       2.889   2.724  20.321  0.00  0.00    +0.000 A 
ATOM     13  C   UNL     1       4.158   2.353  19.842  0.00  0.00    +0.000 A 
ATOM     14  C   UNL     1       4.886   3.209  19.015  0.00  0.00    +0.000 A 
ATOM     15  C   UNL     1       4.319   4.425  18.675  0.00  0.00    +0.000 A 
ATOM     16  H   UNL     1       1.855   6.529  18.838  0.00  0.00    +0.000 HD
ENDROOT
BRANCH   1  18
ATOM     17  C   UNL     1       6.080   3.932  13.991  0.00  0.00    +0.000 C 
ATOM     18  C   UNL     1       6.904   5.001  14.705  0.00  0.00    +0.000 C 
ENDBRANCH   1  18
TORSDOF 1
ENDMDL
MODEL 5
REMARK VINA RESULT:      -6.8      2.035      4.822
REMARK  Name = 
REMARK  3 active torsions:
REMARK  status: ('A' for Active; 'I' for Inactive)
REMARK    1  A    between atoms: C_1  and  C_2
REMARK    2  A    between atoms: C_2  and  N_3
REMARK    3  A    between atoms: C_12  and  C_13
REMARK                            x       y       z     vdW  Elec       q    Type
REMARK                         _______ _______ _______ _____ _____    ______ ____
ROOT
ATOM      1  N   UNL     1       1.795   5.413  20.234  0.00  0.00    +0.000 NA
ATOM      2  C   UNL     1       2.444   4.354  21.012  0.00  0.00    +0.000 C 
ATOM      3  C   UNL     1       3.210   3.516  19.995  0.00  0.00    +0.000 C 
ATOM      4  C   UNL     1       3.453   4.456  18.816  0.00  0.00    +0.000 C 
ATOM      5  C   UNL     1       2.733   5.767  19.164  0.00  0.00    +0.000 C 
ATOM      6  C   UNL     1       2.911   3.858  17.494  0.00  0.00    +0.000 C 
ATOM      7  O   UNL     1       1.786   3.465  17.250  0.00  0.00    +0.000 OA
ATOM      8  N   UNL     1       3.965   3.839  16.587  0.00  0.00    +0.000 N 
ATOM      9  C   UNL     1       5.139   4.329  17.142  0.00  0.00    +0.000 A 
ATOM     10  C   UNL     1       6.373   4.481  16.533  0.00  0.00    +0.000 A 
ATOM     11  C   UNL     1       6.650   4.104  15.112  0.00  0.00    +0.000 C 
ATOM     12  C   UNL     1       7.399   5.034  17.319  0.00  0.00    +0.000 A 
ATOM     13  C   UNL     1       7.174   5.405  18.657  0.00  0.00    +0.000 A 
ATOM     14  C   UNL     1       5.921   5.229  19.245  0.00  0.00    +0.000 A 
ATOM     15  C   UNL     1       4.907   4.690  18.471  0.00  0.00    +0.000 A 
ATOM     16  H   UNL     1       3.850   3.503  15.644  0.00  0.00    +0.000 HD
ENDROOT
BRANCH   1  18
ATOM     17  C   UNL     1       1.638   7.918  20.512  0.00  0.00    +0.000 C 
ATOM     18  C   UNL     1       1.359   6.529  21.079  0.00  0.00    +0.000 C 
ENDBRANCH   1  18
TORSDOF 1
ENDMDL
MODEL 6
REMARK VINA RESULT:      -6.6      2.500      3.916
REMARK  Name = 
REMARK  3 active torsions:
REMARK  status: ('A' for Active; 'I' for Inactive)
REMARK    1  A    between atoms: C_1  and  C_2
REMARK    2  A    between atoms: C_2  and  N_3
REMARK    3  A    between atoms: C_12  and  C_13
REMARK                            x       y       z     vdW  Elec       q    Type
REMARK                         _______ _______ _______ _____ _____    ______ ____
ROOT
ATOM      1  N   UNL     1       6.849   5.040  14.541  0.00  0.00    +0.000 NA
ATOM      2  C   UNL     1       7.281   4.041  15.523  0.00  0.00    +0.000 C 
ATOM      3  C   UNL     1       6.809   4.569  16.872  0.00  0.00    +0.000 C 
ATOM      4  C   UNL     1       5.642   5.498  16.542  0.00  0.00    +0.000 C 
ATOM      5  C   UNL     1       5.553   5.540  15.010  0.00  0.00    +0.000 C 
ATOM      6  C   UNL     1       5.864   6.915  17.126  0.00  0.00    +0.000 C 
ATOM      7  O   UNL     1       6.810   7.661  16.954  0.00  0.00    +0.000 OA
ATOM      8  N   UNL     1       4.759   7.215  17.916  0.00  0.00    +0.000 N 
ATOM      9  C   UNL     1       3.843   6.172  17.947  0.00  0.00    +0.000 A 
ATOM     10  C   UNL     1       2.625   6.126  18.604  0.00  0.00    +0.000 A 
ATOM     11  C   UNL     1       2.090   7.244  19.441  0.00  0.00    +0.000 C 
ATOM     12  C   UNL     1       1.871   4.950  18.446  0.00  0.00    +0.000 A 
ATOM     13  C   UNL     1       2.340   3.880  17.663  0.00  0.00    +0.000 A 
ATOM     14  C   UNL     1       3.577   3.956  17.021  0.00  0.00    +0.000 A 
ATOM     15  C   UNL     1       4.320   5.114  17.170  0.00  0.00    +0.000 A 
ATOM     16  H   UNL     1       4.670   8.098  18.392  0.00  0.00    +0.000 HD
ENDROOT
BRANCH   1  18
ATOM     17  C   UNL     1       5.737   3.521  12.857  0.00  0.00    +0.000 C 
ATOM     18  C   UNL     1       6.858   4.508  13.174  0.00  0.00    +0.000 C 
ENDBRANCH   1  18
TORSDOF 1
ENDMDL
MODEL 7
REMARK VINA RESULT:      -6.5      2.257      4.513
REMARK  Name = 
REMARK  3 active torsions:
REMARK  status: ('A' for Active; 'I' for Inactive)
REMARK    1  A    between atoms: C_1  and  C_2
REMARK    2  A    between atoms: C_2  and  N_3
REMARK    3  A    between atoms: C_12  and  C_13
REMARK                            x       y       z     vdW  Elec       q    Type
REMARK                         _______ _______ _______ _____ _____    ______ ____
ROOT
ATOM      1  N   UNL     1       3.798   3.235  18.219  0.00  0.00    +0.000 NA
ATOM      2  C   UNL     1       4.657   3.593  19.350  0.00  0.00    +0.000 C 
ATOM      3  C   UNL     1       4.843   5.103  19.256  0.00  0.00    +0.000 C 
ATOM      4  C   UNL     1       3.632   5.598  18.468  0.00  0.00    +0.000 C 
ATOM      5  C   UNL     1       2.849   4.341  18.060  0.00  0.00    +0.000 C 
ATOM      6  C   UNL     1       4.060   6.414  17.223  0.00  0.00    +0.000 C 
ATOM      7  O   UNL     1       4.803   6.077  16.320  0.00  0.00    +0.000 OA
ATOM      8  N   UNL     1       3.434   7.653  17.306  0.00  0.00    +0.000 N 
ATOM      9  C   UNL     1       2.661   7.770  18.453  0.00  0.00    +0.000 A 
ATOM     10  C   UNL     1       1.882   8.843  18.851  0.00  0.00    +0.000 A 
ATOM     11  C   UNL     1       1.762  10.116  18.075  0.00  0.00    +0.000 C 
ATOM     12  C   UNL     1       1.169   8.690  20.053  0.00  0.00    +0.000 A 
ATOM     13  C   UNL     1       1.254   7.506  20.808  0.00  0.00    +0.000 A 
ATOM     14  C   UNL     1       2.056   6.446  20.383  0.00  0.00    +0.000 A 
ATOM     15  C   UNL     1       2.756   6.592  19.197  0.00  0.00    +0.000 A 
ATOM     16  H   UNL     1       3.551   8.357  16.594  0.00  0.00    +0.000 HD
ENDROOT
BRANCH   1  18
ATOM     17  C   UNL     1       1.840   1.900  19.092  0.00  0.00    +0.000 C 
ATOM     18  C   UNL     1       3.192   1.909  18.385  0.00  0.00    +0.000 C 
ENDBRANCH   1  18
TORSDOF 1
ENDMDL
MODEL 8
REMARK VINA RESULT:      -6.5      1.355      1.541
REMARK  Name = 
REMARK  3 active torsions:
REMARK  status: ('A' for Active; 'I' for Inactive)
REMARK    1  A    between atoms: C_1  and  C_2
REMARK    2  A    between atoms: C_2  and  N_3
REMARK    3  A    between atoms: C_12  and  C_13
REMARK                            x       y       z     vdW  Elec       q    Type
REMARK                         _______ _______ _______ _____ _____    ______ ____
ROOT
ATOM      1  N   UNL     1       7.550   7.069  17.711  0.00  0.00    +0.000 NA
ATOM      2  C   UNL     1       6.415   7.817  17.163  0.00  0.00    +0.000 C 
ATOM      3  C   UNL     1       5.419   6.761  16.698  0.00  0.00    +0.000 C 
ATOM      4  C   UNL     1       5.748   5.521  17.528  0.00  0.00    +0.000 C 
ATOM      5  C   UNL     1       6.981   5.887  18.367  0.00  0.00    +0.000 C 
ATOM      6  C   UNL     1       6.034   4.295  16.625  0.00  0.00    +0.000 C 
ATOM      7  O   UNL     1       6.847   4.195  15.725  0.00  0.00    +0.000 OA
ATOM      8  N   UNL     1       5.172   3.279  17.024  0.00  0.00    +0.000 N 
ATOM      9  C   UNL     1       4.340   3.679  18.060  0.00  0.00    +0.000 A 
ATOM     10  C   UNL     1       3.381   2.930  18.721  0.00  0.00    +0.000 A 
ATOM     11  C   UNL     1       3.065   1.506  18.391  0.00  0.00    +0.000 C 
ATOM     12  C   UNL     1       2.691   3.573  19.764  0.00  0.00    +0.000 A 
ATOM     13  C   UNL     1       2.965   4.910  20.106  0.00  0.00    +0.000 A 
ATOM     14  C   UNL     1       3.931   5.639  19.413  0.00  0.00    +0.000 A 
ATOM     15  C   UNL     1       4.616   5.007  18.389  0.00  0.00    +0.000 A 
ATOM     16  H   UNL     1       5.183   2.371  16.587  0.00  0.00    +0.000 HD
ENDROOT
BRANCH   1  18
ATOM     17  C   UNL     1       8.451   9.382  18.174  0.00  0.00    +0.000 C 
ATOM     18  C   UNL     1       8.403   7.906  18.560  0.00  0.00    +0.000 C 
ENDBRANCH   1  18
TORSDOF 1
ENDMDL
MODEL 9
REMARK VINA RESULT:      -6.4      2.121      5.570
REMARK  Name = 
REMARK  3 active torsions:
REMARK  status: ('A' for Active; 'I' for Inactive)
REMARK    1  A    between atoms: C_1  and  C_2
REMARK    2  A    between atoms: C_2  and  N_3
REMARK    3  A    between atoms: C_12  and  C_13
REMARK                            x       y       z     vdW  Elec       q    Type
REMARK                         _______ _______ _______ _____ _____    ______ ____
ROOT
ATOM      1  N   UNL     1       1.614   3.728  19.638  0.00  0.00    +0.000 NA
ATOM      2  C   UNL     1       1.139   3.633  18.255  0.00  0.00    +0.000 C 
ATOM      3  C   UNL     1       1.807   4.787  17.517  0.00  0.00    +0.000 C 
ATOM      4  C   UNL     1       3.058   5.102  18.334  0.00  0.00    +0.000 C 
ATOM      5  C   UNL     1       3.007   4.180  19.561  0.00  0.00    +0.000 C 
ATOM      6  C   UNL     1       3.097   6.591  18.759  0.00  0.00    +0.000 C 
ATOM      7  O   UNL     1       2.256   7.223  19.371  0.00  0.00    +0.000 OA
ATOM      8  N   UNL     1       4.303   7.118  18.309  0.00  0.00    +0.000 N 
ATOM      9  C   UNL     1       5.059   6.177  17.624  0.00  0.00    +0.000 A 
ATOM     10  C   UNL     1       6.314   6.336  17.062  0.00  0.00    +0.000 A 
ATOM     11  C   UNL     1       7.081   7.620  17.090  0.00  0.00    +0.000 C 
ATOM     12  C   UNL     1       6.874   5.204  16.445  0.00  0.00    +0.000 A 
ATOM     13  C   UNL     1       6.185   3.978  16.403  0.00  0.00    +0.000 A 
ATOM     14  C   UNL     1       4.917   3.854  16.972  0.00  0.00    +0.000 A 
ATOM     15  C   UNL     1       4.365   4.966  17.584  0.00  0.00    +0.000 A 
ATOM     16  H   UNL     1       4.562   8.076  18.481  0.00  0.00    +0.000 HD
ENDROOT
BRANCH   1  18
ATOM     17  C   UNL     1       1.759   2.541  21.863  0.00  0.00    +0.000 C 
ATOM     18  C   UNL     1       1.401   2.481  20.380  0.00  0.00    +0.000 C 
ENDBRANCH   1  18
TORSDOF 1
ENDMDL
