MODEL 1
REMARK VINA RESULT:      -8.0      0.000      0.000
REMARK  Name = 
REMARK  2 active torsions:
REMARK  status: ('A' for Active; 'I' for Inactive)
REMARK    1  A    between atoms: C_4  and  C_5
REMARK    2  A    between atoms: C_5  and  N_6
REMARK                            x       y       z     vdW  Elec       q    Type
REMARK                         _______ _______ _______ _____ _____    ______ ____
ROOT
ATOM      1  N   UNL     1       6.219   4.276  16.748  0.00  0.00    +0.000 NA
ATOM      2  C   UNL     1       4.787   4.239  16.359  0.00  0.00    +0.000 C 
ATOM      3  C   UNL     1       4.028   3.190  17.217  0.00  0.00    +0.000 C 
ATOM      4  N   UNL     1       4.261   3.432  18.645  0.00  0.00    +0.000 N 
ATOM      5  C   UNL     1       5.049   4.541  18.915  0.00  0.00    +0.000 A 
ATOM      6  N   UNL     1       4.257   5.483  19.412  0.00  0.00    +0.000 NA
ATOM      7  C   UNL     1       3.124   4.809  19.829  0.00  0.00    +0.000 A 
ATOM      8  C   UNL     1       1.936   5.261  20.418  0.00  0.00    +0.000 A 
ATOM      9  C   UNL     1       1.053   4.308  20.948  0.00  0.00    +0.000 A 
ATOM     10  C   UNL     1       1.352   2.942  20.897  0.00  0.00    +0.000 A 
ATOM     11  C   UNL     1       2.450   2.470  20.168  0.00  0.00    +0.000 A 
ATOM     12  C   UNL     1       3.265   3.445  19.593  0.00  0.00    +0.000 A 
ATOM     13  C   UNL     1       6.356   4.667  18.180  0.00  0.00    +0.000 C 
ENDROOT
BRANCH   1  14
ATOM     14  C   UNL     1       6.990   5.172  15.864  0.00  0.00    +0.000 C 
BRANCH  14  18
ATOM     15  C   UNL     1       7.043   4.193  11.626  0.00  0.00    +0.000 A 
ATOM     16  C   UNL     1       6.235   3.465  12.499  0.00  0.00    +0.000 A 
ATOM     17  C   UNL     1       6.226   3.751  13.870  0.00  0.00    +0.000 A 
ATOM     18  C   UNL     1       7.035   4.769  14.400  0.00  0.00    +0.000 A 
ATOM     19  C   UNL     1       7.838   5.501  13.504  0.00  0.00    +0.000 A 
ATOM     20  C   UNL     1       7.848   5.212  12.146  0.00  0.00    +0.000 A 
ENDBRANCH  14  18
ENDBRANCH   1  14
TORSDOF 2
ENDMDL
MODEL 2
REMARK VINA RESULT:      -8.0      1.127      1.666
REMARK  Name = 
REMARK  2 active torsions:
REMARK  status: ('A' for Active; 'I' for Inactive)
REMARK    1  A    between atoms: C_4  and  C_5
REMARK    2  A    between atoms: C_5  and  N_6
REMARK                            x       y       z     vdW  Elec       q    Type
REMARK                         _______ _______ _______ _____ _____    ______ ____
ROOT
ATOM      1  N   UNL     1       5.073   5.064  16.385  0.00  0.00    +0.000 NA
ATOM      2  C   UNL     1       4.834   5.809  17.647  0.00  0.00    +0.000 C 
ATOM      3  C   UNL     1       3.356   5.640  18.093  0.00  0.00    +0.000 C 
ATOM      4  N   UNL     1       2.999   4.218  18.153  0.00  0.00    +0.000 N 
ATOM      5  C   UNL     1       4.042   3.355  17.850  0.00  0.00    +0.000 A 
ATOM      6  N   UNL     1       4.424   2.777  18.981  0.00  0.00    +0.000 NA
ATOM      7  C   UNL     1       3.363   2.961  19.849  0.00  0.00    +0.000 A 
ATOM      8  C   UNL     1       3.179   2.588  21.187  0.00  0.00    +0.000 A 
ATOM      9  C   UNL     1       1.894   2.709  21.740  0.00  0.00    +0.000 A 
ATOM     10  C   UNL     1       0.823   3.181  20.974  0.00  0.00    +0.000 A 
ATOM     11  C   UNL     1       1.026   3.708  19.693  0.00  0.00    +0.000 A 
ATOM     12  C   UNL     1       2.332   3.639  19.206  0.00  0.00    +0.000 A 
ATOM     13  C   UNL     1       4.818   3.610  16.586  0.00  0.00    +0.000 C 
ENDROOT
BRANCH   1  14
ATOM     14  C   UNL     1       6.435   5.311  15.869  0.00  0.00    +0.000 C 
BRANCH  14  18
ATOM     15  C   UNL     1       7.114   4.137  11.736  0.00  0.00    +0.000 A 
ATOM     16  C   UNL     1       6.145   3.483  12.495  0.00  0.00    +0.000 A 
ATOM     17  C   UNL     1       5.931   3.831  13.835  0.00  0.00    +0.000 A 
ATOM     18  C   UNL     1       6.693   4.840  14.448  0.00  0.00    +0.000 A 
ATOM     19  C   UNL     1       7.661   5.497  13.665  0.00  0.00    +0.000 A 
ATOM     20  C   UNL     1       7.872   5.147  12.338  0.00  0.00    +0.000 A 
ENDBRANCH  14  18
ENDBRANCH   1  14
TORSDOF 2
ENDMDL
MODEL 3
REMARK VINA RESULT:      -8.0      0.096      1.080
REMARK  Name = 
REMARK  2 active torsions:
REMARK  status: ('A' for Active; 'I' for Inactive)
REMARK    1  A    between atoms: C_4  and  C_5
REMARK    2  A    between atoms: C_5  and  N_6
REMARK                            x       y       z     vdW  Elec       q    Type
REMARK                         _______ _______ _______ _____ _____    ______ ____
ROOT
ATOM      1  N   UNL     1       6.141   4.283  16.733  0.00  0.00    +0.000 NA
ATOM      2  C   UNL     1       4.703   4.303  16.365  0.00  0.00    +0.000 C 
ATOM      3  C   UNL     1       3.925   3.246  17.195  0.00  0.00    +0.000 C 
ATOM      4  N   UNL     1       4.186   3.428  18.627  0.00  0.00    +0.000 N 
ATOM      5  C   UNL     1       5.011   4.503  18.925  0.00  0.00    +0.000 A 
ATOM      6  N   UNL     1       4.255   5.449  19.468  0.00  0.00    +0.000 NA
ATOM      7  C   UNL     1       3.107   4.794  19.878  0.00  0.00    +0.000 A 
ATOM      8  C   UNL     1       1.942   5.259  20.501  0.00  0.00    +0.000 A 
ATOM      9  C   UNL     1       1.038   4.313  21.009  0.00  0.00    +0.000 A 
ATOM     10  C   UNL     1       1.296   2.942  20.904  0.00  0.00    +0.000 A 
ATOM     11  C   UNL     1       2.369   2.464  20.142  0.00  0.00    +0.000 A 
ATOM     12  C   UNL     1       3.204   3.436  19.590  0.00  0.00    +0.000 A 
ATOM     13  C   UNL     1       6.310   4.617  18.176  0.00  0.00    +0.000 C 
ENDROOT
BRANCH   1  14
ATOM     14  C   UNL     1       6.926   5.188  15.870  0.00  0.00    +0.000 C 
BRANCH  14  18
ATOM     15  C   UNL     1       7.000   4.037  11.676  0.00  0.00    +0.000 A 
ATOM     16  C   UNL     1       7.789   5.097  12.121  0.00  0.00    +0.000 A 
ATOM     17  C   UNL     1       7.758   5.497  13.463  0.00  0.00    +0.000 A 
ATOM     18  C   UNL     1       6.925   4.847  14.390  0.00  0.00    +0.000 A 
ATOM     19  C   UNL     1       6.142   3.773  13.926  0.00  0.00    +0.000 A 
ATOM     20  C   UNL     1       6.172   3.382  12.594  0.00  0.00    +0.000 A 
ENDBRANCH  14  18
ENDBRANCH   1  14
TORSDOF 2
ENDMDL
MODEL 4
REMARK VINA RESULT:      -7.9      1.433      6.806
REMARK  Name = 
REMARK  2 active torsions:
REMARK  status: ('A' for Active; 'I' for Inactive)
REMARK    1  A    between atoms: C_4  and  C_5
REMARK    2  A    between atoms: C_5  and  N_6
REMARK                            x       y       z     vdW  Elec       q    Type
REMARK                         _______ _______ _______ _____ _____    ______ ____
ROOT
ATOM      1  N   UNL     1       5.324   5.702  18.321  0.00  0.00    +0.000 NA
ATOM      2  C   UNL     1       4.685   6.264  17.105  0.00  0.00    +0.000 C 
ATOM      3  C   UNL     1       5.767   6.614  16.047  0.00  0.00    +0.000 C 
ATOM      4  N   UNL     1       6.629   5.453  15.795  0.00  0.00    +0.000 N 
ATOM      5  C   UNL     1       6.274   4.314  16.503  0.00  0.00    +0.000 A 
ATOM      6  N   UNL     1       5.742   3.457  15.640  0.00  0.00    +0.000 NA
ATOM      7  C   UNL     1       6.165   3.896  14.398  0.00  0.00    +0.000 A 
ATOM      8  C   UNL     1       5.919   3.412  13.107  0.00  0.00    +0.000 A 
ATOM      9  C   UNL     1       6.679   3.931  12.047  0.00  0.00    +0.000 A 
ATOM     10  C   UNL     1       7.663   4.900  12.274  0.00  0.00    +0.000 A 
ATOM     11  C   UNL     1       7.804   5.507  13.528  0.00  0.00    +0.000 A 
ATOM     12  C   UNL     1       6.978   5.016  14.540  0.00  0.00    +0.000 A 
ATOM     13  C   UNL     1       6.060   4.449  17.986  0.00  0.00    +0.000 C 
ENDROOT
BRANCH   1  14
ATOM     14  C   UNL     1       4.332   5.479  19.392  0.00  0.00    +0.000 C 
BRANCH  14  18
ATOM     15  C   UNL     1       1.283   2.450  18.725  0.00  0.00    +0.000 A 
ATOM     16  C   UNL     1       2.399   2.154  19.506  0.00  0.00    +0.000 A 
ATOM     17  C   UNL     1       3.403   3.110  19.710  0.00  0.00    +0.000 A 
ATOM     18  C   UNL     1       3.314   4.384  19.126  0.00  0.00    +0.000 A 
ATOM     19  C   UNL     1       2.176   4.670  18.347  0.00  0.00    +0.000 A 
ATOM     20  C   UNL     1       1.185   3.719  18.145  0.00  0.00    +0.000 A 
ENDBRANCH  14  18
ENDBRANCH   1  14
TORSDOF 2
ENDMDL
MODEL 5
REMARK VINA RESULT:      -7.9      1.044      1.975
REMARK  Name = 
REMARK  2 active torsions:
REMARK  status: ('A' for Active; 'I' for Inactive)
REMARK    1  A    between atoms: C_4  and  C_5
REMARK    2  A    between atoms: C_5  and  N_6
REMARK                            x       y       z     vdW  Elec       q    Type
REMARK                         _______ _______ _______ _____ _____    ______ ____
ROOT
ATOM      1  N   UNL     1       5.233   4.951  16.424  0.00  0.00    +0.000 NA
ATOM      2  C   UNL     1       5.060   5.689  17.700  0.00  0.00    +0.000 C 
ATOM      3  C   UNL     1       3.573   5.639  18.148  0.00  0.00    +0.000 C 
ATOM      4  N   UNL     1       3.096   4.252  18.182  0.00  0.00    +0.000 N 
ATOM      5  C   UNL     1       4.060   3.308  17.859  0.00  0.00    +0.000 A 
ATOM      6  N   UNL     1       4.393   2.678  18.979  0.00  0.00    +0.000 NA
ATOM      7  C   UNL     1       3.352   2.936  19.853  0.00  0.00    +0.000 A 
ATOM      8  C   UNL     1       3.139   2.555  21.184  0.00  0.00    +0.000 A 
ATOM      9  C   UNL     1       1.870   2.775  21.742  0.00  0.00    +0.000 A 
ATOM     10  C   UNL     1       0.842   3.352  20.988  0.00  0.00    +0.000 A 
ATOM     11  C   UNL     1       1.088   3.884  19.717  0.00  0.00    +0.000 A 
ATOM     12  C   UNL     1       2.383   3.712  19.225  0.00  0.00    +0.000 A 
ATOM     13  C   UNL     1       4.854   3.520  16.598  0.00  0.00    +0.000 C 
ENDROOT
BRANCH   1  14
ATOM     14  C   UNL     1       6.610   5.089  15.909  0.00  0.00    +0.000 C 
BRANCH  14  18
ATOM     15  C   UNL     1       7.168   4.199  11.689  0.00  0.00    +0.000 A 
ATOM     16  C   UNL     1       7.913   5.211  12.291  0.00  0.00    +0.000 A 
ATOM     17  C   UNL     1       7.728   5.528  13.642  0.00  0.00    +0.000 A 
ATOM     18  C   UNL     1       6.781   4.841  14.421  0.00  0.00    +0.000 A 
ATOM     19  C   UNL     1       6.043   3.815  13.799  0.00  0.00    +0.000 A 
ATOM     20  C   UNL     1       6.227   3.506  12.458  0.00  0.00    +0.000 A 
ENDBRANCH  14  18
ENDBRANCH   1  14
TORSDOF 2
ENDMDL
MODEL 6
REMARK VINA RESULT:      -7.8      1.462      6.764
REMARK  Name = 
REMARK  2 active torsions:
REMARK  status: ('A' for Active; 'I' for Inactive)
REMARK    1  A    between atoms: C_4  and  C_5
REMARK    2  A    between atoms: C_5  and  N_6
REMARK                            x       y       z     vdW  Elec       q    Type
REMARK                         _______ _______ _______ _____ _____    ______ ____
ROOT
ATOM      1  N   UNL     1       5.357   5.687  18.316  0.00  0.00    +0.000 NA
ATOM      2  C   UNL     1       4.685   6.222  17.105  0.00  0.00    +0.000 C 
ATOM      3  C   UNL     1       5.742   6.583  16.025  0.00  0.00    +0.000 C 
ATOM      4  N   UNL     1       6.625   5.439  15.772  0.00  0.00    +0.000 N 
ATOM      5  C   UNL     1       6.307   4.301  16.498  0.00  0.00    +0.000 A 
ATOM      6  N   UNL     1       5.781   3.422  15.654  0.00  0.00    +0.000 NA
ATOM      7  C   UNL     1       6.174   3.856  14.401  0.00  0.00    +0.000 A 
ATOM      8  C   UNL     1       5.919   3.352  13.119  0.00  0.00    +0.000 A 
ATOM      9  C   UNL     1       6.650   3.876  12.041  0.00  0.00    +0.000 A 
ATOM     10  C   UNL     1       7.615   4.869  12.241  0.00  0.00    +0.000 A 
ATOM     11  C   UNL     1       7.763   5.493  13.485  0.00  0.00    +0.000 A 
ATOM     12  C   UNL     1       6.965   4.995  14.516  0.00  0.00    +0.000 A 
ATOM     13  C   UNL     1       6.114   4.448  17.983  0.00  0.00    +0.000 C 
ENDROOT
BRANCH   1  14
ATOM     14  C   UNL     1       4.387   5.455  19.406  0.00  0.00    +0.000 C 
BRANCH  14  18
ATOM     15  C   UNL     1       1.463   2.372  18.477  0.00  0.00    +0.000 A 
ATOM     16  C   UNL     1       1.204   3.701  18.142  0.00  0.00    +0.000 A 
ATOM     17  C   UNL     1       2.124   4.709  18.457  0.00  0.00    +0.000 A 
ATOM     18  C   UNL     1       3.323   4.409  19.125  0.00  0.00    +0.000 A 
ATOM     19  C   UNL     1       3.573   3.061  19.447  0.00  0.00    +0.000 A 
ATOM     20  C   UNL     1       2.657   2.065  19.137  0.00  0.00    +0.000 A 
ENDBRANCH  14  18
ENDBRANCH   1  14
TORSDOF 2
ENDMDL
MODEL 7
REMARK VINA RESULT:      -7.8      2.251      3.739
REMARK  Name = 
REMARK  2 active torsions:
REMARK  status: ('A' for Active; 'I' for Inactive)
REMARK    1  A    between atoms: C_4  and  C_5
REMARK    2  A    between atoms: C_5  and  N_6
REMARK                            x       y       z     vdW  Elec       q    Type
REMARK                         _______ _______ _______ _____ _____    ______ ____
ROOT
ATOM      1  N   UNL     1       4.841   5.097  16.313  0.00  0.00    +0.000 NA
ATOM      2  C   UNL     1       4.348   5.897  17.461  0.00  0.00    +0.000 C 
ATOM      3  C   UNL     1       2.899   5.471  17.824  0.00  0.00    +0.000 C 
ATOM      4  N   UNL     1       2.828   4.019  18.024  0.00  0.00    +0.000 N 
ATOM      5  C   UNL     1       4.044   3.365  17.893  0.00  0.00    +0.000 A 
ATOM      6  N   UNL     1       4.431   2.994  19.107  0.00  0.00    +0.000 NA
ATOM      7  C   UNL     1       3.282   3.039  19.874  0.00  0.00    +0.000 A 
ATOM      8  C   UNL     1       3.057   2.771  21.231  0.00  0.00    +0.000 A 
ATOM      9  C   UNL     1       1.730   2.677  21.678  0.00  0.00    +0.000 A 
ATOM     10  C   UNL     1       0.659   2.838  20.793  0.00  0.00    +0.000 A 
ATOM     11  C   UNL     1       0.867   3.266  19.477  0.00  0.00    +0.000 A 
ATOM     12  C   UNL     1       2.198   3.421  19.089  0.00  0.00    +0.000 A 
ATOM     13  C   UNL     1       4.863   3.649  16.663  0.00  0.00    +0.000 C 
ENDROOT
BRANCH   1  14
ATOM     14  C   UNL     1       6.167   5.568  15.865  0.00  0.00    +0.000 C 
BRANCH  14  18
ATOM     15  C   UNL     1       8.468   7.445  19.043  0.00  0.00    +0.000 A 
ATOM     16  C   UNL     1       8.043   8.201  17.951  0.00  0.00    +0.000 A 
ATOM     17  C   UNL     1       7.324   7.607  16.907  0.00  0.00    +0.000 A 
ATOM     18  C   UNL     1       7.020   6.235  16.929  0.00  0.00    +0.000 A 
ATOM     19  C   UNL     1       7.449   5.488  18.043  0.00  0.00    +0.000 A 
ATOM     20  C   UNL     1       8.166   6.080  19.075  0.00  0.00    +0.000 A 
ENDBRANCH  14  18
ENDBRANCH   1  14
TORSDOF 2
ENDMDL
MODEL 8
REMARK VINA RESULT:      -7.7      1.054      2.179
REMARK  Name = 
REMARK  2 active torsions:
REMARK  status: ('A' for Active; 'I' for Inactive)
REMARK    1  A    between atoms: C_4  and  C_5
REMARK    2  A    between atoms: C_5  and  N_6
REMARK                            x       y       z     vdW  Elec       q    Type
REMARK                         _______ _______ _______ _____ _____    ______ ____
ROOT
ATOM      1  N   UNL     1       6.340   5.582  17.000  0.00  0.00    +0.000 NA
ATOM      2  C   UNL     1       6.316   4.680  18.178  0.00  0.00    +0.000 C 
ATOM      3  C   UNL     1       5.223   5.141  19.181  0.00  0.00    +0.000 C 
ATOM      4  N   UNL     1       3.930   5.281  18.499  0.00  0.00    +0.000 N 
ATOM      5  C   UNL     1       3.953   4.938  17.156  0.00  0.00    +0.000 A 
ATOM      6  N   UNL     1       3.313   3.783  17.027  0.00  0.00    +0.000 NA
ATOM      7  C   UNL     1       2.561   3.664  18.182  0.00  0.00    +0.000 A 
ATOM      8  C   UNL     1       1.694   2.659  18.629  0.00  0.00    +0.000 A 
ATOM      9  C   UNL     1       0.887   2.927  19.746  0.00  0.00    +0.000 A 
ATOM     10  C   UNL     1       0.939   4.167  20.392  0.00  0.00    +0.000 A 
ATOM     11  C   UNL     1       1.913   5.115  20.058  0.00  0.00    +0.000 A 
ATOM     12  C   UNL     1       2.747   4.782  18.990  0.00  0.00    +0.000 A 
ATOM     13  C   UNL     1       5.027   5.548  16.295  0.00  0.00    +0.000 C 
ENDROOT
BRANCH   1  14
ATOM     14  C   UNL     1       7.453   5.244  16.091  0.00  0.00    +0.000 C 
BRANCH  14  18
ATOM     15  C   UNL     1       6.366   3.800  12.134  0.00  0.00    +0.000 A 
ATOM     16  C   UNL     1       7.320   4.807  12.270  0.00  0.00    +0.000 A 
ATOM     17  C   UNL     1       7.663   5.302  13.535  0.00  0.00    +0.000 A 
ATOM     18  C   UNL     1       7.049   4.802  14.695  0.00  0.00    +0.000 A 
ATOM     19  C   UNL     1       6.094   3.778  14.541  0.00  0.00    +0.000 A 
ATOM     20  C   UNL     1       5.754   3.293  13.285  0.00  0.00    +0.000 A 
ENDBRANCH  14  18
ENDBRANCH   1  14
TORSDOF 2
ENDMDL
MODEL 9
REMARK VINA RESULT:      -7.7      2.347      3.683
REMARK  Name = 
REMARK  2 active torsions:
REMARK  status: ('A' for Active; 'I' for Inactive)
REMARK    1  A    between atoms: C_4  and  C_5
REMARK    2  A    between atoms: C_5  and  N_6
REMARK                            x       y       z     vdW  Elec       q    Type
REMARK                         _______ _______ _______ _____ _____    ______ ____
ROOT
ATOM      1  N   UNL     1       4.727   5.252  16.376  0.00  0.00    +0.000 NA
ATOM      2  C   UNL     1       4.150   6.022  17.507  0.00  0.00    +0.000 C 
ATOM      3  C   UNL     1       2.728   5.494  17.842  0.00  0.00    +0.000 C 
ATOM      4  N   UNL     1       2.759   4.042  18.052  0.00  0.00    +0.000 N 
ATOM      5  C   UNL     1       4.022   3.477  17.953  0.00  0.00    +0.000 A 
ATOM      6  N   UNL     1       4.408   3.143  19.178  0.00  0.00    +0.000 NA
ATOM      7  C   UNL     1       3.241   3.110  19.920  0.00  0.00    +0.000 A 
ATOM      8  C   UNL     1       3.006   2.836  21.273  0.00  0.00    +0.000 A 
ATOM      9  C   UNL     1       1.680   2.648  21.693  0.00  0.00    +0.000 A 
ATOM     10  C   UNL     1       0.619   2.725  20.783  0.00  0.00    +0.000 A 
ATOM     11  C   UNL     1       0.825   3.158  19.468  0.00  0.00    +0.000 A 
ATOM     12  C   UNL     1       2.151   3.407  19.108  0.00  0.00    +0.000 A 
ATOM     13  C   UNL     1       4.846   3.811  16.739  0.00  0.00    +0.000 C 
ENDROOT
BRANCH   1  14
ATOM     14  C   UNL     1       6.024   5.815  15.953  0.00  0.00    +0.000 C 
BRANCH  14  18
ATOM     15  C   UNL     1       8.562   7.627  18.986  0.00  0.00    +0.000 A 
ATOM     16  C   UNL     1       8.208   6.282  19.087  0.00  0.00    +0.000 A 
ATOM     17  C   UNL     1       7.371   5.690  18.133  0.00  0.00    +0.000 A 
ATOM     18  C   UNL     1       6.861   6.437  17.058  0.00  0.00    +0.000 A 
ATOM     19  C   UNL     1       7.236   7.791  16.966  0.00  0.00    +0.000 A 
ATOM     20  C   UNL     1       8.062   8.376  17.915  0.00  0.00    +0.000 A 
ENDBRANCH  14  18
ENDBRANCH   1  14
TORSDOF 2
ENDMDL
