MODEL 1
REMARK VINA RESULT:      -7.6      0.000      0.000
REMARK  Name = 
REMARK  4 active torsions:
REMARK  status: ('A' for Active; 'I' for Inactive)
REMARK    1  A    between atoms: C_1  and  N_2
REMARK    2  A    between atoms: N_9  and  C_10
REMARK    3  A    between atoms: C_10  and  N_12
REMARK    4  A    between atoms: N_12  and  C_13
REMARK                            x       y       z     vdW  Elec       q    Type
REMARK                         _______ _______ _______ _____ _____    ______ ____
ROOT
ATOM      1  C   UNL     1       3.170   7.145  18.114  0.00  0.00    +0.000 C 
ATOM      2  S   UNL     1       2.286   8.524  17.823  0.00  0.00    +0.000 S 
ENDROOT
BRANCH   1  11
ATOM      3  C   UNL     1       5.471   5.482  15.012  0.00  0.00    +0.000 C 
ATOM      4  N   UNL     1       5.987   5.445  16.379  0.00  0.00    +0.000 N 
ATOM      5  C   UNL     1       7.248   4.745  16.527  0.00  0.00    +0.000 C 
ATOM      6  C   UNL     1       7.766   4.657  17.936  0.00  0.00    +0.000 C 
ATOM      7  C   UNL     1       6.971   5.372  18.986  0.00  0.00    +0.000 C 
ATOM      8  O   UNL     1       7.408   5.379  20.137  0.00  0.00    +0.000 OA
ATOM      9  N   UNL     1       5.776   5.946  18.676  0.00  0.00    +0.000 NA
ATOM     10  C   UNL     1       5.346   5.972  17.471  0.00  0.00    +0.000 C 
ATOM     11  N   UNL     1       4.085   6.513  17.270  0.00  0.00    +0.000 N 
ATOM     12  H   UNL     1       3.702   6.376  16.350  0.00  0.00    +0.000 HD
ENDBRANCH   1  11
BRANCH   1  13
ATOM     13  N   UNL     1       2.940   6.426  19.275  0.00  0.00    +0.000 N 
ATOM     14  H   UNL     1       3.494   6.700  20.081  0.00  0.00    +0.000 HD
BRANCH  13  15
ATOM     15  C   UNL     1       2.295   5.168  19.345  0.00  0.00    +0.000 A 
ATOM     16  C   UNL     1       1.777   4.621  18.170  0.00  0.00    +0.000 A 
ATOM     17  C   UNL     1       1.151   3.372  18.198  0.00  0.00    +0.000 A 
ATOM     18  C   UNL     1       1.009   2.685  19.405  0.00  0.00    +0.000 A 
ATOM     19  C   UNL     1       1.488   3.252  20.583  0.00  0.00    +0.000 A 
ATOM     20 CL   UNL     1       1.288   2.423  22.077  0.00  0.00    +0.000 Cl
ATOM     21  C   UNL     1       2.128   4.486  20.558  0.00  0.00    +0.000 A 
ENDBRANCH  13  15
ENDBRANCH   1  13
TORSDOF 3
ENDMDL
MODEL 2
REMARK VINA RESULT:      -7.3      2.819      3.710
REMARK  Name = 
REMARK  4 active torsions:
REMARK  status: ('A' for Active; 'I' for Inactive)
REMARK    1  A    between atoms: C_1  and  N_2
REMARK    2  A    between atoms: N_9  and  C_10
REMARK    3  A    between atoms: C_10  and  N_12
REMARK    4  A    between atoms: N_12  and  C_13
REMARK                            x       y       z     vdW  Elec       q    Type
REMARK                         _______ _______ _______ _____ _____    ______ ____
ROOT
ATOM      1  C   UNL     1       2.725   4.984  19.506  0.00  0.00    +0.000 C 
ATOM      2  S   UNL     1       1.650   3.930  20.213  0.00  0.00    +0.000 S 
ENDROOT
BRANCH   1  11
ATOM      3  C   UNL     1       4.696   4.208  15.873  0.00  0.00    +0.000 C 
ATOM      4  N   UNL     1       5.486   4.562  17.049  0.00  0.00    +0.000 N 
ATOM      5  C   UNL     1       6.921   4.531  16.842  0.00  0.00    +0.000 C 
ATOM      6  C   UNL     1       7.748   4.846  18.058  0.00  0.00    +0.000 C 
ATOM      7  C   UNL     1       6.997   5.236  19.294  0.00  0.00    +0.000 C 
ATOM      8  O   UNL     1       7.646   5.570  20.285  0.00  0.00    +0.000 OA
ATOM      9  N   UNL     1       5.637   5.168  19.326  0.00  0.00    +0.000 NA
ATOM     10  C   UNL     1       4.964   4.860  18.282  0.00  0.00    +0.000 C 
ATOM     11  N   UNL     1       3.590   4.745  18.437  0.00  0.00    +0.000 N 
ATOM     12  H   UNL     1       3.103   4.347  17.652  0.00  0.00    +0.000 HD
ENDBRANCH   1  11
BRANCH   1  13
ATOM     13  N   UNL     1       2.912   6.237  20.066  0.00  0.00    +0.000 N 
ATOM     14  H   UNL     1       3.364   6.251  20.976  0.00  0.00    +0.000 HD
BRANCH  13  15
ATOM     15  C   UNL     1       2.241   7.418  19.672  0.00  0.00    +0.000 A 
ATOM     16  C   UNL     1       2.368   7.845  18.349  0.00  0.00    +0.000 A 
ATOM     17  C   UNL     1       1.703   8.997  17.920  0.00  0.00    +0.000 A 
ATOM     18  C   UNL     1       0.941   9.744  18.820  0.00  0.00    +0.000 A 
ATOM     19  C   UNL     1       0.850   9.339  20.149  0.00  0.00    +0.000 A 
ATOM     20 CL   UNL     1      -0.064  10.273  21.269  0.00  0.00    +0.000 Cl
ATOM     21  C   UNL     1       1.494   8.184  20.577  0.00  0.00    +0.000 A 
ENDBRANCH  13  15
ENDBRANCH   1  13
TORSDOF 3
ENDMDL
MODEL 3
REMARK VINA RESULT:      -7.3      1.749      2.378
REMARK  Name = 
REMARK  4 active torsions:
REMARK  status: ('A' for Active; 'I' for Inactive)
REMARK    1  A    between atoms: C_1  and  N_2
REMARK    2  A    between atoms: N_9  and  C_10
REMARK    3  A    between atoms: C_10  and  N_12
REMARK    4  A    between atoms: N_12  and  C_13
REMARK                            x       y       z     vdW  Elec       q    Type
REMARK                         _______ _______ _______ _____ _____    ______ ____
ROOT
ATOM      1  C   UNL     1       2.982   6.737  18.059  0.00  0.00    +0.000 C 
ATOM      2  S   UNL     1       2.462   8.318  18.043  0.00  0.00    +0.000 S 
ENDROOT
BRANCH   1  11
ATOM      3  C   UNL     1       6.739   5.445  19.436  0.00  0.00    +0.000 C 
ATOM      4  N   UNL     1       6.382   5.229  18.036  0.00  0.00    +0.000 N 
ATOM      5  C   UNL     1       7.434   4.638  17.231  0.00  0.00    +0.000 C 
ATOM      6  C   UNL     1       7.097   4.455  15.777  0.00  0.00    +0.000 C 
ATOM      7  C   UNL     1       5.703   4.818  15.363  0.00  0.00    +0.000 C 
ATOM      8  O   UNL     1       5.374   4.612  14.195  0.00  0.00    +0.000 OA
ATOM      9  N   UNL     1       4.851   5.407  16.248  0.00  0.00    +0.000 NA
ATOM     10  C   UNL     1       5.183   5.582  17.472  0.00  0.00    +0.000 C 
ATOM     11  N   UNL     1       4.275   6.257  18.273  0.00  0.00    +0.000 N 
ATOM     12  H   UNL     1       4.621   6.526  19.180  0.00  0.00    +0.000 HD
ENDBRANCH   1  11
BRANCH   1  13
ATOM     13  N   UNL     1       2.095   5.730  17.719  0.00  0.00    +0.000 N 
ATOM     14  H   UNL     1       1.267   6.025  17.210  0.00  0.00    +0.000 HD
BRANCH  13  15
ATOM     15  C   UNL     1       2.058   4.441  18.301  0.00  0.00    +0.000 A 
ATOM     16  C   UNL     1       2.302   3.336  17.485  0.00  0.00    +0.000 A 
ATOM     17  C   UNL     1       2.292   2.049  18.030  0.00  0.00    +0.000 A 
ATOM     18  C   UNL     1       2.002   1.862  19.383  0.00  0.00    +0.000 A 
ATOM     19  C   UNL     1       1.717   2.963  20.186  0.00  0.00    +0.000 A 
ATOM     20 CL   UNL     1       1.330   2.734  21.847  0.00  0.00    +0.000 Cl
ATOM     21  C   UNL     1       1.743   4.247  19.653  0.00  0.00    +0.000 A 
ENDBRANCH  13  15
ENDBRANCH   1  13
TORSDOF 3
ENDMDL
MODEL 4
REMARK VINA RESULT:      -7.3      1.226      1.430
REMARK  Name = 
REMARK  4 active torsions:
REMARK  status: ('A' for Active; 'I' for Inactive)
REMARK    1  A    between atoms: C_1  and  N_2
REMARK    2  A    between atoms: N_9  and  C_10
REMARK    3  A    between atoms: C_10  and  N_12
REMARK    4  A    between atoms: N_12  and  C_13
REMARK                            x       y       z     vdW  Elec       q    Type
REMARK                         _______ _______ _______ _____ _____    ______ ____
ROOT
ATOM      1  C   UNL     1       3.185   6.967  18.378  0.00  0.00    +0.000 C 
ATOM      2  S   UNL     1       2.190   8.276  18.125  0.00  0.00    +0.000 S 
ENDROOT
BRANCH   1  11
ATOM      3  C   UNL     1       5.395   5.420  15.153  0.00  0.00    +0.000 C 
ATOM      4  N   UNL     1       5.984   5.408  16.490  0.00  0.00    +0.000 N 
ATOM      5  C   UNL     1       7.284   4.770  16.569  0.00  0.00    +0.000 C 
ATOM      6  C   UNL     1       7.880   4.706  17.949  0.00  0.00    +0.000 C 
ATOM      7  C   UNL     1       7.108   5.381  19.042  0.00  0.00    +0.000 C 
ATOM      8  O   UNL     1       7.604   5.409  20.168  0.00  0.00    +0.000 OA
ATOM      9  N   UNL     1       5.872   5.897  18.797  0.00  0.00    +0.000 NA
ATOM     10  C   UNL     1       5.377   5.902  17.617  0.00  0.00    +0.000 C 
ATOM     11  N   UNL     1       4.083   6.381  17.485  0.00  0.00    +0.000 N 
ATOM     12  H   UNL     1       3.658   6.226  16.586  0.00  0.00    +0.000 HD
ENDBRANCH   1  11
BRANCH   1  13
ATOM     13  N   UNL     1       3.082   6.259  19.564  0.00  0.00    +0.000 N 
ATOM     14  H   UNL     1       3.640   6.611  20.337  0.00  0.00    +0.000 HD
BRANCH  13  15
ATOM     15  C   UNL     1       2.577   4.944  19.692  0.00  0.00    +0.000 A 
ATOM     16  C   UNL     1       1.426   4.746  20.455  0.00  0.00    +0.000 A 
ATOM     17  C   UNL     1       0.888   3.462  20.587  0.00  0.00    +0.000 A 
ATOM     18  C   UNL     1       1.520   2.371  19.987  0.00  0.00    +0.000 A 
ATOM     19  C   UNL     1       2.692   2.566  19.262  0.00  0.00    +0.000 A 
ATOM     20 CL   UNL     1       3.491   1.220  18.546  0.00  0.00    +0.000 Cl
ATOM     21  C   UNL     1       3.222   3.843  19.112  0.00  0.00    +0.000 A 
ENDBRANCH  13  15
ENDBRANCH   1  13
TORSDOF 3
ENDMDL
MODEL 5
REMARK VINA RESULT:      -7.2      3.828      6.505
REMARK  Name = 
REMARK  4 active torsions:
REMARK  status: ('A' for Active; 'I' for Inactive)
REMARK    1  A    between atoms: C_1  and  N_2
REMARK    2  A    between atoms: N_9  and  C_10
REMARK    3  A    between atoms: C_10  and  N_12
REMARK    4  A    between atoms: N_12  and  C_13
REMARK                            x       y       z     vdW  Elec       q    Type
REMARK                         _______ _______ _______ _____ _____    ______ ____
ROOT
ATOM      1  C   UNL     1       5.990   4.477  17.085  0.00  0.00    +0.000 C 
ATOM      2  S   UNL     1       7.541   4.715  17.639  0.00  0.00    +0.000 S 
ENDROOT
BRANCH   1  11
ATOM      3  C   UNL     1       3.441   1.422  18.444  0.00  0.00    +0.000 C 
ATOM      4  N   UNL     1       3.151   2.806  18.810  0.00  0.00    +0.000 N 
ATOM      5  C   UNL     1       1.926   2.983  19.567  0.00  0.00    +0.000 C 
ATOM      6  C   UNL     1       1.589   4.409  19.908  0.00  0.00    +0.000 C 
ATOM      7  C   UNL     1       2.592   5.447  19.507  0.00  0.00    +0.000 C 
ATOM      8  O   UNL     1       2.380   6.614  19.835  0.00  0.00    +0.000 OA
ATOM      9  N   UNL     1       3.676   5.107  18.755  0.00  0.00    +0.000 NA
ATOM     10  C   UNL     1       3.915   3.887  18.451  0.00  0.00    +0.000 C 
ATOM     11  N   UNL     1       5.000   3.652  17.620  0.00  0.00    +0.000 N 
ATOM     12  H   UNL     1       5.071   2.714  17.264  0.00  0.00    +0.000 HD
ENDBRANCH   1  11
BRANCH   1  13
ATOM     13  N   UNL     1       5.603   5.058  15.888  0.00  0.00    +0.000 N 
ATOM     14  H   UNL     1       4.727   5.571  15.910  0.00  0.00    +0.000 HD
BRANCH  13  15
ATOM     15  C   UNL     1       6.108   4.716  14.612  0.00  0.00    +0.000 A 
ATOM     16  C   UNL     1       7.259   5.362  14.158  0.00  0.00    +0.000 A 
ATOM     17  C   UNL     1       7.797   5.035  12.910  0.00  0.00    +0.000 A 
ATOM     18  C   UNL     1       7.164   4.091  12.098  0.00  0.00    +0.000 A 
ATOM     19  C   UNL     1       5.993   3.479  12.535  0.00  0.00    +0.000 A 
ATOM     20 CL   UNL     1       5.194   2.337  11.526  0.00  0.00    +0.000 Cl
ATOM     21  C   UNL     1       5.463   3.787  13.783  0.00  0.00    +0.000 A 
ENDBRANCH  13  15
ENDBRANCH   1  13
TORSDOF 3
ENDMDL
MODEL 6
REMARK VINA RESULT:      -7.1      1.369      1.683
REMARK  Name = 
REMARK  4 active torsions:
REMARK  status: ('A' for Active; 'I' for Inactive)
REMARK    1  A    between atoms: C_1  and  N_2
REMARK    2  A    between atoms: N_9  and  C_10
REMARK    3  A    between atoms: C_10  and  N_12
REMARK    4  A    between atoms: N_12  and  C_13
REMARK                            x       y       z     vdW  Elec       q    Type
REMARK                         _______ _______ _______ _____ _____    ______ ____
ROOT
ATOM      1  C   UNL     1       2.835   6.103  17.960  0.00  0.00    +0.000 C 
ATOM      2  S   UNL     1       2.476   7.660  18.421  0.00  0.00    +0.000 S 
ENDROOT
BRANCH   1  11
ATOM      3  C   UNL     1       5.516   4.882  14.959  0.00  0.00    +0.000 C 
ATOM      4  N   UNL     1       6.000   5.025  16.330  0.00  0.00    +0.000 N 
ATOM      5  C   UNL     1       7.386   4.643  16.522  0.00  0.00    +0.000 C 
ATOM      6  C   UNL     1       7.883   4.738  17.938  0.00  0.00    +0.000 C 
ATOM      7  C   UNL     1       6.925   5.296  18.947  0.00  0.00    +0.000 C 
ATOM      8  O   UNL     1       7.326   5.454  20.100  0.00  0.00    +0.000 OA
ATOM      9  N   UNL     1       5.636   5.564  18.600  0.00  0.00    +0.000 NA
ATOM     10  C   UNL     1       5.234   5.437  17.391  0.00  0.00    +0.000 C 
ATOM     11  N   UNL     1       3.887   5.663  17.154  0.00  0.00    +0.000 N 
ATOM     12  H   UNL     1       3.563   5.400  16.238  0.00  0.00    +0.000 HD
ENDBRANCH   1  11
BRANCH   1  13
ATOM     13  N   UNL     1       1.963   5.080  18.295  0.00  0.00    +0.000 N 
ATOM     14  H   UNL     1       1.032   5.145  17.894  0.00  0.00    +0.000 HD
BRANCH  13  15
ATOM     15  C   UNL     1       2.127   4.187  19.380  0.00  0.00    +0.000 A 
ATOM     16  C   UNL     1       1.114   4.112  20.336  0.00  0.00    +0.000 A 
ATOM     17  C   UNL     1       1.233   3.226  21.411  0.00  0.00    +0.000 A 
ATOM     18  C   UNL     1       2.381   2.443  21.552  0.00  0.00    +0.000 A 
ATOM     19  C   UNL     1       3.409   2.552  20.619  0.00  0.00    +0.000 A 
ATOM     20 CL   UNL     1       4.837   1.611  20.805  0.00  0.00    +0.000 Cl
ATOM     21  C   UNL     1       3.288   3.417  19.538  0.00  0.00    +0.000 A 
ENDBRANCH  13  15
ENDBRANCH   1  13
TORSDOF 3
ENDMDL
MODEL 7
REMARK VINA RESULT:      -7.0      3.556      6.218
REMARK  Name = 
REMARK  4 active torsions:
REMARK  status: ('A' for Active; 'I' for Inactive)
REMARK    1  A    between atoms: C_1  and  N_2
REMARK    2  A    between atoms: N_9  and  C_10
REMARK    3  A    between atoms: C_10  and  N_12
REMARK    4  A    between atoms: N_12  and  C_13
REMARK                            x       y       z     vdW  Elec       q    Type
REMARK                         _______ _______ _______ _____ _____    ______ ____
ROOT
ATOM      1  C   UNL     1       5.418   5.366  16.876  0.00  0.00    +0.000 C 
ATOM      2  S   UNL     1       6.171   6.821  17.168  0.00  0.00    +0.000 S 
ENDROOT
BRANCH   1  11
ATOM      3  C   UNL     1       1.364   4.507  17.585  0.00  0.00    +0.000 C 
ATOM      4  N   UNL     1       2.385   3.821  18.373  0.00  0.00    +0.000 N 
ATOM      5  C   UNL     1       1.861   2.943  19.403  0.00  0.00    +0.000 C 
ATOM      6  C   UNL     1       2.902   2.268  20.254  0.00  0.00    +0.000 C 
ATOM      7  C   UNL     1       4.332   2.513  19.881  0.00  0.00    +0.000 C 
ATOM      8  O   UNL     1       5.205   1.917  20.512  0.00  0.00    +0.000 OA
ATOM      9  N   UNL     1       4.648   3.410  18.906  0.00  0.00    +0.000 NA
ATOM     10  C   UNL     1       3.737   3.995  18.223  0.00  0.00    +0.000 C 
ATOM     11  N   UNL     1       4.159   4.946  17.306  0.00  0.00    +0.000 N 
ATOM     12  H   UNL     1       3.427   5.505  16.901  0.00  0.00    +0.000 HD
ENDBRANCH   1  11
BRANCH   1  13
ATOM     13  N   UNL     1       6.115   4.364  16.222  0.00  0.00    +0.000 N 
ATOM     14  H   UNL     1       6.689   3.768  16.812  0.00  0.00    +0.000 HD
BRANCH  13  15
ATOM     15  C   UNL     1       6.374   4.320  14.832  0.00  0.00    +0.000 A 
ATOM     16  C   UNL     1       7.478   5.017  14.340  0.00  0.00    +0.000 A 
ATOM     17  C   UNL     1       7.776   4.980  12.975  0.00  0.00    +0.000 A 
ATOM     18  C   UNL     1       6.949   4.278  12.095  0.00  0.00    +0.000 A 
ATOM     19  C   UNL     1       5.825   3.619  12.583  0.00  0.00    +0.000 A 
ATOM     20 CL   UNL     1       4.787   2.777  11.499  0.00  0.00    +0.000 Cl
ATOM     21  C   UNL     1       5.534   3.636  13.942  0.00  0.00    +0.000 A 
ENDBRANCH  13  15
ENDBRANCH   1  13
TORSDOF 3
ENDMDL
MODEL 8
REMARK VINA RESULT:      -6.9      2.870      3.469
REMARK  Name = 
REMARK  4 active torsions:
REMARK  status: ('A' for Active; 'I' for Inactive)
REMARK    1  A    between atoms: C_1  and  N_2
REMARK    2  A    between atoms: N_9  and  C_10
REMARK    3  A    between atoms: C_10  and  N_12
REMARK    4  A    between atoms: N_12  and  C_13
REMARK                            x       y       z     vdW  Elec       q    Type
REMARK                         _______ _______ _______ _____ _____    ______ ____
ROOT
ATOM      1  C   UNL     1       3.388   2.684  17.862  0.00  0.00    +0.000 C 
ATOM      2  S   UNL     1       3.575   1.283  18.739  0.00  0.00    +0.000 S 
ENDROOT
BRANCH   1  11
ATOM      3  C   UNL     1       5.723   4.310  14.766  0.00  0.00    +0.000 C 
ATOM      4  N   UNL     1       6.064   4.620  16.152  0.00  0.00    +0.000 N 
ATOM      5  C   UNL     1       7.262   5.423  16.312  0.00  0.00    +0.000 C 
ATOM      6  C   UNL     1       7.653   5.708  17.736  0.00  0.00    +0.000 C 
ATOM      7  C   UNL     1       6.719   5.210  18.798  0.00  0.00    +0.000 C 
ATOM      8  O   UNL     1       6.973   5.490  19.969  0.00  0.00    +0.000 OA
ATOM      9  N   UNL     1       5.655   4.427  18.469  0.00  0.00    +0.000 NA
ATOM     10  C   UNL     1       5.370   4.172  17.248  0.00  0.00    +0.000 C 
ATOM     11  N   UNL     1       4.312   3.305  17.021  0.00  0.00    +0.000 N 
ATOM     12  H   UNL     1       4.211   2.993  16.069  0.00  0.00    +0.000 HD
ENDBRANCH   1  11
BRANCH   1  13
ATOM     13  N   UNL     1       2.235   3.434  18.024  0.00  0.00    +0.000 N 
ATOM     14  H   UNL     1       1.466   3.201  17.403  0.00  0.00    +0.000 HD
BRANCH  13  15
ATOM     15  C   UNL     1       2.154   4.677  18.697  0.00  0.00    +0.000 A 
ATOM     16  C   UNL     1       1.830   4.677  20.054  0.00  0.00    +0.000 A 
ATOM     17  C   UNL     1       1.761   5.884  20.755  0.00  0.00    +0.000 A 
ATOM     18  C   UNL     1       1.977   7.095  20.092  0.00  0.00    +0.000 A 
ATOM     19  C   UNL     1       2.258   7.094  18.729  0.00  0.00    +0.000 A 
ATOM     20 CL   UNL     1       2.496   8.584  17.902  0.00  0.00    +0.000 Cl
ATOM     21  C   UNL     1       2.347   5.895  18.030  0.00  0.00    +0.000 A 
ENDBRANCH  13  15
ENDBRANCH   1  13
TORSDOF 3
ENDMDL
MODEL 9
REMARK VINA RESULT:      -6.9      3.698      5.996
REMARK  Name = 
REMARK  4 active torsions:
REMARK  status: ('A' for Active; 'I' for Inactive)
REMARK    1  A    between atoms: C_1  and  N_2
REMARK    2  A    between atoms: N_9  and  C_10
REMARK    3  A    between atoms: C_10  and  N_12
REMARK    4  A    between atoms: N_12  and  C_13
REMARK                            x       y       z     vdW  Elec       q    Type
REMARK                         _______ _______ _______ _____ _____    ______ ____
ROOT
ATOM      1  C   UNL     1       6.719   5.587  18.313  0.00  0.00    +0.000 C 
ATOM      2  S   UNL     1       7.953   6.643  18.675  0.00  0.00    +0.000 S 
ENDROOT
BRANCH   1  11
ATOM      3  C   UNL     1       2.736   6.283  19.467  0.00  0.00    +0.000 C 
ATOM      4  N   UNL     1       3.324   4.966  19.700  0.00  0.00    +0.000 N 
ATOM      5  C   UNL     1       2.458   4.035  20.398  0.00  0.00    +0.000 C 
ATOM      6  C   UNL     1       3.069   2.692  20.689  0.00  0.00    +0.000 C 
ATOM      7  C   UNL     1       4.446   2.453  20.148  0.00  0.00    +0.000 C 
ATOM      8  O   UNL     1       4.945   1.339  20.306  0.00  0.00    +0.000 OA
ATOM      9  N   UNL     1       5.138   3.462  19.549  0.00  0.00    +0.000 NA
ATOM     10  C   UNL     1       4.601   4.607  19.349  0.00  0.00    +0.000 C 
ATOM     11  N   UNL     1       5.411   5.589  18.800  0.00  0.00    +0.000 N 
ATOM     12  H   UNL     1       5.021   6.517  18.804  0.00  0.00    +0.000 HD
ENDBRANCH   1  11
BRANCH   1  13
ATOM     13  N   UNL     1       6.984   4.484  17.518  0.00  0.00    +0.000 N 
ATOM     14  H   UNL     1       7.651   3.818  17.895  0.00  0.00    +0.000 HD
BRANCH  13  15
ATOM     15  C   UNL     1       6.699   4.384  16.135  0.00  0.00    +0.000 A 
ATOM     16  C   UNL     1       5.599   3.623  15.737  0.00  0.00    +0.000 A 
ATOM     17  C   UNL     1       5.276   3.518  14.381  0.00  0.00    +0.000 A 
ATOM     18  C   UNL     1       6.074   4.142  13.419  0.00  0.00    +0.000 A 
ATOM     19  C   UNL     1       7.195   4.865  13.817  0.00  0.00    +0.000 A 
ATOM     20 CL   UNL     1       8.198   5.610  12.634  0.00  0.00    +0.000 Cl
ATOM     21  C   UNL     1       7.510   4.988  15.165  0.00  0.00    +0.000 A 
ENDBRANCH  13  15
ENDBRANCH   1  13
TORSDOF 3
ENDMDL
