MODEL 1
REMARK VINA RESULT:      -8.1      0.000      0.000
REMARK  Name = 
REMARK  8 active torsions:
REMARK  status: ('A' for Active; 'I' for Inactive)
REMARK    1  A    between atoms: C_1  and  C_2
REMARK    2  A    between atoms: C_2  and  C_3
REMARK    3  A    between atoms: N_5  and  C_6
REMARK    4  A    between atoms: C_6  and  C_7
REMARK    5  A    between atoms: C_12  and  O_13
REMARK    6  A    between atoms: O_13  and  C_14
REMARK    7  A    between atoms: N_18  and  C_19
REMARK    8  A    between atoms: C_19  and  C_20
REMARK                            x       y       z     vdW  Elec       q    Type
REMARK                         _______ _______ _______ _____ _____    ______ ____
ROOT
ATOM      1  C   UNL     1       4.046   5.365  18.609  0.00  0.00    +0.000 C 
ATOM      2  C   UNL     1       5.412   5.708  19.211  0.00  0.00    +0.000 C 
ATOM      3  C   UNL     1       6.423   6.130  18.150  0.00  0.00    +0.000 C 
ATOM      4  C   UNL     1       6.268   5.395  16.842  0.00  0.00    +0.000 A 
ATOM      5  C   UNL     1       7.213   5.640  15.824  0.00  0.00    +0.000 A 
ATOM      6  C   UNL     1       7.122   5.005  14.586  0.00  0.00    +0.000 A 
ATOM      7  C   UNL     1       6.091   4.099  14.377  0.00  0.00    +0.000 A 
ATOM      8  C   UNL     1       5.156   3.851  15.387  0.00  0.00    +0.000 A 
ATOM      9  C   UNL     1       5.202   4.501  16.625  0.00  0.00    +0.000 A 
ATOM     10  N   UNL     1       4.217   4.316  17.587  0.00  0.00    +0.000 N 
ENDROOT
BRANCH   6  11
ATOM     11  O   UNL     1       8.081   5.349  13.675  0.00  0.00    +0.000 OA
ATOM     12  C   UNL     1       7.728   5.208  12.303  0.00  0.00    +0.000 C 
ENDBRANCH   6  11
BRANCH   1  13
ATOM     13  C   UNL     1       3.314   6.592  17.996  0.00  0.00    +0.000 C 
BRANCH  13  16
ATOM     14  C   UNL     1       1.949   8.577  18.587  0.00  0.00    +0.000 C 
ATOM     15  O   UNL     1       2.090   9.127  17.504  0.00  0.00    +0.000 OA
ATOM     16  N   UNL     1       2.468   7.344  18.911  0.00  0.00    +0.000 N 
ATOM     17  H   UNL     1       2.557   7.123  19.887  0.00  0.00    +0.000 HD
BRANCH  14  19
ATOM     18  C   UNL     1       1.232   8.338  21.008  0.00  0.00    +0.000 C 
ATOM     19  C   UNL     1       1.155   9.168  19.740  0.00  0.00    +0.000 C 
ENDBRANCH  14  19
ENDBRANCH  13  16
ENDBRANCH   1  13
BRANCH  10  20
ATOM     20  C   UNL     1       3.511   3.040  17.755  0.00  0.00    +0.000 C 
BRANCH  20  21
ATOM     21  C   UNL     1       2.740   2.950  19.058  0.00  0.00    +0.000 A 
ATOM     22  C   UNL     1       1.357   3.191  19.089  0.00  0.00    +0.000 A 
ATOM     23  C   UNL     1       0.647   3.137  20.291  0.00  0.00    +0.000 A 
ATOM     24  C   UNL     1       1.309   2.832  21.477  0.00  0.00    +0.000 A 
ATOM     25  C   UNL     1       2.674   2.556  21.458  0.00  0.00    +0.000 A 
ATOM     26  C   UNL     1       3.380   2.598  20.254  0.00  0.00    +0.000 A 
ENDBRANCH  20  21
ENDBRANCH  10  20
TORSDOF 6
ENDMDL
MODEL 2
REMARK VINA RESULT:      -8.1      1.006      1.077
REMARK  Name = 
REMARK  8 active torsions:
REMARK  status: ('A' for Active; 'I' for Inactive)
REMARK    1  A    between atoms: C_1  and  C_2
REMARK    2  A    between atoms: C_2  and  C_3
REMARK    3  A    between atoms: N_5  and  C_6
REMARK    4  A    between atoms: C_6  and  C_7
REMARK    5  A    between atoms: C_12  and  O_13
REMARK    6  A    between atoms: O_13  and  C_14
REMARK    7  A    between atoms: N_18  and  C_19
REMARK    8  A    between atoms: C_19  and  C_20
REMARK                            x       y       z     vdW  Elec       q    Type
REMARK                         _______ _______ _______ _____ _____    ______ ____
ROOT
ATOM      1  C   UNL     1       5.321   5.061  19.284  0.00  0.00    +0.000 C 
ATOM      2  C   UNL     1       6.798   5.447  19.404  0.00  0.00    +0.000 C 
ATOM      3  C   UNL     1       7.382   5.925  18.079  0.00  0.00    +0.000 C 
ATOM      4  C   UNL     1       6.821   5.205  16.878  0.00  0.00    +0.000 A 
ATOM      5  C   UNL     1       7.362   5.502  15.610  0.00  0.00    +0.000 A 
ATOM      6  C   UNL     1       6.880   4.884  14.456  0.00  0.00    +0.000 A 
ATOM      7  C   UNL     1       5.868   3.943  14.578  0.00  0.00    +0.000 A 
ATOM      8  C   UNL     1       5.333   3.643  15.836  0.00  0.00    +0.000 A 
ATOM      9  C   UNL     1       5.771   4.274  17.006  0.00  0.00    +0.000 A 
ATOM     10  N   UNL     1       5.172   4.037  18.236  0.00  0.00    +0.000 N 
ENDROOT
BRANCH   6  11
ATOM     11  O   UNL     1       7.468   5.279  13.287  0.00  0.00    +0.000 OA
ATOM     12  C   UNL     1       7.295   4.413  12.170  0.00  0.00    +0.000 C 
ENDBRANCH   6  11
BRANCH   1  13
ATOM     13  C   UNL     1       4.388   6.269  18.986  0.00  0.00    +0.000 C 
BRANCH  13  16
ATOM     14  C   UNL     1       2.257   7.346  19.658  0.00  0.00    +0.000 C 
ATOM     15  O   UNL     1       2.172   8.043  18.658  0.00  0.00    +0.000 OA
ATOM     16  N   UNL     1       3.264   6.438  19.895  0.00  0.00    +0.000 N 
ATOM     17  H   UNL     1       3.410   6.148  20.846  0.00  0.00    +0.000 HD
BRANCH  14  19
ATOM     18  C   UNL     1       1.276   8.644  21.604  0.00  0.00    +0.000 C 
ATOM     19  C   UNL     1       1.244   7.363  20.791  0.00  0.00    +0.000 C 
ENDBRANCH  14  19
ENDBRANCH  13  16
ENDBRANCH   1  13
BRANCH  10  20
ATOM     20  C   UNL     1       4.602   2.731  18.594  0.00  0.00    +0.000 C 
BRANCH  20  21
ATOM     21  C   UNL     1       3.328   2.840  19.410  0.00  0.00    +0.000 A 
ATOM     22  C   UNL     1       2.122   3.227  18.804  0.00  0.00    +0.000 A 
ATOM     23  C   UNL     1       0.951   3.355  19.556  0.00  0.00    +0.000 A 
ATOM     24  C   UNL     1       0.968   3.088  20.921  0.00  0.00    +0.000 A 
ATOM     25  C   UNL     1       2.148   2.669  21.531  0.00  0.00    +0.000 A 
ATOM     26  C   UNL     1       3.315   2.530  20.776  0.00  0.00    +0.000 A 
ENDBRANCH  20  21
ENDBRANCH  10  20
TORSDOF 6
ENDMDL
MODEL 3
REMARK VINA RESULT:      -8.0      0.730      1.242
REMARK  Name = 
REMARK  8 active torsions:
REMARK  status: ('A' for Active; 'I' for Inactive)
REMARK    1  A    between atoms: C_1  and  C_2
REMARK    2  A    between atoms: C_2  and  C_3
REMARK    3  A    between atoms: N_5  and  C_6
REMARK    4  A    between atoms: C_6  and  C_7
REMARK    5  A    between atoms: C_12  and  O_13
REMARK    6  A    between atoms: O_13  and  C_14
REMARK    7  A    between atoms: N_18  and  C_19
REMARK    8  A    between atoms: C_19  and  C_20
REMARK                            x       y       z     vdW  Elec       q    Type
REMARK                         _______ _______ _______ _____ _____    ______ ____
ROOT
ATOM      1  C   UNL     1       4.864   5.025  19.095  0.00  0.00    +0.000 C 
ATOM      2  C   UNL     1       6.329   5.373  19.374  0.00  0.00    +0.000 C 
ATOM      3  C   UNL     1       7.053   5.872  18.128  0.00  0.00    +0.000 C 
ATOM      4  C   UNL     1       6.602   5.196  16.857  0.00  0.00    +0.000 A 
ATOM      5  C   UNL     1       7.275   5.512  15.659  0.00  0.00    +0.000 A 
ATOM      6  C   UNL     1       6.900   4.935  14.446  0.00  0.00    +0.000 A 
ATOM      7  C   UNL     1       5.862   4.015  14.439  0.00  0.00    +0.000 A 
ATOM      8  C   UNL     1       5.197   3.695  15.628  0.00  0.00    +0.000 A 
ATOM      9  C   UNL     1       5.527   4.286  16.852  0.00  0.00    +0.000 A 
ATOM     10  N   UNL     1       4.801   4.031  18.009  0.00  0.00    +0.000 N 
ENDROOT
BRANCH   6  11
ATOM     11  O   UNL     1       7.611   5.347  13.353  0.00  0.00    +0.000 OA
ATOM     12  C   UNL     1       7.364   4.645  12.139  0.00  0.00    +0.000 C 
ENDBRANCH   6  11
BRANCH   1  13
ATOM     13  C   UNL     1       3.990   6.261  18.738  0.00  0.00    +0.000 C 
BRANCH  13  16
ATOM     14  C   UNL     1       2.161   7.720  19.561  0.00  0.00    +0.000 C 
ATOM     15  O   UNL     1       2.094   8.389  18.540  0.00  0.00    +0.000 OA
ATOM     16  N   UNL     1       3.014   6.655  19.742  0.00  0.00    +0.000 N 
ATOM     17  H   UNL     1       3.206   6.374  20.688  0.00  0.00    +0.000 HD
BRANCH  14  19
ATOM     18  C   UNL     1       0.480   9.233  20.708  0.00  0.00    +0.000 C 
ATOM     19  C   UNL     1       1.290   7.952  20.784  0.00  0.00    +0.000 C 
ENDBRANCH  14  19
ENDBRANCH  13  16
ENDBRANCH   1  13
BRANCH  10  20
ATOM     20  C   UNL     1       4.172   2.730  18.272  0.00  0.00    +0.000 C 
BRANCH  20  21
ATOM     21  C   UNL     1       3.093   2.793  19.336  0.00  0.00    +0.000 A 
ATOM     22  C   UNL     1       3.402   2.547  20.684  0.00  0.00    +0.000 A 
ATOM     23  C   UNL     1       2.407   2.576  21.664  0.00  0.00    +0.000 A 
ATOM     24  C   UNL     1       1.091   2.862  21.312  0.00  0.00    +0.000 A 
ATOM     25  C   UNL     1       0.774   3.143  19.985  0.00  0.00    +0.000 A 
ATOM     26  C   UNL     1       1.772   3.125  19.008  0.00  0.00    +0.000 A 
ENDBRANCH  20  21
ENDBRANCH  10  20
TORSDOF 6
ENDMDL
MODEL 4
REMARK VINA RESULT:      -7.8      2.668      5.373
REMARK  Name = 
REMARK  8 active torsions:
REMARK  status: ('A' for Active; 'I' for Inactive)
REMARK    1  A    between atoms: C_1  and  C_2
REMARK    2  A    between atoms: C_2  and  C_3
REMARK    3  A    between atoms: N_5  and  C_6
REMARK    4  A    between atoms: C_6  and  C_7
REMARK    5  A    between atoms: C_12  and  O_13
REMARK    6  A    between atoms: O_13  and  C_14
REMARK    7  A    between atoms: N_18  and  C_19
REMARK    8  A    between atoms: C_19  and  C_20
REMARK                            x       y       z     vdW  Elec       q    Type
REMARK                         _______ _______ _______ _____ _____    ______ ____
ROOT
ATOM      1  C   UNL     1       5.266   4.311  16.376  0.00  0.00    +0.000 C 
ATOM      2  C   UNL     1       4.580   5.618  15.968  0.00  0.00    +0.000 C 
ATOM      3  C   UNL     1       5.510   6.821  16.083  0.00  0.00    +0.000 C 
ATOM      4  C   UNL     1       6.473   6.732  17.240  0.00  0.00    +0.000 A 
ATOM      5  C   UNL     1       7.312   7.835  17.496  0.00  0.00    +0.000 A 
ATOM      6  C   UNL     1       8.235   7.815  18.541  0.00  0.00    +0.000 A 
ATOM      7  C   UNL     1       8.298   6.690  19.351  0.00  0.00    +0.000 A 
ATOM      8  C   UNL     1       7.463   5.595  19.103  0.00  0.00    +0.000 A 
ATOM      9  C   UNL     1       6.553   5.574  18.039  0.00  0.00    +0.000 A 
ATOM     10  N   UNL     1       5.794   4.449  17.746  0.00  0.00    +0.000 N 
ENDROOT
BRANCH   6  11
ATOM     11  O   UNL     1       9.010   8.934  18.666  0.00  0.00    +0.000 OA
ATOM     12  C   UNL     1       8.467  10.139  18.137  0.00  0.00    +0.000 C 
ENDBRANCH   6  11
BRANCH   1  13
ATOM     13  C   UNL     1       6.405   3.880  15.408  0.00  0.00    +0.000 C 
BRANCH  13  16
ATOM     14  C   UNL     1       6.356   3.698  12.934  0.00  0.00    +0.000 C 
ATOM     15  O   UNL     1       7.124   4.630  12.746  0.00  0.00    +0.000 OA
ATOM     16  N   UNL     1       5.974   3.238  14.175  0.00  0.00    +0.000 N 
ATOM     17  H   UNL     1       5.134   2.689  14.225  0.00  0.00    +0.000 HD
BRANCH  14  19
ATOM     18  C   UNL     1       4.303   3.323  11.493  0.00  0.00    +0.000 C 
ATOM     19  C   UNL     1       5.719   2.886  11.819  0.00  0.00    +0.000 C 
ENDBRANCH  14  19
ENDBRANCH  13  16
ENDBRANCH   1  13
BRANCH  10  20
ATOM     20  C   UNL     1       5.318   3.528  18.786  0.00  0.00    +0.000 C 
BRANCH  20  21
ATOM     21  C   UNL     1       3.806   3.472  18.887  0.00  0.00    +0.000 A 
ATOM     22  C   UNL     1       3.076   4.589  19.324  0.00  0.00    +0.000 A 
ATOM     23  C   UNL     1       1.685   4.534  19.446  0.00  0.00    +0.000 A 
ATOM     24  C   UNL     1       1.004   3.365  19.122  0.00  0.00    +0.000 A 
ATOM     25  C   UNL     1       1.709   2.259  18.653  0.00  0.00    +0.000 A 
ATOM     26  C   UNL     1       3.098   2.319  18.520  0.00  0.00    +0.000 A 
ENDBRANCH  20  21
ENDBRANCH  10  20
TORSDOF 6
ENDMDL
MODEL 5
REMARK VINA RESULT:      -7.3      2.690      6.728
REMARK  Name = 
REMARK  8 active torsions:
REMARK  status: ('A' for Active; 'I' for Inactive)
REMARK    1  A    between atoms: C_1  and  C_2
REMARK    2  A    between atoms: C_2  and  C_3
REMARK    3  A    between atoms: N_5  and  C_6
REMARK    4  A    between atoms: C_6  and  C_7
REMARK    5  A    between atoms: C_12  and  O_13
REMARK    6  A    between atoms: O_13  and  C_14
REMARK    7  A    between atoms: N_18  and  C_19
REMARK    8  A    between atoms: C_19  and  C_20
REMARK                            x       y       z     vdW  Elec       q    Type
REMARK                         _______ _______ _______ _____ _____    ______ ____
ROOT
ATOM      1  C   UNL     1       5.951   5.986  16.301  0.00  0.00    +0.000 C 
ATOM      2  C   UNL     1       4.732   6.905  16.173  0.00  0.00    +0.000 C 
ATOM      3  C   UNL     1       3.901   6.946  17.451  0.00  0.00    +0.000 C 
ATOM      4  C   UNL     1       3.857   5.630  18.186  0.00  0.00    +0.000 A 
ATOM      5  C   UNL     1       3.038   5.531  19.329  0.00  0.00    +0.000 A 
ATOM      6  C   UNL     1       2.961   4.348  20.063  0.00  0.00    +0.000 A 
ATOM      7  C   UNL     1       3.691   3.249  19.633  0.00  0.00    +0.000 A 
ATOM      8  C   UNL     1       4.501   3.343  18.496  0.00  0.00    +0.000 A 
ATOM      9  C   UNL     1       4.625   4.527  17.761  0.00  0.00    +0.000 A 
ATOM     10  N   UNL     1       5.501   4.637  16.689  0.00  0.00    +0.000 N 
ENDROOT
BRANCH   6  11
ATOM     11  O   UNL     1       2.155   4.390  21.166  0.00  0.00    +0.000 OA
ATOM     12  C   UNL     1       1.753   3.134  21.703  0.00  0.00    +0.000 C 
ENDBRANCH   6  11
BRANCH   1  13
ATOM     13  C   UNL     1       7.014   6.504  17.311  0.00  0.00    +0.000 C 
BRANCH  13  16
ATOM     14  C   UNL     1       8.213   8.537  18.076  0.00  0.00    +0.000 C 
ATOM     15  O   UNL     1       8.774   7.982  19.009  0.00  0.00    +0.000 OA
ATOM     16  N   UNL     1       7.375   7.908  17.182  0.00  0.00    +0.000 N 
ATOM     17  H   UNL     1       6.744   8.487  16.656  0.00  0.00    +0.000 HD
BRANCH  14  19
ATOM     18  C   UNL     1       9.299  10.742  18.702  0.00  0.00    +0.000 C 
ATOM     19  C   UNL     1       8.374  10.012  17.745  0.00  0.00    +0.000 C 
ENDBRANCH  14  19
ENDBRANCH  13  16
ENDBRANCH   1  13
BRANCH  10  20
ATOM     20  C   UNL     1       5.808   3.505  15.806  0.00  0.00    +0.000 C 
BRANCH  20  21
ATOM     21  C   UNL     1       6.297   3.932  14.436  0.00  0.00    +0.000 A 
ATOM     22  C   UNL     1       5.637   3.500  13.274  0.00  0.00    +0.000 A 
ATOM     23  C   UNL     1       6.099   3.868  12.008  0.00  0.00    +0.000 A 
ATOM     24  C   UNL     1       7.221   4.683  11.886  0.00  0.00    +0.000 A 
ATOM     25  C   UNL     1       7.866   5.149  13.028  0.00  0.00    +0.000 A 
ATOM     26  C   UNL     1       7.396   4.790  14.294  0.00  0.00    +0.000 A 
ENDBRANCH  20  21
ENDBRANCH  10  20
TORSDOF 6
ENDMDL
MODEL 6
REMARK VINA RESULT:      -7.3      2.045      4.848
REMARK  Name = 
REMARK  8 active torsions:
REMARK  status: ('A' for Active; 'I' for Inactive)
REMARK    1  A    between atoms: C_1  and  C_2
REMARK    2  A    between atoms: C_2  and  C_3
REMARK    3  A    between atoms: N_5  and  C_6
REMARK    4  A    between atoms: C_6  and  C_7
REMARK    5  A    between atoms: C_12  and  O_13
REMARK    6  A    between atoms: O_13  and  C_14
REMARK    7  A    between atoms: N_18  and  C_19
REMARK    8  A    between atoms: C_19  and  C_20
REMARK                            x       y       z     vdW  Elec       q    Type
REMARK                         _______ _______ _______ _____ _____    ______ ____
ROOT
ATOM      1  C   UNL     1       5.269   4.055  16.997  0.00  0.00    +0.000 C 
ATOM      2  C   UNL     1       5.504   4.868  15.721  0.00  0.00    +0.000 C 
ATOM      3  C   UNL     1       5.237   6.356  15.925  0.00  0.00    +0.000 C 
ATOM      4  C   UNL     1       4.104   6.641  16.879  0.00  0.00    +0.000 A 
ATOM      5  C   UNL     1       3.710   7.982  17.065  0.00  0.00    +0.000 A 
ATOM      6  C   UNL     1       2.679   8.318  17.941  0.00  0.00    +0.000 A 
ATOM      7  C   UNL     1       2.022   7.299  18.616  0.00  0.00    +0.000 A 
ATOM      8  C   UNL     1       2.407   5.967  18.430  0.00  0.00    +0.000 A 
ATOM      9  C   UNL     1       3.461   5.604  17.584  0.00  0.00    +0.000 A 
ATOM     10  N   UNL     1       3.895   4.289  17.475  0.00  0.00    +0.000 N 
ENDROOT
BRANCH   6  11
ATOM     11  O   UNL     1       2.414   9.653  18.055  0.00  0.00    +0.000 OA
ATOM     12  C   UNL     1       1.224  10.003  18.754  0.00  0.00    +0.000 C 
ENDBRANCH   6  11
BRANCH   1  13
ATOM     13  C   UNL     1       6.289   4.370  18.128  0.00  0.00    +0.000 C 
BRANCH  13  16
ATOM     14  C   UNL     1       7.862   6.090  18.977  0.00  0.00    +0.000 C 
ATOM     15  O   UNL     1       8.212   5.439  19.951  0.00  0.00    +0.000 OA
ATOM     16  N   UNL     1       6.970   5.651  18.025  0.00  0.00    +0.000 N 
ATOM     17  H   UNL     1       6.528   6.349  17.452  0.00  0.00    +0.000 HD
BRANCH  14  19
ATOM     18  C   UNL     1       7.655   8.140  17.498  0.00  0.00    +0.000 C 
ATOM     19  C   UNL     1       8.381   7.482  18.657  0.00  0.00    +0.000 C 
ENDBRANCH  14  19
ENDBRANCH  13  16
ENDBRANCH   1  13
BRANCH  10  20
ATOM     20  C   UNL     1       2.981   3.147  17.599  0.00  0.00    +0.000 C 
BRANCH  20  21
ATOM     21  C   UNL     1       2.464   2.946  19.010  0.00  0.00    +0.000 A 
ATOM     22  C   UNL     1       1.085   2.938  19.273  0.00  0.00    +0.000 A 
ATOM     23  C   UNL     1       0.603   2.781  20.575  0.00  0.00    +0.000 A 
ATOM     24  C   UNL     1       1.495   2.620  21.632  0.00  0.00    +0.000 A 
ATOM     25  C   UNL     1       2.865   2.591  21.384  0.00  0.00    +0.000 A 
ATOM     26  C   UNL     1       3.344   2.736  20.081  0.00  0.00    +0.000 A 
ENDBRANCH  20  21
ENDBRANCH  10  20
TORSDOF 6
ENDMDL
MODEL 7
REMARK VINA RESULT:      -7.3      2.472      5.627
REMARK  Name = 
REMARK  8 active torsions:
REMARK  status: ('A' for Active; 'I' for Inactive)
REMARK    1  A    between atoms: C_1  and  C_2
REMARK    2  A    between atoms: C_2  and  C_3
REMARK    3  A    between atoms: N_5  and  C_6
REMARK    4  A    between atoms: C_6  and  C_7
REMARK    5  A    between atoms: C_12  and  O_13
REMARK    6  A    between atoms: O_13  and  C_14
REMARK    7  A    between atoms: N_18  and  C_19
REMARK    8  A    between atoms: C_19  and  C_20
REMARK                            x       y       z     vdW  Elec       q    Type
REMARK                         _______ _______ _______ _____ _____    ______ ____
ROOT
ATOM      1  C   UNL     1       5.137   4.394  15.951  0.00  0.00    +0.000 C 
ATOM      2  C   UNL     1       4.534   5.761  15.616  0.00  0.00    +0.000 C 
ATOM      3  C   UNL     1       5.510   6.904  15.875  0.00  0.00    +0.000 C 
ATOM      4  C   UNL     1       6.404   6.676  17.068  0.00  0.00    +0.000 A 
ATOM      5  C   UNL     1       7.278   7.713  17.455  0.00  0.00    +0.000 A 
ATOM      6  C   UNL     1       8.141   7.564  18.540  0.00  0.00    +0.000 A 
ATOM      7  C   UNL     1       8.109   6.377  19.258  0.00  0.00    +0.000 A 
ATOM      8  C   UNL     1       7.239   5.349  18.880  0.00  0.00    +0.000 A 
ATOM      9  C   UNL     1       6.388   5.456  17.774  0.00  0.00    +0.000 A 
ATOM     10  N   UNL     1       5.596   4.397  17.352  0.00  0.00    +0.000 N 
ENDROOT
BRANCH   6  11
ATOM     11  O   UNL     1       8.958   8.630  18.794  0.00  0.00    +0.000 OA
ATOM     12  C   UNL     1       8.641   9.843  18.119  0.00  0.00    +0.000 C 
ENDBRANCH   6  11
BRANCH   1  13
ATOM     13  C   UNL     1       6.306   3.984  15.009  0.00  0.00    +0.000 C 
BRANCH  13  16
ATOM     14  C   UNL     1       6.376   3.466  12.585  0.00  0.00    +0.000 C 
ATOM     15  O   UNL     1       7.155   4.366  12.308  0.00  0.00    +0.000 OA
ATOM     16  N   UNL     1       5.933   3.179  13.856  0.00  0.00    +0.000 N 
ATOM     17  H   UNL     1       5.089   2.639  13.940  0.00  0.00    +0.000 HD
BRANCH  14  19
ATOM     18  C   UNL     1       6.776   1.449  11.099  0.00  0.00    +0.000 C 
ATOM     19  C   UNL     1       5.791   2.507  11.561  0.00  0.00    +0.000 C 
ENDBRANCH  14  19
ENDBRANCH  13  16
ENDBRANCH   1  13
BRANCH  10  20
ATOM     20  C   UNL     1       5.023   3.422  18.289  0.00  0.00    +0.000 C 
BRANCH  20  21
ATOM     21  C   UNL     1       3.893   3.990  19.125  0.00  0.00    +0.000 A 
ATOM     22  C   UNL     1       3.436   5.301  18.914  0.00  0.00    +0.000 A 
ATOM     23  C   UNL     1       2.415   5.840  19.701  0.00  0.00    +0.000 A 
ATOM     24  C   UNL     1       1.829   5.071  20.702  0.00  0.00    +0.000 A 
ATOM     25  C   UNL     1       2.246   3.757  20.901  0.00  0.00    +0.000 A 
ATOM     26  C   UNL     1       3.259   3.216  20.107  0.00  0.00    +0.000 A 
ENDBRANCH  20  21
ENDBRANCH  10  20
TORSDOF 6
ENDMDL
MODEL 8
REMARK VINA RESULT:      -7.2      2.990      4.072
REMARK  Name = 
REMARK  8 active torsions:
REMARK  status: ('A' for Active; 'I' for Inactive)
REMARK    1  A    between atoms: C_1  and  C_2
REMARK    2  A    between atoms: C_2  and  C_3
REMARK    3  A    between atoms: N_5  and  C_6
REMARK    4  A    between atoms: C_6  and  C_7
REMARK    5  A    between atoms: C_12  and  O_13
REMARK    6  A    between atoms: O_13  and  C_14
REMARK    7  A    between atoms: N_18  and  C_19
REMARK    8  A    between atoms: C_19  and  C_20
REMARK                            x       y       z     vdW  Elec       q    Type
REMARK                         _______ _______ _______ _____ _____    ______ ____
ROOT
ATOM      1  C   UNL     1       6.757   6.675  18.409  0.00  0.00    +0.000 C 
ATOM      2  C   UNL     1       7.347   5.304  18.752  0.00  0.00    +0.000 C 
ATOM      3  C   UNL     1       7.756   4.521  17.509  0.00  0.00    +0.000 C 
ATOM      4  C   UNL     1       6.845   4.745  16.328  0.00  0.00    +0.000 A 
ATOM      5  C   UNL     1       7.076   3.995  15.156  0.00  0.00    +0.000 A 
ATOM      6  C   UNL     1       6.281   4.162  14.023  0.00  0.00    +0.000 A 
ATOM      7  C   UNL     1       5.231   5.069  14.074  0.00  0.00    +0.000 A 
ATOM      8  C   UNL     1       4.997   5.810  15.237  0.00  0.00    +0.000 A 
ATOM      9  C   UNL     1       5.801   5.690  16.376  0.00  0.00    +0.000 A 
ATOM     10  N   UNL     1       5.617   6.495  17.492  0.00  0.00    +0.000 N 
ENDROOT
BRANCH   6  11
ATOM     11  O   UNL     1       6.625   3.398  12.943  0.00  0.00    +0.000 OA
ATOM     12  C   UNL     1       5.575   3.076  12.037  0.00  0.00    +0.000 C 
ENDBRANCH   6  11
BRANCH   1  13
ATOM     13  C   UNL     1       7.791   7.656  17.786  0.00  0.00    +0.000 C 
BRANCH  13  16
ATOM     14  C   UNL     1       8.738   9.807  18.580  0.00  0.00    +0.000 C 
ATOM     15  O   UNL     1       8.238  10.476  17.687  0.00  0.00    +0.000 OA
ATOM     16  N   UNL     1       8.556   8.451  18.735  0.00  0.00    +0.000 N 
ATOM     17  H   UNL     1       9.229   7.957  19.295  0.00  0.00    +0.000 HD
BRANCH  14  19
ATOM     18  C   UNL     1       9.559  11.894  19.764  0.00  0.00    +0.000 C 
ATOM     19  C   UNL     1       9.624  10.380  19.673  0.00  0.00    +0.000 C 
ENDBRANCH  14  19
ENDBRANCH  13  16
ENDBRANCH   1  13
BRANCH  10  20
ATOM     20  C   UNL     1       4.292   6.978  17.904  0.00  0.00    +0.000 C 
BRANCH  20  21
ATOM     21  C   UNL     1       3.416   5.889  18.492  0.00  0.00    +0.000 A 
ATOM     22  C   UNL     1       2.395   5.302  17.729  0.00  0.00    +0.000 A 
ATOM     23  C   UNL     1       1.567   4.318  18.275  0.00  0.00    +0.000 A 
ATOM     24  C   UNL     1       1.756   3.900  19.589  0.00  0.00    +0.000 A 
ATOM     25  C   UNL     1       2.786   4.448  20.349  0.00  0.00    +0.000 A 
ATOM     26  C   UNL     1       3.621   5.422  19.798  0.00  0.00    +0.000 A 
ENDBRANCH  20  21
ENDBRANCH  10  20
TORSDOF 6
ENDMDL
MODEL 9
REMARK VINA RESULT:      -7.2      0.874      1.057
REMARK  Name = 
REMARK  8 active torsions:
REMARK  status: ('A' for Active; 'I' for Inactive)
REMARK    1  A    between atoms: C_1  and  C_2
REMARK    2  A    between atoms: C_2  and  C_3
REMARK    3  A    between atoms: N_5  and  C_6
REMARK    4  A    between atoms: C_6  and  C_7
REMARK    5  A    between atoms: C_12  and  O_13
REMARK    6  A    between atoms: O_13  and  C_14
REMARK    7  A    between atoms: N_18  and  C_19
REMARK    8  A    between atoms: C_19  and  C_20
REMARK                            x       y       z     vdW  Elec       q    Type
REMARK                         _______ _______ _______ _____ _____    ______ ____
ROOT
ATOM      1  C   UNL     1       5.028   5.765  18.462  0.00  0.00    +0.000 C 
ATOM      2  C   UNL     1       6.437   6.366  18.472  0.00  0.00    +0.000 C 
ATOM      3  C   UNL     1       7.004   6.535  17.066  0.00  0.00    +0.000 C 
ATOM      4  C   UNL     1       6.588   5.444  16.112  0.00  0.00    +0.000 A 
ATOM      5  C   UNL     1       7.134   5.451  14.812  0.00  0.00    +0.000 A 
ATOM      6  C   UNL     1       6.783   4.480  13.875  0.00  0.00    +0.000 A 
ATOM      7  C   UNL     1       5.898   3.480  14.253  0.00  0.00    +0.000 A 
ATOM      8  C   UNL     1       5.358   3.468  15.543  0.00  0.00    +0.000 A 
ATOM      9  C   UNL     1       5.665   4.450  16.492  0.00  0.00    +0.000 A 
ATOM     10  N   UNL     1       5.055   4.481  17.739  0.00  0.00    +0.000 N 
ENDROOT
BRANCH   6  11
ATOM     11  O   UNL     1       7.358   4.615  12.643  0.00  0.00    +0.000 OA
ATOM     12  C   UNL     1       6.985   3.651  11.663  0.00  0.00    +0.000 C 
ENDBRANCH   6  11
BRANCH   1  13
ATOM     13  C   UNL     1       3.958   6.705  17.839  0.00  0.00    +0.000 C 
BRANCH  13  16
ATOM     14  C   UNL     1       2.195   8.327  18.484  0.00  0.00    +0.000 C 
ATOM     15  O   UNL     1       2.253   8.964  17.442  0.00  0.00    +0.000 OA
ATOM     16  N   UNL     1       2.947   7.207  18.758  0.00  0.00    +0.000 N 
ATOM     17  H   UNL     1       3.048   6.945  19.723  0.00  0.00    +0.000 HD
BRANCH  14  19
ATOM     18  C   UNL     1       1.457   7.777  20.848  0.00  0.00    +0.000 C 
ATOM     19  C   UNL     1       1.261   8.667  19.634  0.00  0.00    +0.000 C 
ENDBRANCH  14  19
ENDBRANCH  13  16
ENDBRANCH   1  13
BRANCH  10  20
ATOM     20  C   UNL     1       4.647   3.260  18.446  0.00  0.00    +0.000 C 
BRANCH  20  21
ATOM     21  C   UNL     1       3.258   3.353  19.047  0.00  0.00    +0.000 A 
ATOM     22  C   UNL     1       2.118   3.277  18.229  0.00  0.00    +0.000 A 
ATOM     23  C   UNL     1       0.836   3.390  18.774  0.00  0.00    +0.000 A 
ATOM     24  C   UNL     1       0.676   3.571  20.145  0.00  0.00    +0.000 A 
ATOM     25  C   UNL     1       1.795   3.614  20.973  0.00  0.00    +0.000 A 
ATOM     26  C   UNL     1       3.075   3.488  20.429  0.00  0.00    +0.000 A 
ENDBRANCH  20  21
ENDBRANCH  10  20
TORSDOF 6
ENDMDL
