MODEL 1
REMARK VINA RESULT:      -6.6      0.000      0.000
REMARK  Name = 
REMARK  18 active torsions:
REMARK  status: ('A' for Active; 'I' for Inactive)
REMARK    1  A    between atoms: C_1  and  C_2
REMARK    2  A    between atoms: C_2  and  C_3
REMARK    3  A    between atoms: C_3  and  C_4
REMARK    4  A    between atoms: C_5  and  C_6
REMARK    5  A    between atoms: C_6  and  C_7
REMARK    6  A    between atoms: C_7  and  C_8
REMARK    7  A    between atoms: C_8  and  C_9
REMARK    8  A    between atoms: C_10  and  C_11
REMARK    9  A    between atoms: C_11  and  C_12
REMARK   10  A    between atoms: C_12  and  C_13
REMARK   11  A    between atoms: C_13  and  C_14
REMARK   12  A    between atoms: C_13  and  O_15
REMARK   13  A    between atoms: O_15  and  C_16
REMARK   14  A    between atoms: C_16  and  O_18
REMARK   15  A    between atoms: O_18  and  C_19
REMARK   16  A    between atoms: C_19  and  C_20
REMARK   17  A    between atoms: C_20  and  C_21
REMARK   18  A    between atoms: C_20  and  C_22
REMARK                            x       y       z     vdW  Elec       q    Type
REMARK                         _______ _______ _______ _____ _____    ______ ____
ROOT
ATOM      1  C   UNL     1       6.066   4.415  19.183  0.00  0.00    +0.000 C 
ENDROOT
BRANCH   1   4
ATOM      2  C   UNL     1       3.877   5.502  18.610  0.00  0.00    +0.000 C 
ATOM      3  C   UNL     1       3.684   4.500  17.494  0.00  0.00    +0.000 C 
ATOM      4  C   UNL     1       4.978   5.435  19.391  0.00  0.00    +0.000 C 
BRANCH   2   5
ATOM      5  C   UNL     1       2.855   6.608  18.833  0.00  0.00    +0.000 C 
BRANCH   5   6
ATOM      6  C   UNL     1       1.662   6.207  19.702  0.00  0.00    +0.000 C 
BRANCH   6   9
ATOM      7  C   UNL     1       1.538   3.892  20.653  0.00  0.00    +0.000 C 
ATOM      8  C   UNL     1       1.906   2.917  21.750  0.00  0.00    +0.000 C 
ATOM      9  C   UNL     1       1.960   5.149  20.735  0.00  0.00    +0.000 C 
BRANCH   7  11
ATOM     10  C   UNL     1       1.129   2.289  18.659  0.00  0.00    +0.000 C 
ATOM     11  C   UNL     1       0.616   3.428  19.529  0.00  0.00    +0.000 C 
ENDBRANCH   7  11
ENDBRANCH   6   9
ENDBRANCH   5   6
ENDBRANCH   2   5
ENDBRANCH   1   4
BRANCH   1  12
ATOM     12  C   UNL     1       7.323   4.925  18.478  0.00  0.00    +0.000 C 
BRANCH  12  13
ATOM     13  C   UNL     1       7.031   5.478  17.076  0.00  0.00    +0.000 C 
ATOM     14  C   UNL     1       7.402   6.962  16.966  0.00  0.00    +0.000 C 
BRANCH  13  15
ATOM     15  O   UNL     1       7.792   4.740  16.100  0.00  0.00    +0.000 OA
BRANCH  15  16
ATOM     16  C   UNL     1       7.331   4.819  14.822  0.00  0.00    +0.000 C 
ATOM     17  O   UNL     1       7.715   5.614  13.977  0.00  0.00    +0.000 OA
BRANCH  16  18
ATOM     18  O   UNL     1       6.315   3.933  14.674  0.00  0.00    +0.000 OA
BRANCH  18  19
ATOM     19  C   UNL     1       5.462   4.193  13.549  0.00  0.00    +0.000 C 
BRANCH  19  20
ATOM     20  C   UNL     1       5.609   3.135  12.453  0.00  0.00    +0.000 C 
ATOM     21  C   UNL     1       4.402   3.123  11.517  0.00  0.00    +0.000 C 
ATOM     22  C   UNL     1       6.891   3.377  11.654  0.00  0.00    +0.000 C 
ENDBRANCH  19  20
ENDBRANCH  18  19
ENDBRANCH  16  18
ENDBRANCH  15  16
ENDBRANCH  13  15
ENDBRANCH  12  13
ENDBRANCH   1  12
TORSDOF 12
ENDMDL
MODEL 2
REMARK VINA RESULT:      -6.3      1.355      2.415
REMARK  Name = 
REMARK  18 active torsions:
REMARK  status: ('A' for Active; 'I' for Inactive)
REMARK    1  A    between atoms: C_1  and  C_2
REMARK    2  A    between atoms: C_2  and  C_3
REMARK    3  A    between atoms: C_3  and  C_4
REMARK    4  A    between atoms: C_5  and  C_6
REMARK    5  A    between atoms: C_6  and  C_7
REMARK    6  A    between atoms: C_7  and  C_8
REMARK    7  A    between atoms: C_8  and  C_9
REMARK    8  A    between atoms: C_10  and  C_11
REMARK    9  A    between atoms: C_11  and  C_12
REMARK   10  A    between atoms: C_12  and  C_13
REMARK   11  A    between atoms: C_13  and  C_14
REMARK   12  A    between atoms: C_13  and  O_15
REMARK   13  A    between atoms: O_15  and  C_16
REMARK   14  A    between atoms: C_16  and  O_18
REMARK   15  A    between atoms: O_18  and  C_19
REMARK   16  A    between atoms: C_19  and  C_20
REMARK   17  A    between atoms: C_20  and  C_21
REMARK   18  A    between atoms: C_20  and  C_22
REMARK                            x       y       z     vdW  Elec       q    Type
REMARK                         _______ _______ _______ _____ _____    ______ ____
ROOT
ATOM      1  C   UNL     1       4.526   6.724  17.519  0.00  0.00    +0.000 C 
ENDROOT
BRANCH   1   4
ATOM      2  C   UNL     1       2.540   7.288  18.948  0.00  0.00    +0.000 C 
ATOM      3  C   UNL     1       2.058   8.244  17.881  0.00  0.00    +0.000 C 
ATOM      4  C   UNL     1       3.677   6.581  18.755  0.00  0.00    +0.000 C 
BRANCH   2   5
ATOM      5  C   UNL     1       1.774   7.145  20.255  0.00  0.00    +0.000 C 
BRANCH   5   6
ATOM      6  C   UNL     1       1.656   5.710  20.772  0.00  0.00    +0.000 C 
BRANCH   6   9
ATOM      7  C   UNL     1       1.302   3.429  19.798  0.00  0.00    +0.000 C 
ATOM      8  C   UNL     1       0.631   2.546  18.768  0.00  0.00    +0.000 C 
ATOM      9  C   UNL     1       1.053   4.734  19.793  0.00  0.00    +0.000 C 
BRANCH   7  11
ATOM     10  C   UNL     1       1.774   2.320  22.091  0.00  0.00    +0.000 C 
ATOM     11  C   UNL     1       2.315   2.810  20.755  0.00  0.00    +0.000 C 
ENDBRANCH   7  11
ENDBRANCH   6   9
ENDBRANCH   5   6
ENDBRANCH   2   5
ENDBRANCH   1   4
BRANCH   1  12
ATOM     12  C   UNL     1       4.453   5.559  16.531  0.00  0.00    +0.000 C 
BRANCH  12  13
ATOM     13  C   UNL     1       5.096   4.278  17.081  0.00  0.00    +0.000 C 
ATOM     14  C   UNL     1       4.040   3.296  17.603  0.00  0.00    +0.000 C 
BRANCH  13  15
ATOM     15  O   UNL     1       5.849   3.631  16.036  0.00  0.00    +0.000 OA
BRANCH  15  16
ATOM     16  C   UNL     1       6.975   4.285  15.641  0.00  0.00    +0.000 C 
ATOM     17  O   UNL     1       7.856   4.692  16.385  0.00  0.00    +0.000 OA
BRANCH  16  18
ATOM     18  O   UNL     1       6.912   4.485  14.301  0.00  0.00    +0.000 OA
BRANCH  18  19
ATOM     19  C   UNL     1       5.716   3.986  13.684  0.00  0.00    +0.000 C 
BRANCH  19  20
ATOM     20  C   UNL     1       6.003   3.254  12.371  0.00  0.00    +0.000 C 
ATOM     21  C   UNL     1       4.746   3.122  11.514  0.00  0.00    +0.000 C 
ATOM     22  C   UNL     1       7.097   3.981  11.588  0.00  0.00    +0.000 C 
ENDBRANCH  19  20
ENDBRANCH  18  19
ENDBRANCH  16  18
ENDBRANCH  15  16
ENDBRANCH  13  15
ENDBRANCH  12  13
ENDBRANCH   1  12
TORSDOF 12
ENDMDL
MODEL 3
REMARK VINA RESULT:      -6.3      2.684      7.421
REMARK  Name = 
REMARK  18 active torsions:
REMARK  status: ('A' for Active; 'I' for Inactive)
REMARK    1  A    between atoms: C_1  and  C_2
REMARK    2  A    between atoms: C_2  and  C_3
REMARK    3  A    between atoms: C_3  and  C_4
REMARK    4  A    between atoms: C_5  and  C_6
REMARK    5  A    between atoms: C_6  and  C_7
REMARK    6  A    between atoms: C_7  and  C_8
REMARK    7  A    between atoms: C_8  and  C_9
REMARK    8  A    between atoms: C_10  and  C_11
REMARK    9  A    between atoms: C_11  and  C_12
REMARK   10  A    between atoms: C_12  and  C_13
REMARK   11  A    between atoms: C_13  and  C_14
REMARK   12  A    between atoms: C_13  and  O_15
REMARK   13  A    between atoms: O_15  and  C_16
REMARK   14  A    between atoms: C_16  and  O_18
REMARK   15  A    between atoms: O_18  and  C_19
REMARK   16  A    between atoms: C_19  and  C_20
REMARK   17  A    between atoms: C_20  and  C_21
REMARK   18  A    between atoms: C_20  and  C_22
REMARK                            x       y       z     vdW  Elec       q    Type
REMARK                         _______ _______ _______ _____ _____    ______ ____
ROOT
ATOM      1  C   UNL     1       3.983   4.199  16.599  0.00  0.00    +0.000 C 
ENDROOT
BRANCH   1   4
ATOM      2  C   UNL     1       5.883   5.000  15.168  0.00  0.00    +0.000 C 
ATOM      3  C   UNL     1       5.297   6.393  15.188  0.00  0.00    +0.000 C 
ATOM      4  C   UNL     1       5.268   4.001  15.840  0.00  0.00    +0.000 C 
BRANCH   2   5
ATOM      5  C   UNL     1       7.141   4.708  14.361  0.00  0.00    +0.000 C 
BRANCH   5   6
ATOM      6  C   UNL     1       6.936   4.695  12.845  0.00  0.00    +0.000 C 
BRANCH   6   9
ATOM      7  C   UNL     1       5.806   2.739  11.761  0.00  0.00    +0.000 C 
ATOM      8  C   UNL     1       5.903   1.358  11.151  0.00  0.00    +0.000 C 
ATOM      9  C   UNL     1       6.908   3.322  12.223  0.00  0.00    +0.000 C 
BRANCH   7  11
ATOM     10  C   UNL     1       3.507   3.296  10.706  0.00  0.00    +0.000 C 
ATOM     11  C   UNL     1       4.434   3.388  11.910  0.00  0.00    +0.000 C 
ENDBRANCH   7  11
ENDBRANCH   6   9
ENDBRANCH   5   6
ENDBRANCH   2   5
ENDBRANCH   1   4
BRANCH   1  12
ATOM     12  C   UNL     1       4.001   5.311  17.648  0.00  0.00    +0.000 C 
BRANCH  12  13
ATOM     13  C   UNL     1       4.497   4.824  19.017  0.00  0.00    +0.000 C 
ATOM     14  C   UNL     1       5.981   5.147  19.226  0.00  0.00    +0.000 C 
BRANCH  13  15
ATOM     15  O   UNL     1       3.735   5.464  20.060  0.00  0.00    +0.000 OA
BRANCH  15  16
ATOM     16  C   UNL     1       2.519   5.942  19.680  0.00  0.00    +0.000 C 
ATOM     17  O   UNL     1       2.171   7.113  19.725  0.00  0.00    +0.000 OA
BRANCH  16  18
ATOM     18  O   UNL     1       1.732   4.893  19.331  0.00  0.00    +0.000 OA
BRANCH  18  19
ATOM     19  C   UNL     1       0.994   4.319  20.420  0.00  0.00    +0.000 C 
BRANCH  19  20
ATOM     20  C   UNL     1       1.282   2.826  20.591  0.00  0.00    +0.000 C 
ATOM     21  C   UNL     1       1.807   2.201  19.300  0.00  0.00    +0.000 C 
ATOM     22  C   UNL     1       2.284   2.607  21.726  0.00  0.00    +0.000 C 
ENDBRANCH  19  20
ENDBRANCH  18  19
ENDBRANCH  16  18
ENDBRANCH  15  16
ENDBRANCH  13  15
ENDBRANCH  12  13
ENDBRANCH   1  12
TORSDOF 12
ENDMDL
MODEL 4
REMARK VINA RESULT:      -6.3      3.042      7.040
REMARK  Name = 
REMARK  18 active torsions:
REMARK  status: ('A' for Active; 'I' for Inactive)
REMARK    1  A    between atoms: C_1  and  C_2
REMARK    2  A    between atoms: C_2  and  C_3
REMARK    3  A    between atoms: C_3  and  C_4
REMARK    4  A    between atoms: C_5  and  C_6
REMARK    5  A    between atoms: C_6  and  C_7
REMARK    6  A    between atoms: C_7  and  C_8
REMARK    7  A    between atoms: C_8  and  C_9
REMARK    8  A    between atoms: C_10  and  C_11
REMARK    9  A    between atoms: C_11  and  C_12
REMARK   10  A    between atoms: C_12  and  C_13
REMARK   11  A    between atoms: C_13  and  C_14
REMARK   12  A    between atoms: C_13  and  O_15
REMARK   13  A    between atoms: O_15  and  C_16
REMARK   14  A    between atoms: C_16  and  O_18
REMARK   15  A    between atoms: O_18  and  C_19
REMARK   16  A    between atoms: C_19  and  C_20
REMARK   17  A    between atoms: C_20  and  C_21
REMARK   18  A    between atoms: C_20  and  C_22
REMARK                            x       y       z     vdW  Elec       q    Type
REMARK                         _______ _______ _______ _____ _____    ______ ____
ROOT
ATOM      1  C   UNL     1       3.549   6.756  17.858  0.00  0.00    +0.000 C 
ENDROOT
BRANCH   1   4
ATOM      2  C   UNL     1       5.468   5.160  17.591  0.00  0.00    +0.000 C 
ATOM      3  C   UNL     1       5.960   5.538  18.970  0.00  0.00    +0.000 C 
ATOM      4  C   UNL     1       4.341   5.724  17.101  0.00  0.00    +0.000 C 
BRANCH   2   5
ATOM      5  C   UNL     1       6.258   4.179  16.737  0.00  0.00    +0.000 C 
BRANCH   5   6
ATOM      6  C   UNL     1       5.710   3.983  15.322  0.00  0.00    +0.000 C 
BRANCH   6   9
ATOM      7  C   UNL     1       6.509   4.168  12.954  0.00  0.00    +0.000 C 
ATOM      8  C   UNL     1       7.427   4.814  11.940  0.00  0.00    +0.000 C 
ATOM      9  C   UNL     1       6.577   4.549  14.226  0.00  0.00    +0.000 C 
BRANCH   7  11
ATOM     10  C   UNL     1       4.459   3.409  11.564  0.00  0.00    +0.000 C 
ATOM     11  C   UNL     1       5.594   3.032  12.506  0.00  0.00    +0.000 C 
ENDBRANCH   7  11
ENDBRANCH   6   9
ENDBRANCH   5   6
ENDBRANCH   2   5
ENDBRANCH   1   4
BRANCH   1  12
ATOM     12  C   UNL     1       2.273   6.246  18.530  0.00  0.00    +0.000 C 
BRANCH  12  13
ATOM     13  C   UNL     1       2.346   6.313  20.062  0.00  0.00    +0.000 C 
ATOM     14  C   UNL     1       1.798   7.643  20.594  0.00  0.00    +0.000 C 
BRANCH  13  15
ATOM     15  O   UNL     1       1.571   5.238  20.627  0.00  0.00    +0.000 OA
BRANCH  15  16
ATOM     16  C   UNL     1       2.295   4.189  21.105  0.00  0.00    +0.000 C 
ATOM     17  O   UNL     1       2.087   3.605  22.159  0.00  0.00    +0.000 OA
BRANCH  16  18
ATOM     18  O   UNL     1       3.333   3.961  20.263  0.00  0.00    +0.000 OA
BRANCH  18  19
ATOM     19  C   UNL     1       3.251   2.722  19.543  0.00  0.00    +0.000 C 
BRANCH  19  20
ATOM     20  C   UNL     1       2.289   2.803  18.356  0.00  0.00    +0.000 C 
ATOM     21  C   UNL     1       2.889   2.173  17.101  0.00  0.00    +0.000 C 
ATOM     22  C   UNL     1       0.963   2.122  18.702  0.00  0.00    +0.000 C 
ENDBRANCH  19  20
ENDBRANCH  18  19
ENDBRANCH  16  18
ENDBRANCH  15  16
ENDBRANCH  13  15
ENDBRANCH  12  13
ENDBRANCH   1  12
TORSDOF 12
ENDMDL
MODEL 5
REMARK VINA RESULT:      -6.2      1.260      2.135
REMARK  Name = 
REMARK  18 active torsions:
REMARK  status: ('A' for Active; 'I' for Inactive)
REMARK    1  A    between atoms: C_1  and  C_2
REMARK    2  A    between atoms: C_2  and  C_3
REMARK    3  A    between atoms: C_3  and  C_4
REMARK    4  A    between atoms: C_5  and  C_6
REMARK    5  A    between atoms: C_6  and  C_7
REMARK    6  A    between atoms: C_7  and  C_8
REMARK    7  A    between atoms: C_8  and  C_9
REMARK    8  A    between atoms: C_10  and  C_11
REMARK    9  A    between atoms: C_11  and  C_12
REMARK   10  A    between atoms: C_12  and  C_13
REMARK   11  A    between atoms: C_13  and  C_14
REMARK   12  A    between atoms: C_13  and  O_15
REMARK   13  A    between atoms: O_15  and  C_16
REMARK   14  A    between atoms: C_16  and  O_18
REMARK   15  A    between atoms: O_18  and  C_19
REMARK   16  A    between atoms: C_19  and  C_20
REMARK   17  A    between atoms: C_20  and  C_21
REMARK   18  A    between atoms: C_20  and  C_22
REMARK                            x       y       z     vdW  Elec       q    Type
REMARK                         _______ _______ _______ _____ _____    ______ ____
ROOT
ATOM      1  C   UNL     1       5.885   4.342  18.881  0.00  0.00    +0.000 C 
ENDROOT
BRANCH   1   4
ATOM      2  C   UNL     1       4.034   2.677  18.564  0.00  0.00    +0.000 C 
ATOM      3  C   UNL     1       4.443   1.993  19.849  0.00  0.00    +0.000 C 
ATOM      4  C   UNL     1       4.704   3.772  18.141  0.00  0.00    +0.000 C 
BRANCH   2   5
ATOM      5  C   UNL     1       2.896   2.114  17.724  0.00  0.00    +0.000 C 
BRANCH   5   6
ATOM      6  C   UNL     1       1.531   2.752  17.991  0.00  0.00    +0.000 C 
BRANCH   6   9
ATOM      7  C   UNL     1       1.319   4.305  19.947  0.00  0.00    +0.000 C 
ATOM      8  C   UNL     1       1.413   5.707  20.508  0.00  0.00    +0.000 C 
ATOM      9  C   UNL     1       1.586   4.102  18.661  0.00  0.00    +0.000 C 
BRANCH   7  11
ATOM     10  C   UNL     1       1.767   2.758  21.976  0.00  0.00    +0.000 C 
ATOM     11  C   UNL     1       0.831   3.177  20.851  0.00  0.00    +0.000 C 
ENDBRANCH   7  11
ENDBRANCH   6   9
ENDBRANCH   5   6
ENDBRANCH   2   5
ENDBRANCH   1   4
BRANCH   1  12
ATOM     12  C   UNL     1       6.946   5.016  18.009  0.00  0.00    +0.000 C 
BRANCH  12  13
ATOM     13  C   UNL     1       6.444   6.316  17.367  0.00  0.00    +0.000 C 
ATOM     14  C   UNL     1       7.561   7.361  17.261  0.00  0.00    +0.000 C 
BRANCH  13  15
ATOM     15  O   UNL     1       5.947   6.038  16.043  0.00  0.00    +0.000 OA
BRANCH  15  16
ATOM     16  C   UNL     1       6.735   5.227  15.286  0.00  0.00    +0.000 C 
ATOM     17  O   UNL     1       7.859   5.498  14.890  0.00  0.00    +0.000 OA
BRANCH  16  18
ATOM     18  O   UNL     1       6.031   4.111  14.972  0.00  0.00    +0.000 OA
BRANCH  18  19
ATOM     19  C   UNL     1       5.289   4.204  13.747  0.00  0.00    +0.000 C 
BRANCH  19  20
ATOM     20  C   UNL     1       5.890   3.338  12.638  0.00  0.00    +0.000 C 
ATOM     21  C   UNL     1       4.843   2.955  11.594  0.00  0.00    +0.000 C 
ATOM     22  C   UNL     1       7.055   4.070  11.968  0.00  0.00    +0.000 C 
ENDBRANCH  19  20
ENDBRANCH  18  19
ENDBRANCH  16  18
ENDBRANCH  15  16
ENDBRANCH  13  15
ENDBRANCH  12  13
ENDBRANCH   1  12
TORSDOF 12
ENDMDL
MODEL 6
REMARK VINA RESULT:      -6.2      1.431      2.107
REMARK  Name = 
REMARK  18 active torsions:
REMARK  status: ('A' for Active; 'I' for Inactive)
REMARK    1  A    between atoms: C_1  and  C_2
REMARK    2  A    between atoms: C_2  and  C_3
REMARK    3  A    between atoms: C_3  and  C_4
REMARK    4  A    between atoms: C_5  and  C_6
REMARK    5  A    between atoms: C_6  and  C_7
REMARK    6  A    between atoms: C_7  and  C_8
REMARK    7  A    between atoms: C_8  and  C_9
REMARK    8  A    between atoms: C_10  and  C_11
REMARK    9  A    between atoms: C_11  and  C_12
REMARK   10  A    between atoms: C_12  and  C_13
REMARK   11  A    between atoms: C_13  and  C_14
REMARK   12  A    between atoms: C_13  and  O_15
REMARK   13  A    between atoms: O_15  and  C_16
REMARK   14  A    between atoms: C_16  and  O_18
REMARK   15  A    between atoms: O_18  and  C_19
REMARK   16  A    between atoms: C_19  and  C_20
REMARK   17  A    between atoms: C_20  and  C_21
REMARK   18  A    between atoms: C_20  and  C_22
REMARK                            x       y       z     vdW  Elec       q    Type
REMARK                         _______ _______ _______ _____ _____    ______ ____
ROOT
ATOM      1  C   UNL     1       4.454   6.644  17.552  0.00  0.00    +0.000 C 
ENDROOT
BRANCH   1   4
ATOM      2  C   UNL     1       2.518   7.045  19.099  0.00  0.00    +0.000 C 
ATOM      3  C   UNL     1       2.068   8.191  18.222  0.00  0.00    +0.000 C 
ATOM      4  C   UNL     1       3.616   6.331  18.763  0.00  0.00    +0.000 C 
BRANCH   2   5
ATOM      5  C   UNL     1       1.763   6.716  20.379  0.00  0.00    +0.000 C 
BRANCH   5   6
ATOM      6  C   UNL     1       1.919   5.271  20.857  0.00  0.00    +0.000 C 
BRANCH   6   9
ATOM      7  C   UNL     1       1.556   3.100  19.660  0.00  0.00    +0.000 C 
ATOM      8  C   UNL     1       0.625   2.166  18.918  0.00  0.00    +0.000 C 
ATOM      9  C   UNL     1       1.089   4.263  20.102  0.00  0.00    +0.000 C 
BRANCH   7  11
ATOM     10  C   UNL     1       3.793   2.494  18.503  0.00  0.00    +0.000 C 
ATOM     11  C   UNL     1       3.027   2.721  19.799  0.00  0.00    +0.000 C 
ENDBRANCH   7  11
ENDBRANCH   6   9
ENDBRANCH   5   6
ENDBRANCH   2   5
ENDBRANCH   1   4
BRANCH   1  12
ATOM     12  C   UNL     1       4.838   5.442  16.687  0.00  0.00    +0.000 C 
BRANCH  12  13
ATOM     13  C   UNL     1       6.222   5.598  16.042  0.00  0.00    +0.000 C 
ATOM     14  C   UNL     1       7.158   4.446  16.429  0.00  0.00    +0.000 C 
BRANCH  13  15
ATOM     15  O   UNL     1       6.084   5.615  14.607  0.00  0.00    +0.000 OA
BRANCH  15  16
ATOM     16  C   UNL     1       7.114   5.052  13.918  0.00  0.00    +0.000 C 
ATOM     17  O   UNL     1       8.184   5.591  13.674  0.00  0.00    +0.000 OA
BRANCH  16  18
ATOM     18  O   UNL     1       6.720   3.833  13.472  0.00  0.00    +0.000 OA
BRANCH  18  19
ATOM     19  C   UNL     1       5.313   3.722  13.216  0.00  0.00    +0.000 C 
BRANCH  19  20
ATOM     20  C   UNL     1       5.009   2.805  12.030  0.00  0.00    +0.000 C 
ATOM     21  C   UNL     1       4.182   3.518  10.963  0.00  0.00    +0.000 C 
ATOM     22  C   UNL     1       6.310   2.280  11.421  0.00  0.00    +0.000 C 
ENDBRANCH  19  20
ENDBRANCH  18  19
ENDBRANCH  16  18
ENDBRANCH  15  16
ENDBRANCH  13  15
ENDBRANCH  12  13
ENDBRANCH   1  12
TORSDOF 12
ENDMDL
MODEL 7
REMARK VINA RESULT:      -6.2      2.634      7.328
REMARK  Name = 
REMARK  18 active torsions:
REMARK  status: ('A' for Active; 'I' for Inactive)
REMARK    1  A    between atoms: C_1  and  C_2
REMARK    2  A    between atoms: C_2  and  C_3
REMARK    3  A    between atoms: C_3  and  C_4
REMARK    4  A    between atoms: C_5  and  C_6
REMARK    5  A    between atoms: C_6  and  C_7
REMARK    6  A    between atoms: C_7  and  C_8
REMARK    7  A    between atoms: C_8  and  C_9
REMARK    8  A    between atoms: C_10  and  C_11
REMARK    9  A    between atoms: C_11  and  C_12
REMARK   10  A    between atoms: C_12  and  C_13
REMARK   11  A    between atoms: C_13  and  C_14
REMARK   12  A    between atoms: C_13  and  O_15
REMARK   13  A    between atoms: O_15  and  C_16
REMARK   14  A    between atoms: C_16  and  O_18
REMARK   15  A    between atoms: O_18  and  C_19
REMARK   16  A    between atoms: C_19  and  C_20
REMARK   17  A    between atoms: C_20  and  C_21
REMARK   18  A    between atoms: C_20  and  C_22
REMARK                            x       y       z     vdW  Elec       q    Type
REMARK                         _______ _______ _______ _____ _____    ______ ____
ROOT
ATOM      1  C   UNL     1       4.957   6.231  17.745  0.00  0.00    +0.000 C 
ENDROOT
BRANCH   1   4
ATOM      2  C   UNL     1       5.921   5.096  15.724  0.00  0.00    +0.000 C 
ATOM      3  C   UNL     1       5.372   3.776  16.217  0.00  0.00    +0.000 C 
ATOM      4  C   UNL     1       5.705   6.224  16.438  0.00  0.00    +0.000 C 
BRANCH   2   5
ATOM      5  C   UNL     1       6.750   5.155  14.449  0.00  0.00    +0.000 C 
BRANCH   5   6
ATOM      6  C   UNL     1       6.668   3.900  13.578  0.00  0.00    +0.000 C 
BRANCH   6   9
ATOM      7  C   UNL     1       5.255   2.911  11.761  0.00  0.00    +0.000 C 
ATOM      8  C   UNL     1       3.949   2.892  10.996  0.00  0.00    +0.000 C 
ATOM      9  C   UNL     1       5.416   3.790  12.744  0.00  0.00    +0.000 C 
BRANCH   7  11
ATOM     10  C   UNL     1       6.009   0.526  11.090  0.00  0.00    +0.000 C 
ATOM     11  C   UNL     1       6.383   1.983  11.322  0.00  0.00    +0.000 C 
ENDBRANCH   7  11
ENDBRANCH   6   9
ENDBRANCH   5   6
ENDBRANCH   2   5
ENDBRANCH   1   4
BRANCH   1  12
ATOM     12  C   UNL     1       3.450   6.467  17.641  0.00  0.00    +0.000 C 
BRANCH  12  13
ATOM     13  C   UNL     1       2.662   5.749  18.746  0.00  0.00    +0.000 C 
ATOM     14  C   UNL     1       2.273   6.710  19.876  0.00  0.00    +0.000 C 
BRANCH  13  15
ATOM     15  O   UNL     1       1.460   5.183  18.189  0.00  0.00    +0.000 OA
BRANCH  15  16
ATOM     16  C   UNL     1       1.558   3.885  17.794  0.00  0.00    +0.000 C 
ATOM     17  O   UNL     1       2.085   3.495  16.761  0.00  0.00    +0.000 OA
BRANCH  16  18
ATOM     18  O   UNL     1       0.898   3.108  18.689  0.00  0.00    +0.000 OA
BRANCH  18  19
ATOM     19  C   UNL     1       1.731   2.174  19.390  0.00  0.00    +0.000 C 
BRANCH  19  20
ATOM     20  C   UNL     1       2.731   2.869  20.317  0.00  0.00    +0.000 C 
ATOM     21  C   UNL     1       2.334   2.723  21.784  0.00  0.00    +0.000 C 
ATOM     22  C   UNL     1       4.136   2.306  20.095  0.00  0.00    +0.000 C 
ENDBRANCH  19  20
ENDBRANCH  18  19
ENDBRANCH  16  18
ENDBRANCH  15  16
ENDBRANCH  13  15
ENDBRANCH  12  13
ENDBRANCH   1  12
TORSDOF 12
ENDMDL
MODEL 8
REMARK VINA RESULT:      -6.2      3.878      7.976
REMARK  Name = 
REMARK  18 active torsions:
REMARK  status: ('A' for Active; 'I' for Inactive)
REMARK    1  A    between atoms: C_1  and  C_2
REMARK    2  A    between atoms: C_2  and  C_3
REMARK    3  A    between atoms: C_3  and  C_4
REMARK    4  A    between atoms: C_5  and  C_6
REMARK    5  A    between atoms: C_6  and  C_7
REMARK    6  A    between atoms: C_7  and  C_8
REMARK    7  A    between atoms: C_8  and  C_9
REMARK    8  A    between atoms: C_10  and  C_11
REMARK    9  A    between atoms: C_11  and  C_12
REMARK   10  A    between atoms: C_12  and  C_13
REMARK   11  A    between atoms: C_13  and  C_14
REMARK   12  A    between atoms: C_13  and  O_15
REMARK   13  A    between atoms: O_15  and  C_16
REMARK   14  A    between atoms: C_16  and  O_18
REMARK   15  A    between atoms: O_18  and  C_19
REMARK   16  A    between atoms: C_19  and  C_20
REMARK   17  A    between atoms: C_20  and  C_21
REMARK   18  A    between atoms: C_20  and  C_22
REMARK                            x       y       z     vdW  Elec       q    Type
REMARK                         _______ _______ _______ _____ _____    ______ ____
ROOT
ATOM      1  C   UNL     1       7.317   5.477  18.277  0.00  0.00    +0.000 C 
ENDROOT
BRANCH   1   4
ATOM      2  C   UNL     1       7.406   7.933  17.762  0.00  0.00    +0.000 C 
ATOM      3  C   UNL     1       6.059   7.827  17.081  0.00  0.00    +0.000 C 
ATOM      4  C   UNL     1       7.964   6.836  18.323  0.00  0.00    +0.000 C 
BRANCH   2   5
ATOM      5  C   UNL     1       8.153   9.258  17.783  0.00  0.00    +0.000 C 
BRANCH   5   6
ATOM      6  C   UNL     1       9.171   9.397  18.916  0.00  0.00    +0.000 C 
BRANCH   6   9
ATOM      7  C   UNL     1       9.932  11.739  19.379  0.00  0.00    +0.000 C 
ATOM      8  C   UNL     1       9.791  13.017  20.176  0.00  0.00    +0.000 C 
ATOM      9  C   UNL     1       9.127  10.716  19.646  0.00  0.00    +0.000 C 
BRANCH   7  11
ATOM     10  C   UNL     1      10.995  12.590  17.175  0.00  0.00    +0.000 C 
ATOM     11  C   UNL     1      11.056  11.628  18.353  0.00  0.00    +0.000 C 
ENDBRANCH   7  11
ENDBRANCH   6   9
ENDBRANCH   5   6
ENDBRANCH   2   5
ENDBRANCH   1   4
BRANCH   1  12
ATOM     12  C   UNL     1       6.369   5.159  19.434  0.00  0.00    +0.000 C 
BRANCH  12  13
ATOM     13  C   UNL     1       5.153   4.333  18.991  0.00  0.00    +0.000 C 
ATOM     14  C   UNL     1       5.066   4.234  17.463  0.00  0.00    +0.000 C 
BRANCH  13  15
ATOM     15  O   UNL     1       5.254   3.002  19.533  0.00  0.00    +0.000 OA
BRANCH  15  16
ATOM     16  C   UNL     1       4.106   2.271  19.495  0.00  0.00    +0.000 C 
ATOM     17  O   UNL     1       3.862   1.373  18.703  0.00  0.00    +0.000 OA
BRANCH  16  18
ATOM     18  O   UNL     1       3.248   2.766  20.422  0.00  0.00    +0.000 OA
BRANCH  18  19
ATOM     19  C   UNL     1       1.861   2.573  20.107  0.00  0.00    +0.000 C 
BRANCH  19  20
ATOM     20  C   UNL     1       1.180   3.871  19.667  0.00  0.00    +0.000 C 
ATOM     21  C   UNL     1       1.699   5.074  20.451  0.00  0.00    +0.000 C 
ATOM     22  C   UNL     1       1.386   4.094  18.168  0.00  0.00    +0.000 C 
ENDBRANCH  19  20
ENDBRANCH  18  19
ENDBRANCH  16  18
ENDBRANCH  15  16
ENDBRANCH  13  15
ENDBRANCH  12  13
ENDBRANCH   1  12
TORSDOF 12
ENDMDL
MODEL 9
REMARK VINA RESULT:      -6.1      2.313      7.356
REMARK  Name = 
REMARK  18 active torsions:
REMARK  status: ('A' for Active; 'I' for Inactive)
REMARK    1  A    between atoms: C_1  and  C_2
REMARK    2  A    between atoms: C_2  and  C_3
REMARK    3  A    between atoms: C_3  and  C_4
REMARK    4  A    between atoms: C_5  and  C_6
REMARK    5  A    between atoms: C_6  and  C_7
REMARK    6  A    between atoms: C_7  and  C_8
REMARK    7  A    between atoms: C_8  and  C_9
REMARK    8  A    between atoms: C_10  and  C_11
REMARK    9  A    between atoms: C_11  and  C_12
REMARK   10  A    between atoms: C_12  and  C_13
REMARK   11  A    between atoms: C_13  and  C_14
REMARK   12  A    between atoms: C_13  and  O_15
REMARK   13  A    between atoms: O_15  and  C_16
REMARK   14  A    between atoms: C_16  and  O_18
REMARK   15  A    between atoms: O_18  and  C_19
REMARK   16  A    between atoms: C_19  and  C_20
REMARK   17  A    between atoms: C_20  and  C_21
REMARK   18  A    between atoms: C_20  and  C_22
REMARK                            x       y       z     vdW  Elec       q    Type
REMARK                         _______ _______ _______ _____ _____    ______ ____
ROOT
ATOM      1  C   UNL     1       4.492   5.914  17.483  0.00  0.00    +0.000 C 
ENDROOT
BRANCH   1   4
ATOM      2  C   UNL     1       6.438   5.460  15.963  0.00  0.00    +0.000 C 
ATOM      3  C   UNL     1       7.306   5.194  17.172  0.00  0.00    +0.000 C 
ATOM      4  C   UNL     1       5.134   5.776  16.128  0.00  0.00    +0.000 C 
BRANCH   2   5
ATOM      5  C   UNL     1       7.035   5.411  14.564  0.00  0.00    +0.000 C 
BRANCH   5   6
ATOM      6  C   UNL     1       6.860   4.074  13.843  0.00  0.00    +0.000 C 
BRANCH   6   9
ATOM      7  C   UNL     1       5.436   3.061  12.047  0.00  0.00    +0.000 C 
ATOM      8  C   UNL     1       4.137   3.048  11.273  0.00  0.00    +0.000 C 
ATOM      9  C   UNL     1       5.612   3.967  13.003  0.00  0.00    +0.000 C 
BRANCH   7  11
ATOM     10  C   UNL     1       6.128   0.899  10.798  0.00  0.00    +0.000 C 
ATOM     11  C   UNL     1       6.545   2.092  11.648  0.00  0.00    +0.000 C 
ENDBRANCH   7  11
ENDBRANCH   6   9
ENDBRANCH   5   6
ENDBRANCH   2   5
ENDBRANCH   1   4
BRANCH   1  12
ATOM     12  C   UNL     1       3.645   4.724  17.935  0.00  0.00    +0.000 C 
BRANCH  12  13
ATOM     13  C   UNL     1       4.497   3.521  18.363  0.00  0.00    +0.000 C 
ATOM     14  C   UNL     1       4.843   3.578  19.856  0.00  0.00    +0.000 C 
BRANCH  13  15
ATOM     15  O   UNL     1       3.772   2.302  18.105  0.00  0.00    +0.000 OA
BRANCH  15  16
ATOM     16  C   UNL     1       2.442   2.458  17.864  0.00  0.00    +0.000 C 
ATOM     17  O   UNL     1       1.957   3.011  16.887  0.00  0.00    +0.000 OA
BRANCH  16  18
ATOM     18  O   UNL     1       1.750   1.978  18.928  0.00  0.00    +0.000 OA
BRANCH  18  19
ATOM     19  C   UNL     1       0.692   2.835  19.381  0.00  0.00    +0.000 C 
BRANCH  19  20
ATOM     20  C   UNL     1       0.986   3.447  20.752  0.00  0.00    +0.000 C 
ATOM     21  C   UNL     1       2.023   2.632  21.521  0.00  0.00    +0.000 C 
ATOM     22  C   UNL     1       1.466   4.891  20.594  0.00  0.00    +0.000 C 
ENDBRANCH  19  20
ENDBRANCH  18  19
ENDBRANCH  16  18
ENDBRANCH  15  16
ENDBRANCH  13  15
ENDBRANCH  12  13
ENDBRANCH   1  12
TORSDOF 12
ENDMDL
