MODEL 1
REMARK VINA RESULT:      -8.0      0.000      0.000
REMARK  Name = 
REMARK  3 active torsions:
REMARK  status: ('A' for Active; 'I' for Inactive)
REMARK    1  A    between atoms: C_1  and  N_2
REMARK    2  A    between atoms: C_4  and  C_5
REMARK    3  A    between atoms: C_12  and  C_13
REMARK                            x       y       z     vdW  Elec       q    Type
REMARK                         _______ _______ _______ _____ _____    ______ ____
ROOT
ATOM      1  C   UNL     1       6.629   5.043  18.175  0.00  0.00    +0.000 C 
ATOM      2  O   UNL     1       7.409   4.092  18.236  0.00  0.00    +0.000 OA
ATOM      3  N   UNL     1       5.236   4.888  18.374  0.00  0.00    +0.000 N 
ATOM      4  C   UNL     1       4.718   3.533  18.557  0.00  0.00    +0.000 C 
ATOM      5  C   UNL     1       3.661   3.149  17.523  0.00  0.00    +0.000 C 
ATOM      6  C   UNL     1       2.264   3.677  17.826  0.00  0.00    +0.000 C 
ATOM      7  C   UNL     1       2.157   5.196  17.845  0.00  0.00    +0.000 C 
ATOM      8  C   UNL     1       2.911   5.837  19.024  0.00  0.00    +0.000 C 
ATOM      9  C   UNL     1       4.401   6.050  18.712  0.00  0.00    +0.000 C 
ENDROOT
BRANCH   1  13
ATOM     10  C   UNL     1       8.853   9.477  18.516  0.00  0.00    +0.000 C 
ATOM     11  N   UNL     1       8.134   8.306  18.097  0.00  0.00    +0.000 N 
ATOM     12  C   UNL     1       8.013   7.111  18.732  0.00  0.00    +0.000 A 
ATOM     13  C   UNL     1       7.142   6.393  17.935  0.00  0.00    +0.000 A 
ATOM     14  N   UNL     1       6.846   7.153  16.825  0.00  0.00    +0.000 NA
ATOM     15  N   UNL     1       7.439   8.330  16.949  0.00  0.00    +0.000 NA
ENDBRANCH   1  13
BRANCH   8  16
ATOM     16  C   UNL     1       2.251   7.172  19.374  0.00  0.00    +0.000 A 
ATOM     17  C   UNL     1       1.716   7.375  20.654  0.00  0.00    +0.000 A 
ATOM     18  C   UNL     1       1.022   8.549  20.955  0.00  0.00    +0.000 A 
ATOM     19  C   UNL     1       0.863   9.538  19.986  0.00  0.00    +0.000 A 
ATOM     20  C   UNL     1       1.419   9.365  18.722  0.00  0.00    +0.000 A 
ATOM     21  C   UNL     1       2.114   8.194  18.418  0.00  0.00    +0.000 A 
ENDBRANCH   8  16
TORSDOF 2
ENDMDL
MODEL 2
REMARK VINA RESULT:      -8.0      0.222      1.075
REMARK  Name = 
REMARK  3 active torsions:
REMARK  status: ('A' for Active; 'I' for Inactive)
REMARK    1  A    between atoms: C_1  and  N_2
REMARK    2  A    between atoms: C_4  and  C_5
REMARK    3  A    between atoms: C_12  and  C_13
REMARK                            x       y       z     vdW  Elec       q    Type
REMARK                         _______ _______ _______ _____ _____    ______ ____
ROOT
ATOM      1  C   UNL     1       6.807   5.116  18.255  0.00  0.00    +0.000 C 
ATOM      2  O   UNL     1       7.635   4.211  18.369  0.00  0.00    +0.000 OA
ATOM      3  N   UNL     1       5.419   4.891  18.412  0.00  0.00    +0.000 N 
ATOM      4  C   UNL     1       4.968   3.515  18.618  0.00  0.00    +0.000 C 
ATOM      5  C   UNL     1       3.969   3.046  17.561  0.00  0.00    +0.000 C 
ATOM      6  C   UNL     1       2.536   3.504  17.802  0.00  0.00    +0.000 C 
ATOM      7  C   UNL     1       2.348   5.015  17.774  0.00  0.00    +0.000 C 
ATOM      8  C   UNL     1       3.025   5.728  18.958  0.00  0.00    +0.000 C 
ATOM      9  C   UNL     1       4.512   6.014  18.689  0.00  0.00    +0.000 C 
ENDROOT
BRANCH   1  13
ATOM     10  C   UNL     1       8.851   9.643  18.507  0.00  0.00    +0.000 C 
ATOM     11  N   UNL     1       8.169   8.439  18.116  0.00  0.00    +0.000 N 
ATOM     12  C   UNL     1       8.119   7.244  18.761  0.00  0.00    +0.000 A 
ATOM     13  C   UNL     1       7.255   6.485  17.993  0.00  0.00    +0.000 A 
ATOM     14  N   UNL     1       6.893   7.226  16.890  0.00  0.00    +0.000 NA
ATOM     15  N   UNL     1       7.439   8.427  16.990  0.00  0.00    +0.000 NA
ENDBRANCH   1  13
BRANCH   8  16
ATOM     16  C   UNL     1       2.283   7.034  19.247  0.00  0.00    +0.000 A 
ATOM     17  C   UNL     1       2.138   7.997  18.238  0.00  0.00    +0.000 A 
ATOM     18  C   UNL     1       1.552   9.234  18.515  0.00  0.00    +0.000 A 
ATOM     19  C   UNL     1       1.096   9.521  19.801  0.00  0.00    +0.000 A 
ATOM     20  C   UNL     1       1.201   8.562  20.804  0.00  0.00    +0.000 A 
ATOM     21  C   UNL     1       1.784   7.324  20.529  0.00  0.00    +0.000 A 
ENDBRANCH   8  16
TORSDOF 2
ENDMDL
MODEL 3
REMARK VINA RESULT:      -7.2      2.878      4.915
REMARK  Name = 
REMARK  3 active torsions:
REMARK  status: ('A' for Active; 'I' for Inactive)
REMARK    1  A    between atoms: C_1  and  N_2
REMARK    2  A    between atoms: C_4  and  C_5
REMARK    3  A    between atoms: C_12  and  C_13
REMARK                            x       y       z     vdW  Elec       q    Type
REMARK                         _______ _______ _______ _____ _____    ______ ____
ROOT
ATOM      1  C   UNL     1       3.720   2.639  18.067  0.00  0.00    +0.000 C 
ATOM      2  O   UNL     1       3.921   1.623  17.400  0.00  0.00    +0.000 OA
ATOM      3  N   UNL     1       3.868   3.938  17.524  0.00  0.00    +0.000 N 
ATOM      4  C   UNL     1       4.373   4.054  16.156  0.00  0.00    +0.000 C 
ATOM      5  C   UNL     1       5.650   4.887  16.055  0.00  0.00    +0.000 C 
ATOM      6  C   UNL     1       5.419   6.393  16.050  0.00  0.00    +0.000 C 
ATOM      7  C   UNL     1       4.783   6.934  17.323  0.00  0.00    +0.000 C 
ATOM      8  C   UNL     1       3.326   6.475  17.510  0.00  0.00    +0.000 C 
ATOM      9  C   UNL     1       3.235   5.093  18.178  0.00  0.00    +0.000 C 
ENDROOT
BRANCH   1  13
ATOM     10  C   UNL     1       1.058   2.456  22.263  0.00  0.00    +0.000 C 
ATOM     11  N   UNL     1       2.089   2.428  21.263  0.00  0.00    +0.000 N 
ATOM     12  C   UNL     1       1.964   2.501  19.912  0.00  0.00    +0.000 A 
ATOM     13  C   UNL     1       3.269   2.523  19.455  0.00  0.00    +0.000 A 
ATOM     14  N   UNL     1       4.108   2.382  20.538  0.00  0.00    +0.000 NA
ATOM     15  N   UNL     1       3.375   2.349  21.639  0.00  0.00    +0.000 NA
ENDBRANCH   1  13
BRANCH   8  16
ATOM     16  C   UNL     1       2.576   7.513  18.347  0.00  0.00    +0.000 A 
ATOM     17  C   UNL     1       2.297   7.255  19.697  0.00  0.00    +0.000 A 
ATOM     18  C   UNL     1       1.526   8.149  20.446  0.00  0.00    +0.000 A 
ATOM     19  C   UNL     1       1.034   9.313  19.858  0.00  0.00    +0.000 A 
ATOM     20  C   UNL     1       1.333   9.598  18.529  0.00  0.00    +0.000 A 
ATOM     21  C   UNL     1       2.104   8.708  17.779  0.00  0.00    +0.000 A 
ENDBRANCH   8  16
TORSDOF 2
ENDMDL
MODEL 4
REMARK VINA RESULT:      -7.0      2.847      4.995
REMARK  Name = 
REMARK  3 active torsions:
REMARK  status: ('A' for Active; 'I' for Inactive)
REMARK    1  A    between atoms: C_1  and  N_2
REMARK    2  A    between atoms: C_4  and  C_5
REMARK    3  A    between atoms: C_12  and  C_13
REMARK                            x       y       z     vdW  Elec       q    Type
REMARK                         _______ _______ _______ _____ _____    ______ ____
ROOT
ATOM      1  C   UNL     1       3.813   2.691  18.066  0.00  0.00    +0.000 C 
ATOM      2  O   UNL     1       4.078   1.691  17.396  0.00  0.00    +0.000 OA
ATOM      3  N   UNL     1       3.909   4.000  17.535  0.00  0.00    +0.000 N 
ATOM      4  C   UNL     1       4.437   4.151  16.180  0.00  0.00    +0.000 C 
ATOM      5  C   UNL     1       5.673   5.046  16.112  0.00  0.00    +0.000 C 
ATOM      6  C   UNL     1       5.369   6.540  16.114  0.00  0.00    +0.000 C 
ATOM      7  C   UNL     1       4.680   7.038  17.377  0.00  0.00    +0.000 C 
ATOM      8  C   UNL     1       3.244   6.507  17.529  0.00  0.00    +0.000 C 
ATOM      9  C   UNL     1       3.206   5.116  18.184  0.00  0.00    +0.000 C 
ENDROOT
BRANCH   1  13
ATOM     10  C   UNL     1       1.085   2.438  22.216  0.00  0.00    +0.000 C 
ATOM     11  N   UNL     1       2.131   2.417  21.230  0.00  0.00    +0.000 N 
ATOM     12  C   UNL     1       2.028   2.537  19.880  0.00  0.00    +0.000 A 
ATOM     13  C   UNL     1       3.339   2.542  19.443  0.00  0.00    +0.000 A 
ATOM     14  N   UNL     1       4.159   2.344  20.532  0.00  0.00    +0.000 NA
ATOM     15  N   UNL     1       3.408   2.295  21.622  0.00  0.00    +0.000 NA
ENDBRANCH   1  13
BRANCH   8  16
ATOM     16  C   UNL     1       2.426   7.500  18.357  0.00  0.00    +0.000 A 
ATOM     17  C   UNL     1       1.947   8.678  17.766  0.00  0.00    +0.000 A 
ATOM     18  C   UNL     1       1.287   9.640  18.534  0.00  0.00    +0.000 A 
ATOM     19  C   UNL     1       1.090   9.433  19.899  0.00  0.00    +0.000 A 
ATOM     20  C   UNL     1       1.529   8.252  20.491  0.00  0.00    +0.000 A 
ATOM     21  C   UNL     1       2.187   7.289  19.725  0.00  0.00    +0.000 A 
ENDBRANCH   8  16
TORSDOF 2
ENDMDL
MODEL 5
REMARK VINA RESULT:      -6.7      2.439      2.885
REMARK  Name = 
REMARK  3 active torsions:
REMARK  status: ('A' for Active; 'I' for Inactive)
REMARK    1  A    between atoms: C_1  and  N_2
REMARK    2  A    between atoms: C_4  and  C_5
REMARK    3  A    between atoms: C_12  and  C_13
REMARK                            x       y       z     vdW  Elec       q    Type
REMARK                         _______ _______ _______ _____ _____    ______ ____
ROOT
ATOM      1  C   UNL     1       4.995   3.269  19.345  0.00  0.00    +0.000 C 
ATOM      2  O   UNL     1       5.484   2.272  19.877  0.00  0.00    +0.000 OA
ATOM      3  N   UNL     1       3.773   3.833  19.783  0.00  0.00    +0.000 N 
ATOM      4  C   UNL     1       3.036   3.135  20.836  0.00  0.00    +0.000 C 
ATOM      5  C   UNL     1       1.620   2.742  20.419  0.00  0.00    +0.000 C 
ATOM      6  C   UNL     1       0.600   3.871  20.514  0.00  0.00    +0.000 C 
ATOM      7  C   UNL     1       0.888   5.055  19.601  0.00  0.00    +0.000 C 
ATOM      8  C   UNL     1       2.146   5.840  20.011  0.00  0.00    +0.000 C 
ATOM      9  C   UNL     1       3.429   5.220  19.436  0.00  0.00    +0.000 C 
ENDROOT
BRANCH   1  13
ATOM     10  C   UNL     1       6.503   5.000  14.934  0.00  0.00    +0.000 C 
ATOM     11  N   UNL     1       6.330   4.693  16.327  0.00  0.00    +0.000 N 
ATOM     12  C   UNL     1       5.314   4.021  16.929  0.00  0.00    +0.000 A 
ATOM     13  C   UNL     1       5.706   3.935  18.252  0.00  0.00    +0.000 A 
ATOM     14  N   UNL     1       6.890   4.624  18.398  0.00  0.00    +0.000 NA
ATOM     15  N   UNL     1       7.273   5.061  17.208  0.00  0.00    +0.000 NA
ENDBRANCH   1  13
BRANCH   8  16
ATOM     16  C   UNL     1       2.007   7.290  19.542  0.00  0.00    +0.000 A 
ATOM     17  C   UNL     1       1.389   8.238  20.370  0.00  0.00    +0.000 A 
ATOM     18  C   UNL     1       1.165   9.540  19.914  0.00  0.00    +0.000 A 
ATOM     19  C   UNL     1       1.563   9.912  18.631  0.00  0.00    +0.000 A 
ATOM     20  C   UNL     1       2.209   8.991  17.812  0.00  0.00    +0.000 A 
ATOM     21  C   UNL     1       2.436   7.690  18.265  0.00  0.00    +0.000 A 
ENDBRANCH   8  16
TORSDOF 2
ENDMDL
MODEL 6
REMARK VINA RESULT:      -6.5      2.685      5.050
REMARK  Name = 
REMARK  3 active torsions:
REMARK  status: ('A' for Active; 'I' for Inactive)
REMARK    1  A    between atoms: C_1  and  N_2
REMARK    2  A    between atoms: C_4  and  C_5
REMARK    3  A    between atoms: C_12  and  C_13
REMARK                            x       y       z     vdW  Elec       q    Type
REMARK                         _______ _______ _______ _____ _____    ______ ____
ROOT
ATOM      1  C   UNL     1       3.433   2.906  17.724  0.00  0.00    +0.000 C 
ATOM      2  O   UNL     1       3.754   1.931  17.044  0.00  0.00    +0.000 OA
ATOM      3  N   UNL     1       3.874   4.216  17.417  0.00  0.00    +0.000 N 
ATOM      4  C   UNL     1       4.818   4.379  16.312  0.00  0.00    +0.000 C 
ATOM      5  C   UNL     1       6.124   5.051  16.732  0.00  0.00    +0.000 C 
ATOM      6  C   UNL     1       6.046   6.569  16.831  0.00  0.00    +0.000 C 
ATOM      7  C   UNL     1       5.069   7.080  17.881  0.00  0.00    +0.000 C 
ATOM      8  C   UNL     1       3.600   6.793  17.527  0.00  0.00    +0.000 C 
ATOM      9  C   UNL     1       3.164   5.383  17.960  0.00  0.00    +0.000 C 
ENDROOT
BRANCH   1  13
ATOM     10  C   UNL     1       1.455   2.340  22.251  0.00  0.00    +0.000 C 
ATOM     11  N   UNL     1       1.694   2.510  20.844  0.00  0.00    +0.000 N 
ATOM     12  C   UNL     1       2.866   2.764  20.207  0.00  0.00    +0.000 A 
ATOM     13  C   UNL     1       2.533   2.735  18.865  0.00  0.00    +0.000 A 
ATOM     14  N   UNL     1       1.172   2.547  18.763  0.00  0.00    +0.000 NA
ATOM     15  N   UNL     1       0.675   2.387  19.980  0.00  0.00    +0.000 NA
ENDBRANCH   1  13
BRANCH   8  16
ATOM     16  C   UNL     1       2.709   7.845  18.191  0.00  0.00    +0.000 A 
ATOM     17  C   UNL     1       2.249   7.648  19.501  0.00  0.00    +0.000 A 
ATOM     18  C   UNL     1       1.355   8.551  20.082  0.00  0.00    +0.000 A 
ATOM     19  C   UNL     1       0.917   9.663  19.366  0.00  0.00    +0.000 A 
ATOM     20  C   UNL     1       1.393   9.890  18.078  0.00  0.00    +0.000 A 
ATOM     21  C   UNL     1       2.287   8.991  17.496  0.00  0.00    +0.000 A 
ENDBRANCH   8  16
TORSDOF 2
ENDMDL
MODEL 7
REMARK VINA RESULT:      -6.5      5.401      7.752
REMARK  Name = 
REMARK  3 active torsions:
REMARK  status: ('A' for Active; 'I' for Inactive)
REMARK    1  A    between atoms: C_1  and  N_2
REMARK    2  A    between atoms: C_4  and  C_5
REMARK    3  A    between atoms: C_12  and  C_13
REMARK                            x       y       z     vdW  Elec       q    Type
REMARK                         _______ _______ _______ _____ _____    ______ ____
ROOT
ATOM      1  C   UNL     1       0.317  13.405  21.186  0.00  0.00    +0.000 C 
ATOM      2  O   UNL     1      -0.508  14.261  21.507  0.00  0.00    +0.000 OA
ATOM      3  N   UNL     1       0.059  12.020  21.327  0.00  0.00    +0.000 N 
ATOM      4  C   UNL     1      -1.194  11.619  21.966  0.00  0.00    +0.000 C 
ATOM      5  C   UNL     1      -0.984  10.748  23.204  0.00  0.00    +0.000 C 
ATOM      6  C   UNL     1      -0.720   9.278  22.900  0.00  0.00    +0.000 C 
ATOM      7  C   UNL     1       0.554   9.020  22.107  0.00  0.00    +0.000 C 
ATOM      8  C   UNL     1       0.481   9.548  20.663  0.00  0.00    +0.000 C 
ATOM      9  C   UNL     1       0.850  11.037  20.571  0.00  0.00    +0.000 C 
ENDROOT
BRANCH   1  13
ATOM     10  C   UNL     1       3.968  14.850  18.134  0.00  0.00    +0.000 C 
ATOM     11  N   UNL     1       3.161  14.456  19.257  0.00  0.00    +0.000 N 
ATOM     12  C   UNL     1       1.817  14.267  19.312  0.00  0.00    +0.000 A 
ATOM     13  C   UNL     1       1.595  13.808  20.598  0.00  0.00    +0.000 A 
ATOM     14  N   UNL     1       2.795  13.820  21.274  0.00  0.00    +0.000 NA
ATOM     15  N   UNL     1       3.749  14.195  20.435  0.00  0.00    +0.000 NA
ENDBRANCH   1  13
BRANCH   8  16
ATOM     16  C   UNL     1       1.414   8.719  19.779  0.00  0.00    +0.000 A 
ATOM     17  C   UNL     1       1.713   9.151  18.478  0.00  0.00    +0.000 A 
ATOM     18  C   UNL     1       2.482   8.354  17.625  0.00  0.00    +0.000 A 
ATOM     19  C   UNL     1       2.968   7.124  18.064  0.00  0.00    +0.000 A 
ATOM     20  C   UNL     1       2.709   6.700  19.364  0.00  0.00    +0.000 A 
ATOM     21  C   UNL     1       1.943   7.494  20.218  0.00  0.00    +0.000 A 
ENDBRANCH   8  16
TORSDOF 2
ENDMDL
MODEL 8
REMARK VINA RESULT:      -6.5      2.661      5.162
REMARK  Name = 
REMARK  3 active torsions:
REMARK  status: ('A' for Active; 'I' for Inactive)
REMARK    1  A    between atoms: C_1  and  N_2
REMARK    2  A    between atoms: C_4  and  C_5
REMARK    3  A    between atoms: C_12  and  C_13
REMARK                            x       y       z     vdW  Elec       q    Type
REMARK                         _______ _______ _______ _____ _____    ______ ____
ROOT
ATOM      1  C   UNL     1       3.454   2.935  17.755  0.00  0.00    +0.000 C 
ATOM      2  O   UNL     1       3.821   1.973  17.079  0.00  0.00    +0.000 OA
ATOM      3  N   UNL     1       3.861   4.259  17.464  0.00  0.00    +0.000 N 
ATOM      4  C   UNL     1       4.826   4.456  16.383  0.00  0.00    +0.000 C 
ATOM      5  C   UNL     1       6.100   5.166  16.838  0.00  0.00    +0.000 C 
ATOM      6  C   UNL     1       5.973   6.681  16.941  0.00  0.00    +0.000 C 
ATOM      7  C   UNL     1       4.956   7.156  17.970  0.00  0.00    +0.000 C 
ATOM      8  C   UNL     1       3.505   6.826  17.580  0.00  0.00    +0.000 C 
ATOM      9  C   UNL     1       3.103   5.401  17.996  0.00  0.00    +0.000 C 
ENDROOT
BRANCH   1  13
ATOM     10  C   UNL     1       1.383   2.310  22.233  0.00  0.00    +0.000 C 
ATOM     11  N   UNL     1       1.652   2.481  20.832  0.00  0.00    +0.000 N 
ATOM     12  C   UNL     1       2.828   2.784  20.223  0.00  0.00    +0.000 A 
ATOM     13  C   UNL     1       2.532   2.730  18.874  0.00  0.00    +0.000 A 
ATOM     14  N   UNL     1       1.184   2.479  18.738  0.00  0.00    +0.000 NA
ATOM     15  N   UNL     1       0.663   2.304  19.942  0.00  0.00    +0.000 NA
ENDBRANCH   1  13
BRANCH   8  16
ATOM     16  C   UNL     1       2.567   7.847  18.226  0.00  0.00    +0.000 A 
ATOM     17  C   UNL     1       2.198   9.002  17.523  0.00  0.00    +0.000 A 
ATOM     18  C   UNL     1       1.424   9.990  18.138  0.00  0.00    +0.000 A 
ATOM     19  C   UNL     1       1.003   9.831  19.458  0.00  0.00    +0.000 A 
ATOM     20  C   UNL     1       1.333   8.673  20.155  0.00  0.00    +0.000 A 
ATOM     21  C   UNL     1       2.104   7.684  19.543  0.00  0.00    +0.000 A 
ENDBRANCH   8  16
TORSDOF 2
ENDMDL
MODEL 9
REMARK VINA RESULT:      -6.5      1.556      1.974
REMARK  Name = 
REMARK  3 active torsions:
REMARK  status: ('A' for Active; 'I' for Inactive)
REMARK    1  A    between atoms: C_1  and  N_2
REMARK    2  A    between atoms: C_4  and  C_5
REMARK    3  A    between atoms: C_12  and  C_13
REMARK                            x       y       z     vdW  Elec       q    Type
REMARK                         _______ _______ _______ _____ _____    ______ ____
ROOT
ATOM      1  C   UNL     1       5.103   4.072  19.095  0.00  0.00    +0.000 C 
ATOM      2  O   UNL     1       5.750   3.045  19.302  0.00  0.00    +0.000 OA
ATOM      3  N   UNL     1       3.826   4.285  19.666  0.00  0.00    +0.000 N 
ATOM      4  C   UNL     1       3.232   3.197  20.442  0.00  0.00    +0.000 C 
ATOM      5  C   UNL     1       1.877   2.743  19.901  0.00  0.00    +0.000 C 
ATOM      6  C   UNL     1       0.706   3.622  20.323  0.00  0.00    +0.000 C 
ATOM      7  C   UNL     1       0.787   5.058  19.822  0.00  0.00    +0.000 C 
ATOM      8  C   UNL     1       1.928   5.859  20.474  0.00  0.00    +0.000 C 
ATOM      9  C   UNL     1       3.271   5.644  19.756  0.00  0.00    +0.000 C 
ENDROOT
BRANCH   1  13
ATOM     10  C   UNL     1       7.659   7.971  17.363  0.00  0.00    +0.000 C 
ATOM     11  N   UNL     1       6.810   6.824  17.535  0.00  0.00    +0.000 N 
ATOM     12  C   UNL     1       6.691   6.010  18.617  0.00  0.00    +0.000 A 
ATOM     13  C   UNL     1       5.674   5.140  18.272  0.00  0.00    +0.000 A 
ATOM     14  N   UNL     1       5.288   5.417  16.979  0.00  0.00    +0.000 NA
ATOM     15  N   UNL     1       5.973   6.465  16.549  0.00  0.00    +0.000 NA
ENDBRANCH   1  13
BRANCH   8  16
ATOM     16  C   UNL     1       1.563   7.345  20.471  0.00  0.00    +0.000 A 
ATOM     17  C   UNL     1       0.904   7.906  21.574  0.00  0.00    +0.000 A 
ATOM     18  C   UNL     1       0.475   9.236  21.544  0.00  0.00    +0.000 A 
ATOM     19  C   UNL     1       0.707  10.022  20.416  0.00  0.00    +0.000 A 
ATOM     20  C   UNL     1       1.392   9.487  19.328  0.00  0.00    +0.000 A 
ATOM     21  C   UNL     1       1.823   8.160  19.357  0.00  0.00    +0.000 A 
ENDBRANCH   8  16
TORSDOF 2
ENDMDL
