MODEL 1
REMARK VINA RESULT:      -6.4      0.000      0.000
REMARK  Name = 
REMARK  19 active torsions:
REMARK  status: ('A' for Active; 'I' for Inactive)
REMARK    1  A    between atoms: C_2  and  C_3
REMARK    2  A    between atoms: C_3  and  C_4
REMARK    3  A    between atoms: C_4  and  C_5
REMARK    4  A    between atoms: C_5  and  C_6
REMARK    5  A    between atoms: C_6  and  C_7
REMARK    6  A    between atoms: C_7  and  C_8
REMARK    7  A    between atoms: C_8  and  C_9
REMARK    8  A    between atoms: C_9  and  C_10
REMARK    9  A    between atoms: C_10  and  C_11
REMARK   10  A    between atoms: C_11  and  C_12
REMARK   11  A    between atoms: C_12  and  C_13
REMARK   12  A    between atoms: C_13  and  N_14
REMARK   13  A    between atoms: N_19  and  C_20
REMARK   14  A    between atoms: C_20  and  C_21
REMARK   15  A    between atoms: C_20  and  C_23
REMARK   16  A    between atoms: C_21  and  O_22
REMARK   17  A    between atoms: C_23  and  O_24
REMARK   18  A    between atoms: C_23  and  C_25
REMARK   19  A    between atoms: C_28  and  N_29
REMARK                            x       y       z     vdW  Elec       q    Type
REMARK                         _______ _______ _______ _____ _____    ______ ____
ROOT
ATOM      1  O   UNK A   0       1.171   9.467  20.562  0.00  0.00    +0.000 OA
ATOM      2  C   UNK A   0       1.147   9.173  19.379  0.00  0.00    +0.000 C 
ATOM      3  N   UNK A   1       0.414   9.859  18.438  0.00  0.00    +0.000 N 
ATOM      4  H   UNK A   1       0.336   9.486  17.501  0.00  0.00    +0.000 HD
ENDROOT
BRANCH   3   5
ATOM      5  C   UNK A   1      -0.360  11.068  18.798  0.00  0.00    +0.000 C 
BRANCH   5   6
ATOM      6  C   UNK A   1      -1.490  11.437  17.776  0.00  0.00    +0.000 C 
BRANCH   6   7
ATOM      7  C   UNK A   1      -2.935  11.437  18.313  0.00  0.00    +0.000 A 
ATOM      8  C   UNK A   1      -3.299  12.252  19.404  0.00  0.00    +0.000 A 
ATOM      9  C   UNK A   1      -4.638  12.374  19.819  0.00  0.00    +0.000 A 
ATOM     10  C   UNK A   1      -5.640  11.683  19.130  0.00  0.00    +0.000 A 
ATOM     11  C   UNK A   1      -5.305  10.848  18.062  0.00  0.00    +0.000 A 
ATOM     12  C   UNK A   1      -3.967  10.732  17.661  0.00  0.00    +0.000 A 
BRANCH  10  13
ATOM     13  N   UNK A   1      -7.052  11.856  19.503  0.00  0.00    +0.000 N 
ATOM     14  O   UNK A   1      -7.725  12.667  18.851  0.00  0.00    +0.000 OA
ATOM     15  O   UNK A   1      -7.486  11.178  20.445  0.00  0.00    +0.000 OA
ENDBRANCH  10  13
ENDBRANCH   6   7
BRANCH   6  16
ATOM     16  O   UNK A   1      -1.178  12.700  17.165  0.00  0.00    +0.000 OA
ATOM     17  H   UNK A   1      -1.719  12.791  16.364  0.00  0.00    +0.000 HD
ENDBRANCH   6  16
ENDBRANCH   5   6
BRANCH   5  18
ATOM     18  C   UNK A   1       0.644  12.212  19.008  0.00  0.00    +0.000 C 
BRANCH  18  19
ATOM     19  O   UNK A   1       0.085  13.208  19.866  0.00  0.00    +0.000 OA
ATOM     20  H   UNK A   1      -0.454  12.745  20.532  0.00  0.00    +0.000 HD
ENDBRANCH  18  19
ENDBRANCH   5  18
ENDBRANCH   3   5
BRANCH   2  21
ATOM     21  C   UNK A   0       1.913   7.984  18.820  0.00  0.00    +0.000 C 
BRANCH  21  22
ATOM     22  C   UNK A   0       2.390   7.108  19.963  0.00  0.00    +0.000 C 
BRANCH  22  23
ATOM     23  C   UNK A   0       1.371   6.043  20.341  0.00  0.00    +0.000 C 
BRANCH  23  24
ATOM     24  C   UNK A   0       2.091   4.829  20.923  0.00  0.00    +0.000 C 
BRANCH  24  25
ATOM     25  C   UNK A   0       1.231   3.583  20.799  0.00  0.00    +0.000 C 
BRANCH  25  26
ATOM     26  C   UNK A   0       0.994   3.229  19.337  0.00  0.00    +0.000 C 
BRANCH  26  27
ATOM     27  C   UNK A   0       2.230   2.544  18.770  0.00  0.00    +0.000 C 
BRANCH  27  28
ATOM     28  C   UNK A   0       2.548   3.066  17.377  0.00  0.00    +0.000 C 
BRANCH  28  29
ATOM     29  C   UNK A   0       3.240   4.421  17.464  0.00  0.00    +0.000 C 
BRANCH  29  30
ATOM     30  C   UNK A   0       4.502   4.325  18.313  0.00  0.00    +0.000 C 
BRANCH  30  31
ATOM     31  C   UNK A   0       5.747   4.356  17.434  0.00  0.00    +0.000 C 
BRANCH  31  32
ATOM     32  N   UNK A   0       6.484   5.592  17.581  0.00  0.00    +0.000 N 
ATOM     33  C   UNK A   0       7.543   5.803  18.415  0.00  0.00    +0.000 A 
ATOM     34  C   UNK A   0       7.914   7.107  18.190  0.00  0.00    +0.000 A 
ATOM     35  N   UNK A   0       7.106   7.687  17.245  0.00  0.00    +0.000 NA
ATOM     36  C   UNK A   0       6.255   6.749  16.894  0.00  0.00    +0.000 A 
ENDBRANCH  31  32
ENDBRANCH  30  31
ENDBRANCH  29  30
ENDBRANCH  28  29
ENDBRANCH  27  28
ENDBRANCH  26  27
ENDBRANCH  25  26
ENDBRANCH  24  25
ENDBRANCH  23  24
ENDBRANCH  22  23
ENDBRANCH  21  22
ENDBRANCH   2  21
TORSDOF 19
ENDMDL
MODEL 2
REMARK VINA RESULT:      -6.3      4.599     10.703
REMARK  Name = 
REMARK  19 active torsions:
REMARK  status: ('A' for Active; 'I' for Inactive)
REMARK    1  A    between atoms: C_2  and  C_3
REMARK    2  A    between atoms: C_3  and  C_4
REMARK    3  A    between atoms: C_4  and  C_5
REMARK    4  A    between atoms: C_5  and  C_6
REMARK    5  A    between atoms: C_6  and  C_7
REMARK    6  A    between atoms: C_7  and  C_8
REMARK    7  A    between atoms: C_8  and  C_9
REMARK    8  A    between atoms: C_9  and  C_10
REMARK    9  A    between atoms: C_10  and  C_11
REMARK   10  A    between atoms: C_11  and  C_12
REMARK   11  A    between atoms: C_12  and  C_13
REMARK   12  A    between atoms: C_13  and  N_14
REMARK   13  A    between atoms: N_19  and  C_20
REMARK   14  A    between atoms: C_20  and  C_21
REMARK   15  A    between atoms: C_20  and  C_23
REMARK   16  A    between atoms: C_21  and  O_22
REMARK   17  A    between atoms: C_23  and  O_24
REMARK   18  A    between atoms: C_23  and  C_25
REMARK   19  A    between atoms: C_28  and  N_29
REMARK                            x       y       z     vdW  Elec       q    Type
REMARK                         _______ _______ _______ _____ _____    ______ ____
ROOT
ATOM      1  O   UNK A   0       2.538   4.351  21.531  0.00  0.00    +0.000 OA
ATOM      2  C   UNK A   0       2.018   4.848  20.547  0.00  0.00    +0.000 C 
ATOM      3  N   UNK A   1       1.978   4.233  19.315  0.00  0.00    +0.000 N 
ATOM      4  H   UNK A   1       1.648   4.752  18.513  0.00  0.00    +0.000 HD
ENDROOT
BRANCH   3   5
ATOM      5  C   UNK A   1       2.518   2.870  19.118  0.00  0.00    +0.000 C 
BRANCH   5   6
ATOM      6  C   UNK A   1       3.534   2.746  17.931  0.00  0.00    +0.000 C 
BRANCH   6   7
ATOM      7  C   UNK A   1       4.659   3.797  17.869  0.00  0.00    +0.000 A 
ATOM      8  C   UNK A   1       4.929   4.495  16.674  0.00  0.00    +0.000 A 
ATOM      9  C   UNK A   1       5.852   5.557  16.632  0.00  0.00    +0.000 A 
ATOM     10  C   UNK A   1       6.514   5.943  17.802  0.00  0.00    +0.000 A 
ATOM     11  C   UNK A   1       6.285   5.252  18.994  0.00  0.00    +0.000 A 
ATOM     12  C   UNK A   1       5.366   4.194  19.021  0.00  0.00    +0.000 A 
BRANCH  10  13
ATOM     13  N   UNK A   1       7.426   7.096  17.792  0.00  0.00    +0.000 N 
ATOM     14  O   UNK A   1       7.279   7.939  16.896  0.00  0.00    +0.000 OA
ATOM     15  O   UNK A   1       8.285   7.159  18.684  0.00  0.00    +0.000 OA
ENDBRANCH  10  13
ENDBRANCH   6   7
BRANCH   6  16
ATOM     16  O   UNK A   1       4.084   1.417  17.919  0.00  0.00    +0.000 OA
ATOM     17  H   UNK A   1       4.313   1.193  17.003  0.00  0.00    +0.000 HD
ENDBRANCH   6  16
ENDBRANCH   5   6
BRANCH   5  18
ATOM     18  C   UNK A   1       1.321   1.916  18.975  0.00  0.00    +0.000 C 
BRANCH  18  19
ATOM     19  O   UNK A   1       0.196   2.613  18.438  0.00  0.00    +0.000 OA
ATOM     20  H   UNK A   1      -0.421   1.943  18.094  0.00  0.00    +0.000 HD
ENDBRANCH  18  19
ENDBRANCH   5  18
ENDBRANCH   3   5
BRANCH   2  21
ATOM     21  C   UNK A   0       1.376   6.226  20.571  0.00  0.00    +0.000 C 
BRANCH  21  22
ATOM     22  C   UNK A   0       2.280   7.215  19.859  0.00  0.00    +0.000 C 
BRANCH  22  23
ATOM     23  C   UNK A   0       1.970   7.317  18.372  0.00  0.00    +0.000 C 
BRANCH  23  24
ATOM     24  C   UNK A   0       2.716   8.507  17.774  0.00  0.00    +0.000 C 
BRANCH  24  25
ATOM     25  C   UNK A   0       1.938   9.794  17.993  0.00  0.00    +0.000 C 
BRANCH  25  26
ATOM     26  C   UNK A   0       0.444   9.563  17.815  0.00  0.00    +0.000 C 
BRANCH  26  27
ATOM     27  C   UNK A   0      -0.304  10.086  19.033  0.00  0.00    +0.000 C 
BRANCH  27  28
ATOM     28  C   UNK A   0       0.645  10.790  19.991  0.00  0.00    +0.000 C 
BRANCH  28  29
ATOM     29  C   UNK A   0       0.088  10.756  21.409  0.00  0.00    +0.000 C 
BRANCH  29  30
ATOM     30  C   UNK A   0      -0.356  12.148  21.844  0.00  0.00    +0.000 C 
BRANCH  30  31
ATOM     31  C   UNK A   0      -1.799  12.408  21.429  0.00  0.00    +0.000 C 
BRANCH  31  32
ATOM     32  N   UNK A   0      -2.596  12.911  22.526  0.00  0.00    +0.000 N 
ATOM     33  C   UNK A   0      -3.166  12.164  23.516  0.00  0.00    +0.000 A 
ATOM     34  C   UNK A   0      -3.798  13.076  24.326  0.00  0.00    +0.000 A 
ATOM     35  N   UNK A   0      -3.625  14.352  23.851  0.00  0.00    +0.000 NA
ATOM     36  C   UNK A   0      -2.895  14.221  22.767  0.00  0.00    +0.000 A 
ENDBRANCH  31  32
ENDBRANCH  30  31
ENDBRANCH  29  30
ENDBRANCH  28  29
ENDBRANCH  27  28
ENDBRANCH  26  27
ENDBRANCH  25  26
ENDBRANCH  24  25
ENDBRANCH  23  24
ENDBRANCH  22  23
ENDBRANCH  21  22
ENDBRANCH   2  21
TORSDOF 19
ENDMDL
MODEL 3
REMARK VINA RESULT:      -6.2      2.781      3.481
REMARK  Name = 
REMARK  19 active torsions:
REMARK  status: ('A' for Active; 'I' for Inactive)
REMARK    1  A    between atoms: C_2  and  C_3
REMARK    2  A    between atoms: C_3  and  C_4
REMARK    3  A    between atoms: C_4  and  C_5
REMARK    4  A    between atoms: C_5  and  C_6
REMARK    5  A    between atoms: C_6  and  C_7
REMARK    6  A    between atoms: C_7  and  C_8
REMARK    7  A    between atoms: C_8  and  C_9
REMARK    8  A    between atoms: C_9  and  C_10
REMARK    9  A    between atoms: C_10  and  C_11
REMARK   10  A    between atoms: C_11  and  C_12
REMARK   11  A    between atoms: C_12  and  C_13
REMARK   12  A    between atoms: C_13  and  N_14
REMARK   13  A    between atoms: N_19  and  C_20
REMARK   14  A    between atoms: C_20  and  C_21
REMARK   15  A    between atoms: C_20  and  C_23
REMARK   16  A    between atoms: C_21  and  O_22
REMARK   17  A    between atoms: C_23  and  O_24
REMARK   18  A    between atoms: C_23  and  C_25
REMARK   19  A    between atoms: C_28  and  N_29
REMARK                            x       y       z     vdW  Elec       q    Type
REMARK                         _______ _______ _______ _____ _____    ______ ____
ROOT
ATOM      1  O   UNK A   0       2.560   8.784  17.985  0.00  0.00    +0.000 OA
ATOM      2  C   UNK A   0       2.088   8.134  18.901  0.00  0.00    +0.000 C 
ATOM      3  N   UNK A   1       1.285   8.672  19.883  0.00  0.00    +0.000 N 
ATOM      4  H   UNK A   1       1.034   8.108  20.683  0.00  0.00    +0.000 HD
ENDROOT
BRANCH   3   5
ATOM      5  C   UNK A   1       0.880  10.094  19.850  0.00  0.00    +0.000 C 
BRANCH   5   6
ATOM      6  C   UNK A   1       1.014  10.834  21.225  0.00  0.00    +0.000 C 
BRANCH   6   7
ATOM      7  C   UNK A   1      -0.231  11.589  21.730  0.00  0.00    +0.000 A 
ATOM      8  C   UNK A   1      -1.119  10.985  22.643  0.00  0.00    +0.000 A 
ATOM      9  C   UNK A   1      -2.181  11.704  23.225  0.00  0.00    +0.000 A 
ATOM     10  C   UNK A   1      -2.359  13.053  22.902  0.00  0.00    +0.000 A 
ATOM     11  C   UNK A   1      -1.510  13.670  21.981  0.00  0.00    +0.000 A 
ATOM     12  C   UNK A   1      -0.460  12.941  21.406  0.00  0.00    +0.000 A 
BRANCH  10  13
ATOM     13  N   UNK A   1      -3.418  13.838  23.555  0.00  0.00    +0.000 N 
ATOM     14  O   UNK A   1      -3.817  13.455  24.665  0.00  0.00    +0.000 OA
ATOM     15  O   UNK A   1      -3.844  14.837  22.960  0.00  0.00    +0.000 OA
ENDBRANCH  10  13
ENDBRANCH   6   7
BRANCH   6  16
ATOM     16  O   UNK A   1       1.477   9.903  22.217  0.00  0.00    +0.000 OA
ATOM     17  H   UNK A   1       0.884   9.134  22.211  0.00  0.00    +0.000 HD
ENDBRANCH   6  16
ENDBRANCH   5   6
BRANCH   5  18
ATOM     18  C   UNK A   1      -0.548  10.154  19.283  0.00  0.00    +0.000 C 
BRANCH  18  19
ATOM     19  O   UNK A   1      -0.517  10.543  17.908  0.00  0.00    +0.000 OA
ATOM     20  H   UNK A   1      -0.336  11.500  17.883  0.00  0.00    +0.000 HD
ENDBRANCH  18  19
ENDBRANCH   5  18
ENDBRANCH   3   5
BRANCH   2  21
ATOM     21  C   UNK A   0       2.364   6.648  19.074  0.00  0.00    +0.000 C 
BRANCH  21  22
ATOM     22  C   UNK A   0       2.021   6.234  20.493  0.00  0.00    +0.000 C 
BRANCH  22  23
ATOM     23  C   UNK A   0       2.166   4.734  20.710  0.00  0.00    +0.000 C 
BRANCH  23  24
ATOM     24  C   UNK A   0       0.883   4.028  20.279  0.00  0.00    +0.000 C 
BRANCH  24  25
ATOM     25  C   UNK A   0       1.098   3.266  18.982  0.00  0.00    +0.000 C 
BRANCH  25  26
ATOM     26  C   UNK A   0       1.945   2.023  19.216  0.00  0.00    +0.000 C 
BRANCH  26  27
ATOM     27  C   UNK A   0       3.046   1.949  18.168  0.00  0.00    +0.000 C 
BRANCH  27  28
ATOM     28  C   UNK A   0       3.909   3.201  18.199  0.00  0.00    +0.000 C 
BRANCH  28  29
ATOM     29  C   UNK A   0       4.075   3.766  16.793  0.00  0.00    +0.000 C 
BRANCH  29  30
ATOM     30  C   UNK A   0       5.490   4.294  16.590  0.00  0.00    +0.000 C 
BRANCH  30  31
ATOM     31  C   UNK A   0       6.171   4.540  17.930  0.00  0.00    +0.000 C 
BRANCH  31  32
ATOM     32  N   UNK A   0       6.866   5.808  17.961  0.00  0.00    +0.000 N 
ATOM     33  C   UNK A   0       6.620   6.880  17.151  0.00  0.00    +0.000 A 
ATOM     34  C   UNK A   0       7.508   7.844  17.565  0.00  0.00    +0.000 A 
ATOM     35  N   UNK A   0       8.281   7.382  18.600  0.00  0.00    +0.000 NA
ATOM     36  C   UNK A   0       7.870   6.154  18.818  0.00  0.00    +0.000 A 
ENDBRANCH  31  32
ENDBRANCH  30  31
ENDBRANCH  29  30
ENDBRANCH  28  29
ENDBRANCH  27  28
ENDBRANCH  26  27
ENDBRANCH  25  26
ENDBRANCH  24  25
ENDBRANCH  23  24
ENDBRANCH  22  23
ENDBRANCH  21  22
ENDBRANCH   2  21
TORSDOF 19
ENDMDL
MODEL 4
REMARK VINA RESULT:      -6.2      2.560      3.167
REMARK  Name = 
REMARK  19 active torsions:
REMARK  status: ('A' for Active; 'I' for Inactive)
REMARK    1  A    between atoms: C_2  and  C_3
REMARK    2  A    between atoms: C_3  and  C_4
REMARK    3  A    between atoms: C_4  and  C_5
REMARK    4  A    between atoms: C_5  and  C_6
REMARK    5  A    between atoms: C_6  and  C_7
REMARK    6  A    between atoms: C_7  and  C_8
REMARK    7  A    between atoms: C_8  and  C_9
REMARK    8  A    between atoms: C_9  and  C_10
REMARK    9  A    between atoms: C_10  and  C_11
REMARK   10  A    between atoms: C_11  and  C_12
REMARK   11  A    between atoms: C_12  and  C_13
REMARK   12  A    between atoms: C_13  and  N_14
REMARK   13  A    between atoms: N_19  and  C_20
REMARK   14  A    between atoms: C_20  and  C_21
REMARK   15  A    between atoms: C_20  and  C_23
REMARK   16  A    between atoms: C_21  and  O_22
REMARK   17  A    between atoms: C_23  and  O_24
REMARK   18  A    between atoms: C_23  and  C_25
REMARK   19  A    between atoms: C_28  and  N_29
REMARK                            x       y       z     vdW  Elec       q    Type
REMARK                         _______ _______ _______ _____ _____    ______ ____
ROOT
ATOM      1  O   UNK A   0       1.466   8.514  21.591  0.00  0.00    +0.000 OA
ATOM      2  C   UNK A   0       1.627   8.313  20.400  0.00  0.00    +0.000 C 
ATOM      3  N   UNK A   1       1.301   9.227  19.422  0.00  0.00    +0.000 N 
ATOM      4  H   UNK A   1       1.339   8.949  18.451  0.00  0.00    +0.000 HD
ENDROOT
BRANCH   3   5
ATOM      5  C   UNK A   1       0.783  10.569  19.767  0.00  0.00    +0.000 C 
BRANCH   5   6
ATOM      6  C   UNK A   1      -0.774  10.632  19.944  0.00  0.00    +0.000 C 
BRANCH   6   7
ATOM      7  C   UNK A   1      -1.319  11.718  20.892  0.00  0.00    +0.000 A 
ATOM      8  C   UNK A   1      -2.444  12.488  20.534  0.00  0.00    +0.000 A 
ATOM      9  C   UNK A   1      -3.043  13.384  21.440  0.00  0.00    +0.000 A 
ATOM     10  C   UNK A   1      -2.522  13.511  22.732  0.00  0.00    +0.000 A 
ATOM     11  C   UNK A   1      -1.393  12.779  23.105  0.00  0.00    +0.000 A 
ATOM     12  C   UNK A   1      -0.803  11.894  22.192  0.00  0.00    +0.000 A 
BRANCH  10  13
ATOM     13  N   UNK A   1      -3.179  14.387  23.713  0.00  0.00    +0.000 N 
ATOM     14  O   UNK A   1      -4.339  14.754  23.473  0.00  0.00    +0.000 OA
ATOM     15  O   UNK A   1      -2.537  14.702  24.724  0.00  0.00    +0.000 OA
ENDBRANCH  10  13
ENDBRANCH   6   7
BRANCH   6  16
ATOM     16  O   UNK A   1      -1.391  10.734  18.650  0.00  0.00    +0.000 OA
ATOM     17  H   UNK A   1      -0.691  10.706  17.978  0.00  0.00    +0.000 HD
ENDBRANCH   6  16
ENDBRANCH   5   6
BRANCH   5  18
ATOM     18  C   UNK A   1       1.297  11.550  18.701  0.00  0.00    +0.000 C 
BRANCH  18  19
ATOM     19  O   UNK A   1       2.196  10.885  17.812  0.00  0.00    +0.000 OA
ATOM     20  H   UNK A   1       2.708  11.574  17.351  0.00  0.00    +0.000 HD
ENDBRANCH  18  19
ENDBRANCH   5  18
ENDBRANCH   3   5
BRANCH   2  21
ATOM     21  C   UNK A   0       2.187   7.005  19.862  0.00  0.00    +0.000 C 
BRANCH  21  22
ATOM     22  C   UNK A   0       1.576   5.844  20.623  0.00  0.00    +0.000 C 
BRANCH  22  23
ATOM     23  C   UNK A   0       2.581   4.733  20.890  0.00  0.00    +0.000 C 
BRANCH  23  24
ATOM     24  C   UNK A   0       1.897   3.594  21.643  0.00  0.00    +0.000 C 
BRANCH  24  25
ATOM     25  C   UNK A   0       1.838   2.341  20.785  0.00  0.00    +0.000 C 
BRANCH  25  26
ATOM     26  C   UNK A   0       2.647   2.518  19.508  0.00  0.00    +0.000 C 
BRANCH  26  27
ATOM     27  C   UNK A   0       1.726   2.412  18.301  0.00  0.00    +0.000 C 
BRANCH  27  28
ATOM     28  C   UNK A   0       2.350   3.076  17.083  0.00  0.00    +0.000 C 
BRANCH  28  29
ATOM     29  C   UNK A   0       3.082   4.349  17.490  0.00  0.00    +0.000 C 
BRANCH  29  30
ATOM     30  C   UNK A   0       4.429   4.442  16.781  0.00  0.00    +0.000 C 
BRANCH  30  31
ATOM     31  C   UNK A   0       5.042   5.824  16.969  0.00  0.00    +0.000 C 
BRANCH  31  32
ATOM     32  N   UNK A   0       6.099   5.818  17.957  0.00  0.00    +0.000 N 
ATOM     33  C   UNK A   0       7.317   6.421  17.836  0.00  0.00    +0.000 A 
ATOM     34  C   UNK A   0       7.959   6.158  19.022  0.00  0.00    +0.000 A 
ATOM     35  N   UNK A   0       7.162   5.414  19.853  0.00  0.00    +0.000 NA
ATOM     36  C   UNK A   0       6.046   5.226  19.186  0.00  0.00    +0.000 A 
ENDBRANCH  31  32
ENDBRANCH  30  31
ENDBRANCH  29  30
ENDBRANCH  28  29
ENDBRANCH  27  28
ENDBRANCH  26  27
ENDBRANCH  25  26
ENDBRANCH  24  25
ENDBRANCH  23  24
ENDBRANCH  22  23
ENDBRANCH  21  22
ENDBRANCH   2  21
TORSDOF 19
ENDMDL
MODEL 5
REMARK VINA RESULT:      -6.1      4.113     11.399
REMARK  Name = 
REMARK  19 active torsions:
REMARK  status: ('A' for Active; 'I' for Inactive)
REMARK    1  A    between atoms: C_2  and  C_3
REMARK    2  A    between atoms: C_3  and  C_4
REMARK    3  A    between atoms: C_4  and  C_5
REMARK    4  A    between atoms: C_5  and  C_6
REMARK    5  A    between atoms: C_6  and  C_7
REMARK    6  A    between atoms: C_7  and  C_8
REMARK    7  A    between atoms: C_8  and  C_9
REMARK    8  A    between atoms: C_9  and  C_10
REMARK    9  A    between atoms: C_10  and  C_11
REMARK   10  A    between atoms: C_11  and  C_12
REMARK   11  A    between atoms: C_12  and  C_13
REMARK   12  A    between atoms: C_13  and  N_14
REMARK   13  A    between atoms: N_19  and  C_20
REMARK   14  A    between atoms: C_20  and  C_21
REMARK   15  A    between atoms: C_20  and  C_23
REMARK   16  A    between atoms: C_21  and  O_22
REMARK   17  A    between atoms: C_23  and  O_24
REMARK   18  A    between atoms: C_23  and  C_25
REMARK   19  A    between atoms: C_28  and  N_29
REMARK                            x       y       z     vdW  Elec       q    Type
REMARK                         _______ _______ _______ _____ _____    ______ ____
ROOT
ATOM      1  O   UNK A   0       2.497   5.300  21.249  0.00  0.00    +0.000 OA
ATOM      2  C   UNK A   0       2.027   5.423  20.131  0.00  0.00    +0.000 C 
ATOM      3  N   UNK A   1       1.854   4.372  19.258  0.00  0.00    +0.000 N 
ATOM      4  H   UNK A   1       1.581   4.561  18.303  0.00  0.00    +0.000 HD
ENDROOT
BRANCH   3   5
ATOM      5  C   UNK A   1       2.175   2.983  19.653  0.00  0.00    +0.000 C 
BRANCH   5   6
ATOM      6  C   UNK A   1       3.641   2.540  19.319  0.00  0.00    +0.000 C 
BRANCH   6   7
ATOM      7  C   UNK A   1       4.487   3.522  18.487  0.00  0.00    +0.000 A 
ATOM      8  C   UNK A   1       5.389   4.408  19.113  0.00  0.00    +0.000 A 
ATOM      9  C   UNK A   1       6.272   5.211  18.367  0.00  0.00    +0.000 A 
ATOM     10  C   UNK A   1       6.270   5.127  16.971  0.00  0.00    +0.000 A 
ATOM     11  C   UNK A   1       5.370   4.278  16.324  0.00  0.00    +0.000 A 
ATOM     12  C   UNK A   1       4.493   3.486  17.078  0.00  0.00    +0.000 A 
BRANCH  10  13
ATOM     13  N   UNK A   1       7.236   5.904  16.180  0.00  0.00    +0.000 N 
ATOM     14  O   UNK A   1       7.727   6.915  16.702  0.00  0.00    +0.000 OA
ATOM     15  O   UNK A   1       7.505   5.499  15.041  0.00  0.00    +0.000 OA
ENDBRANCH  10  13
ENDBRANCH   6   7
BRANCH   6  16
ATOM     16  O   UNK A   1       4.319   2.198  20.540  0.00  0.00    +0.000 OA
ATOM     17  H   UNK A   1       4.987   1.524  20.336  0.00  0.00    +0.000 HD
ENDBRANCH   6  16
ENDBRANCH   5   6
BRANCH   5  18
ATOM     18  C   UNK A   1       1.119   2.066  19.014  0.00  0.00    +0.000 C 
BRANCH  18  19
ATOM     19  O   UNK A   1      -0.193   2.493  19.382  0.00  0.00    +0.000 OA
ATOM     20  H   UNK A   1      -0.798   2.210  18.673  0.00  0.00    +0.000 HD
ENDBRANCH  18  19
ENDBRANCH   5  18
ENDBRANCH   3   5
BRANCH   2  21
ATOM     21  C   UNK A   0       1.603   6.770  19.568  0.00  0.00    +0.000 C 
BRANCH  21  22
ATOM     22  C   UNK A   0       2.256   6.979  18.215  0.00  0.00    +0.000 C 
BRANCH  22  23
ATOM     23  C   UNK A   0       2.778   8.398  18.036  0.00  0.00    +0.000 C 
BRANCH  23  24
ATOM     24  C   UNK A   0       1.618   9.330  17.691  0.00  0.00    +0.000 C 
BRANCH  24  25
ATOM     25  C   UNK A   0       1.332  10.279  18.843  0.00  0.00    +0.000 C 
BRANCH  25  26
ATOM     26  C   UNK A   0      -0.048  10.906  18.700  0.00  0.00    +0.000 C 
BRANCH  26  27
ATOM     27  C   UNK A   0      -0.900  10.059  17.764  0.00  0.00    +0.000 C 
BRANCH  27  28
ATOM     28  C   UNK A   0      -2.357  10.067  18.201  0.00  0.00    +0.000 C 
BRANCH  28  29
ATOM     29  C   UNK A   0      -3.067  11.300  17.655  0.00  0.00    +0.000 C 
BRANCH  29  30
ATOM     30  C   UNK A   0      -4.575  11.081  17.624  0.00  0.00    +0.000 C 
BRANCH  30  31
ATOM     31  C   UNK A   0      -5.243  12.062  16.669  0.00  0.00    +0.000 C 
BRANCH  31  32
ATOM     32  N   UNK A   0      -6.307  12.804  17.310  0.00  0.00    +0.000 N 
ATOM     33  C   UNK A   0      -6.826  13.994  16.888  0.00  0.00    +0.000 A 
ATOM     34  C   UNK A   0      -7.813  14.288  17.797  0.00  0.00    +0.000 A 
ATOM     35  N   UNK A   0      -7.903  13.309  18.753  0.00  0.00    +0.000 NA
ATOM     36  C   UNK A   0      -6.985  12.426  18.433  0.00  0.00    +0.000 A 
ENDBRANCH  31  32
ENDBRANCH  30  31
ENDBRANCH  29  30
ENDBRANCH  28  29
ENDBRANCH  27  28
ENDBRANCH  26  27
ENDBRANCH  25  26
ENDBRANCH  24  25
ENDBRANCH  23  24
ENDBRANCH  22  23
ENDBRANCH  21  22
ENDBRANCH   2  21
TORSDOF 19
ENDMDL
MODEL 6
REMARK VINA RESULT:      -6.1      3.851      6.120
REMARK  Name = 
REMARK  19 active torsions:
REMARK  status: ('A' for Active; 'I' for Inactive)
REMARK    1  A    between atoms: C_2  and  C_3
REMARK    2  A    between atoms: C_3  and  C_4
REMARK    3  A    between atoms: C_4  and  C_5
REMARK    4  A    between atoms: C_5  and  C_6
REMARK    5  A    between atoms: C_6  and  C_7
REMARK    6  A    between atoms: C_7  and  C_8
REMARK    7  A    between atoms: C_8  and  C_9
REMARK    8  A    between atoms: C_9  and  C_10
REMARK    9  A    between atoms: C_10  and  C_11
REMARK   10  A    between atoms: C_11  and  C_12
REMARK   11  A    between atoms: C_12  and  C_13
REMARK   12  A    between atoms: C_13  and  N_14
REMARK   13  A    between atoms: N_19  and  C_20
REMARK   14  A    between atoms: C_20  and  C_21
REMARK   15  A    between atoms: C_20  and  C_23
REMARK   16  A    between atoms: C_21  and  O_22
REMARK   17  A    between atoms: C_23  and  O_24
REMARK   18  A    between atoms: C_23  and  C_25
REMARK   19  A    between atoms: C_28  and  N_29
REMARK                            x       y       z     vdW  Elec       q    Type
REMARK                         _______ _______ _______ _____ _____    ______ ____
ROOT
ATOM      1  O   UNK A   0       1.293   6.196  20.924  0.00  0.00    +0.000 OA
ATOM      2  C   UNK A   0       1.926   6.964  20.220  0.00  0.00    +0.000 C 
ATOM      3  N   UNK A   1       1.698   8.321  20.177  0.00  0.00    +0.000 N 
ATOM      4  H   UNK A   1       2.169   8.881  19.479  0.00  0.00    +0.000 HD
ENDROOT
BRANCH   3   5
ATOM      5  C   UNK A   1       0.689   8.959  21.051  0.00  0.00    +0.000 C 
BRANCH   5   6
ATOM      6  C   UNK A   1       0.066  10.272  20.464  0.00  0.00    +0.000 C 
BRANCH   6   7
ATOM      7  C   UNK A   1       1.054  11.331  19.936  0.00  0.00    +0.000 A 
ATOM      8  C   UNK A   1       1.574  11.244  18.628  0.00  0.00    +0.000 A 
ATOM      9  C   UNK A   1       2.363  12.272  18.078  0.00  0.00    +0.000 A 
ATOM     10  C   UNK A   1       2.633  13.416  18.837  0.00  0.00    +0.000 A 
ATOM     11  C   UNK A   1       2.152  13.517  20.144  0.00  0.00    +0.000 A 
ATOM     12  C   UNK A   1       1.371  12.485  20.681  0.00  0.00    +0.000 A 
BRANCH  10  13
ATOM     13  N   UNK A   1       3.394  14.530  18.252  0.00  0.00    +0.000 N 
ATOM     14  O   UNK A   1       4.614  14.377  18.099  0.00  0.00    +0.000 OA
ATOM     15  O   UNK A   1       2.768  15.553  17.941  0.00  0.00    +0.000 OA
ENDBRANCH  10  13
ENDBRANCH   6   7
BRANCH   6  16
ATOM     16  O   UNK A   1      -0.892   9.926  19.450  0.00  0.00    +0.000 OA
ATOM     17  H   UNK A   1      -0.907   8.959  19.365  0.00  0.00    +0.000 HD
ENDBRANCH   6  16
ENDBRANCH   5   6
BRANCH   5  18
ATOM     18  C   UNK A   1       1.342   9.177  22.426  0.00  0.00    +0.000 C 
BRANCH  18  19
ATOM     19  O   UNK A   1       0.525  10.027  23.231  0.00  0.00    +0.000 OA
ATOM     20  H   UNK A   1      -0.188   9.476  23.601  0.00  0.00    +0.000 HD
ENDBRANCH  18  19
ENDBRANCH   5  18
ENDBRANCH   3   5
BRANCH   2  21
ATOM     21  C   UNK A   0       3.029   6.492  19.285  0.00  0.00    +0.000 C 
BRANCH  21  22
ATOM     22  C   UNK A   0       2.944   7.258  17.978  0.00  0.00    +0.000 C 
BRANCH  22  23
ATOM     23  C   UNK A   0       4.248   7.217  17.196  0.00  0.00    +0.000 C 
BRANCH  23  24
ATOM     24  C   UNK A   0       5.345   6.601  18.061  0.00  0.00    +0.000 C 
BRANCH  24  25
ATOM     25  C   UNK A   0       6.701   6.739  17.389  0.00  0.00    +0.000 C 
BRANCH  25  26
ATOM     26  C   UNK A   0       7.237   5.379  16.963  0.00  0.00    +0.000 C 
BRANCH  26  27
ATOM     27  C   UNK A   0       6.593   4.965  15.648  0.00  0.00    +0.000 C 
BRANCH  27  28
ATOM     28  C   UNK A   0       5.874   3.632  15.792  0.00  0.00    +0.000 C 
BRANCH  28  29
ATOM     29  C   UNK A   0       4.442   3.851  16.265  0.00  0.00    +0.000 C 
BRANCH  29  30
ATOM     30  C   UNK A   0       4.239   3.257  17.653  0.00  0.00    +0.000 C 
BRANCH  30  31
ATOM     31  C   UNK A   0       2.793   2.816  17.845  0.00  0.00    +0.000 C 
BRANCH  31  32
ATOM     32  N   UNK A   0       2.407   2.816  19.239  0.00  0.00    +0.000 N 
ATOM     33  C   UNK A   0       3.254   2.852  20.309  0.00  0.00    +0.000 A 
ATOM     34  C   UNK A   0       2.431   2.856  21.409  0.00  0.00    +0.000 A 
ATOM     35  N   UNK A   0       1.112   2.824  21.031  0.00  0.00    +0.000 NA
ATOM     36  C   UNK A   0       1.129   2.803  19.718  0.00  0.00    +0.000 A 
ENDBRANCH  31  32
ENDBRANCH  30  31
ENDBRANCH  29  30
ENDBRANCH  28  29
ENDBRANCH  27  28
ENDBRANCH  26  27
ENDBRANCH  25  26
ENDBRANCH  24  25
ENDBRANCH  23  24
ENDBRANCH  22  23
ENDBRANCH  21  22
ENDBRANCH   2  21
TORSDOF 19
ENDMDL
MODEL 7
REMARK VINA RESULT:      -6.1      1.055      1.467
REMARK  Name = 
REMARK  19 active torsions:
REMARK  status: ('A' for Active; 'I' for Inactive)
REMARK    1  A    between atoms: C_2  and  C_3
REMARK    2  A    between atoms: C_3  and  C_4
REMARK    3  A    between atoms: C_4  and  C_5
REMARK    4  A    between atoms: C_5  and  C_6
REMARK    5  A    between atoms: C_6  and  C_7
REMARK    6  A    between atoms: C_7  and  C_8
REMARK    7  A    between atoms: C_8  and  C_9
REMARK    8  A    between atoms: C_9  and  C_10
REMARK    9  A    between atoms: C_10  and  C_11
REMARK   10  A    between atoms: C_11  and  C_12
REMARK   11  A    between atoms: C_12  and  C_13
REMARK   12  A    between atoms: C_13  and  N_14
REMARK   13  A    between atoms: N_19  and  C_20
REMARK   14  A    between atoms: C_20  and  C_21
REMARK   15  A    between atoms: C_20  and  C_23
REMARK   16  A    between atoms: C_21  and  O_22
REMARK   17  A    between atoms: C_23  and  O_24
REMARK   18  A    between atoms: C_23  and  C_25
REMARK   19  A    between atoms: C_28  and  N_29
REMARK                            x       y       z     vdW  Elec       q    Type
REMARK                         _______ _______ _______ _____ _____    ______ ____
ROOT
ATOM      1  O   UNK A   0       1.158   9.030  20.084  0.00  0.00    +0.000 OA
ATOM      2  C   UNK A   0       1.374   9.276  18.910  0.00  0.00    +0.000 C 
ATOM      3  N   UNK A   1       0.629  10.166  18.169  0.00  0.00    +0.000 N 
ATOM      4  H   UNK A   1       0.779  10.228  17.171  0.00  0.00    +0.000 HD
ENDROOT
BRANCH   3   5
ATOM      5  C   UNK A   1      -0.466  10.949  18.781  0.00  0.00    +0.000 C 
BRANCH   5   6
ATOM      6  C   UNK A   1      -1.588  11.383  17.776  0.00  0.00    +0.000 C 
BRANCH   6   7
ATOM      7  C   UNK A   1      -3.033  11.386  18.311  0.00  0.00    +0.000 A 
ATOM      8  C   UNK A   1      -3.412  12.248  19.360  0.00  0.00    +0.000 A 
ATOM      9  C   UNK A   1      -4.754  12.369  19.767  0.00  0.00    +0.000 A 
ATOM     10  C   UNK A   1      -5.744  11.627  19.112  0.00  0.00    +0.000 A 
ATOM     11  C   UNK A   1      -5.393  10.746  18.088  0.00  0.00    +0.000 A 
ATOM     12  C   UNK A   1      -4.052  10.632  17.695  0.00  0.00    +0.000 A 
BRANCH  10  13
ATOM     13  N   UNK A   1      -7.159  11.796  19.476  0.00  0.00    +0.000 N 
ATOM     14  O   UNK A   1      -7.759  12.779  19.016  0.00  0.00    +0.000 OA
ATOM     15  O   UNK A   1      -7.668  10.943  20.216  0.00  0.00    +0.000 OA
ENDBRANCH  10  13
ENDBRANCH   6   7
BRANCH   6  16
ATOM     16  O   UNK A   1      -1.252  12.666  17.222  0.00  0.00    +0.000 OA
ATOM     17  H   UNK A   1      -1.002  12.538  16.292  0.00  0.00    +0.000 HD
ENDBRANCH   6  16
ENDBRANCH   5   6
BRANCH   5  18
ATOM     18  C   UNK A   1       0.171  12.143  19.509  0.00  0.00    +0.000 C 
BRANCH  18  19
ATOM     19  O   UNK A   1       0.319  11.852  20.900  0.00  0.00    +0.000 OA
ATOM     20  H   UNK A   1       1.197  12.176  21.170  0.00  0.00    +0.000 HD
ENDBRANCH  18  19
ENDBRANCH   5  18
ENDBRANCH   3   5
BRANCH   2  21
ATOM     21  C   UNK A   0       2.486   8.596  18.125  0.00  0.00    +0.000 C 
BRANCH  21  22
ATOM     22  C   UNK A   0       2.176   7.117  17.991  0.00  0.00    +0.000 C 
BRANCH  22  23
ATOM     23  C   UNK A   0       1.699   6.503  19.300  0.00  0.00    +0.000 C 
BRANCH  23  24
ATOM     24  C   UNK A   0       2.878   5.851  20.017  0.00  0.00    +0.000 C 
BRANCH  24  25
ATOM     25  C   UNK A   0       2.394   4.780  20.982  0.00  0.00    +0.000 C 
BRANCH  25  26
ATOM     26  C   UNK A   0       1.115   4.129  20.473  0.00  0.00    +0.000 C 
BRANCH  26  27
ATOM     27  C   UNK A   0       1.414   2.710  20.011  0.00  0.00    +0.000 C 
BRANCH  27  28
ATOM     28  C   UNK A   0       1.135   2.553  18.524  0.00  0.00    +0.000 C 
BRANCH  28  29
ATOM     29  C   UNK A   0       2.413   2.180  17.781  0.00  0.00    +0.000 C 
BRANCH  29  30
ATOM     30  C   UNK A   0       3.150   3.432  17.320  0.00  0.00    +0.000 C 
BRANCH  30  31
ATOM     31  C   UNK A   0       4.511   3.537  17.995  0.00  0.00    +0.000 C 
BRANCH  31  32
ATOM     32  N   UNK A   0       5.416   4.394  17.261  0.00  0.00    +0.000 N 
ATOM     33  C   UNK A   0       5.061   5.344  16.348  0.00  0.00    +0.000 A 
ATOM     34  C   UNK A   0       6.249   5.902  15.941  0.00  0.00    +0.000 A 
ATOM     35  N   UNK A   0       7.309   5.315  16.584  0.00  0.00    +0.000 NA
ATOM     36  C   UNK A   0       6.776   4.411  17.375  0.00  0.00    +0.000 A 
ENDBRANCH  31  32
ENDBRANCH  30  31
ENDBRANCH  29  30
ENDBRANCH  28  29
ENDBRANCH  27  28
ENDBRANCH  26  27
ENDBRANCH  25  26
ENDBRANCH  24  25
ENDBRANCH  23  24
ENDBRANCH  22  23
ENDBRANCH  21  22
ENDBRANCH   2  21
TORSDOF 19
ENDMDL
MODEL 8
REMARK VINA RESULT:      -6.0      4.686      8.452
REMARK  Name = 
REMARK  19 active torsions:
REMARK  status: ('A' for Active; 'I' for Inactive)
REMARK    1  A    between atoms: C_2  and  C_3
REMARK    2  A    between atoms: C_3  and  C_4
REMARK    3  A    between atoms: C_4  and  C_5
REMARK    4  A    between atoms: C_5  and  C_6
REMARK    5  A    between atoms: C_6  and  C_7
REMARK    6  A    between atoms: C_7  and  C_8
REMARK    7  A    between atoms: C_8  and  C_9
REMARK    8  A    between atoms: C_9  and  C_10
REMARK    9  A    between atoms: C_10  and  C_11
REMARK   10  A    between atoms: C_11  and  C_12
REMARK   11  A    between atoms: C_12  and  C_13
REMARK   12  A    between atoms: C_13  and  N_14
REMARK   13  A    between atoms: N_19  and  C_20
REMARK   14  A    between atoms: C_20  and  C_21
REMARK   15  A    between atoms: C_20  and  C_23
REMARK   16  A    between atoms: C_21  and  O_22
REMARK   17  A    between atoms: C_23  and  O_24
REMARK   18  A    between atoms: C_23  and  C_25
REMARK   19  A    between atoms: C_28  and  N_29
REMARK                            x       y       z     vdW  Elec       q    Type
REMARK                         _______ _______ _______ _____ _____    ______ ____
ROOT
ATOM      1  O   UNK A   0       4.647   6.144  16.028  0.00  0.00    +0.000 OA
ATOM      2  C   UNK A   0       5.159   5.210  16.621  0.00  0.00    +0.000 C 
ATOM      3  N   UNK A   1       4.559   4.554  17.673  0.00  0.00    +0.000 N 
ATOM      4  H   UNK A   1       5.089   3.876  18.202  0.00  0.00    +0.000 HD
ENDROOT
BRANCH   3   5
ATOM      5  C   UNK A   1       3.193   4.907  18.119  0.00  0.00    +0.000 C 
BRANCH   5   6
ATOM      6  C   UNK A   1       3.143   5.714  19.462  0.00  0.00    +0.000 C 
BRANCH   6   7
ATOM      7  C   UNK A   1       2.485   7.106  19.408  0.00  0.00    +0.000 A 
ATOM      8  C   UNK A   1       2.441   7.837  18.203  0.00  0.00    +0.000 A 
ATOM      9  C   UNK A   1       1.723   9.043  18.097  0.00  0.00    +0.000 A 
ATOM     10  C   UNK A   1       1.024   9.530  19.207  0.00  0.00    +0.000 A 
ATOM     11  C   UNK A   1       1.072   8.841  20.420  0.00  0.00    +0.000 A 
ATOM     12  C   UNK A   1       1.794   7.643  20.513  0.00  0.00    +0.000 A 
BRANCH  10  13
ATOM     13  N   UNK A   1       0.210  10.750  19.094  0.00  0.00    +0.000 N 
ATOM     14  O   UNK A   1      -0.851  10.796  19.733  0.00  0.00    +0.000 OA
ATOM     15  O   UNK A   1       0.636  11.660  18.370  0.00  0.00    +0.000 OA
ENDBRANCH  10  13
ENDBRANCH   6   7
BRANCH   6  16
ATOM     16  O   UNK A   1       2.526   4.902  20.476  0.00  0.00    +0.000 OA
ATOM     17  H   UNK A   1       2.891   5.165  21.337  0.00  0.00    +0.000 HD
ENDBRANCH   6  16
ENDBRANCH   5   6
BRANCH   5  18
ATOM     18  C   UNK A   1       2.378   3.605  18.180  0.00  0.00    +0.000 C 
BRANCH  18  19
ATOM     19  O   UNK A   1       2.219   3.060  16.869  0.00  0.00    +0.000 OA
ATOM     20  H   UNK A   1       3.090   3.098  16.435  0.00  0.00    +0.000 HD
ENDBRANCH  18  19
ENDBRANCH   5  18
ENDBRANCH   3   5
BRANCH   2  21
ATOM     21  C   UNK A   0       6.543   4.684  16.274  0.00  0.00    +0.000 C 
BRANCH  21  22
ATOM     22  C   UNK A   0       7.404   4.668  17.523  0.00  0.00    +0.000 C 
BRANCH  22  23
ATOM     23  C   UNK A   0       6.952   5.694  18.552  0.00  0.00    +0.000 C 
BRANCH  23  24
ATOM     24  C   UNK A   0       8.094   6.666  18.841  0.00  0.00    +0.000 C 
BRANCH  24  25
ATOM     25  C   UNK A   0       8.035   7.858  17.899  0.00  0.00    +0.000 C 
BRANCH  25  26
ATOM     26  C   UNK A   0       8.611   9.102  18.560  0.00  0.00    +0.000 C 
BRANCH  26  27
ATOM     27  C   UNK A   0       8.200  10.337  17.771  0.00  0.00    +0.000 C 
BRANCH  27  28
ATOM     28  C   UNK A   0       9.065  11.532  18.143  0.00  0.00    +0.000 C 
BRANCH  28  29
ATOM     29  C   UNK A   0      10.519  11.270  17.769  0.00  0.00    +0.000 C 
BRANCH  29  30
ATOM     30  C   UNK A   0      11.322  12.565  17.798  0.00  0.00    +0.000 C 
BRANCH  30  31
ATOM     31  C   UNK A   0      10.672  13.582  18.728  0.00  0.00    +0.000 C 
BRANCH  31  32
ATOM     32  N   UNK A   0      10.532  14.878  18.101  0.00  0.00    +0.000 N 
ATOM     33  C   UNK A   0      11.272  15.351  17.056  0.00  0.00    +0.000 A 
ATOM     34  C   UNK A   0      10.765  16.603  16.804  0.00  0.00    +0.000 A 
ATOM     35  N   UNK A   0       9.741  16.897  17.667  0.00  0.00    +0.000 NA
ATOM     36  C   UNK A   0       9.622  15.838  18.436  0.00  0.00    +0.000 A 
ENDBRANCH  31  32
ENDBRANCH  30  31
ENDBRANCH  29  30
ENDBRANCH  28  29
ENDBRANCH  27  28
ENDBRANCH  26  27
ENDBRANCH  25  26
ENDBRANCH  24  25
ENDBRANCH  23  24
ENDBRANCH  22  23
ENDBRANCH  21  22
ENDBRANCH   2  21
TORSDOF 19
ENDMDL
MODEL 9
REMARK VINA RESULT:      -6.0      3.232      4.870
REMARK  Name = 
REMARK  19 active torsions:
REMARK  status: ('A' for Active; 'I' for Inactive)
REMARK    1  A    between atoms: C_2  and  C_3
REMARK    2  A    between atoms: C_3  and  C_4
REMARK    3  A    between atoms: C_4  and  C_5
REMARK    4  A    between atoms: C_5  and  C_6
REMARK    5  A    between atoms: C_6  and  C_7
REMARK    6  A    between atoms: C_7  and  C_8
REMARK    7  A    between atoms: C_8  and  C_9
REMARK    8  A    between atoms: C_9  and  C_10
REMARK    9  A    between atoms: C_10  and  C_11
REMARK   10  A    between atoms: C_11  and  C_12
REMARK   11  A    between atoms: C_12  and  C_13
REMARK   12  A    between atoms: C_13  and  N_14
REMARK   13  A    between atoms: N_19  and  C_20
REMARK   14  A    between atoms: C_20  and  C_21
REMARK   15  A    between atoms: C_20  and  C_23
REMARK   16  A    between atoms: C_21  and  O_22
REMARK   17  A    between atoms: C_23  and  O_24
REMARK   18  A    between atoms: C_23  and  C_25
REMARK   19  A    between atoms: C_28  and  N_29
REMARK                            x       y       z     vdW  Elec       q    Type
REMARK                         _______ _______ _______ _____ _____    ______ ____
ROOT
ATOM      1  O   UNK A   0      -0.050   8.008  21.291  0.00  0.00    +0.000 OA
ATOM      2  C   UNK A   0       0.878   8.334  20.570  0.00  0.00    +0.000 C 
ATOM      3  N   UNK A   1       0.998   9.582  20.000  0.00  0.00    +0.000 N 
ATOM      4  H   UNK A   1       1.720   9.745  19.311  0.00  0.00    +0.000 HD
ENDROOT
BRANCH   3   5
ATOM      5  C   UNK A   1       0.020  10.654  20.285  0.00  0.00    +0.000 C 
BRANCH   5   6
ATOM      6  C   UNK A   1      -0.246  11.621  19.080  0.00  0.00    +0.000 C 
BRANCH   6   7
ATOM      7  C   UNK A   1       0.683  12.844  18.956  0.00  0.00    +0.000 A 
ATOM      8  C   UNK A   1       2.000  12.703  18.470  0.00  0.00    +0.000 A 
ATOM      9  C   UNK A   1       2.815  13.822  18.215  0.00  0.00    +0.000 A 
ATOM     10  C   UNK A   1       2.311  15.109  18.436  0.00  0.00    +0.000 A 
ATOM     11  C   UNK A   1       1.020  15.276  18.940  0.00  0.00    +0.000 A 
ATOM     12  C   UNK A   1       0.220  14.153  19.194  0.00  0.00    +0.000 A 
BRANCH  10  13
ATOM     13  N   UNK A   1       3.123  16.289  18.105  0.00  0.00    +0.000 N 
ATOM     14  O   UNK A   1       3.931  16.689  18.956  0.00  0.00    +0.000 OA
ATOM     15  O   UNK A   1       2.954  16.811  16.995  0.00  0.00    +0.000 OA
ENDBRANCH  10  13
ENDBRANCH   6   7
BRANCH   6  16
ATOM     16  O   UNK A   1      -0.247  10.861  17.859  0.00  0.00    +0.000 OA
ATOM     17  H   UNK A   1       0.415  10.155  17.941  0.00  0.00    +0.000 HD
ENDBRANCH   6  16
ENDBRANCH   5   6
BRANCH   5  18
ATOM     18  C   UNK A   1       0.503  11.396  21.543  0.00  0.00    +0.000 C 
BRANCH  18  19
ATOM     19  O   UNK A   1       0.163  10.652  22.714  0.00  0.00    +0.000 OA
ATOM     20  H   UNK A   1      -0.682  11.005  23.045  0.00  0.00    +0.000 HD
ENDBRANCH  18  19
ENDBRANCH   5  18
ENDBRANCH   3   5
BRANCH   2  21
ATOM     21  C   UNK A   0       1.998   7.374  20.199  0.00  0.00    +0.000 C 
BRANCH  21  22
ATOM     22  C   UNK A   0       1.744   6.027  20.849  0.00  0.00    +0.000 C 
BRANCH  22  23
ATOM     23  C   UNK A   0       1.290   4.976  19.846  0.00  0.00    +0.000 C 
BRANCH  23  24
ATOM     24  C   UNK A   0       0.992   3.668  20.575  0.00  0.00    +0.000 C 
BRANCH  24  25
ATOM     25  C   UNK A   0       1.635   2.493  19.856  0.00  0.00    +0.000 C 
BRANCH  25  26
ATOM     26  C   UNK A   0       1.641   2.716  18.350  0.00  0.00    +0.000 C 
BRANCH  26  27
ATOM     27  C   UNK A   0       2.977   2.272  17.773  0.00  0.00    +0.000 C 
BRANCH  27  28
ATOM     28  C   UNK A   0       4.106   3.161  18.272  0.00  0.00    +0.000 C 
BRANCH  28  29
ATOM     29  C   UNK A   0       4.060   4.516  17.578  0.00  0.00    +0.000 C 
BRANCH  29  30
ATOM     30  C   UNK A   0       4.852   4.479  16.276  0.00  0.00    +0.000 C 
BRANCH  30  31
ATOM     31  C   UNK A   0       6.329   4.222  16.549  0.00  0.00    +0.000 C 
BRANCH  31  32
ATOM     32  N   UNK A   0       6.948   5.321  17.257  0.00  0.00    +0.000 N 
ATOM     33  C   UNK A   0       6.988   6.622  16.846  0.00  0.00    +0.000 A 
ATOM     34  C   UNK A   0       7.657   7.286  17.846  0.00  0.00    +0.000 A 
ATOM     35  N   UNK A   0       8.021   6.421  18.847  0.00  0.00    +0.000 NA
ATOM     36  C   UNK A   0       7.578   5.245  18.465  0.00  0.00    +0.000 A 
ENDBRANCH  31  32
ENDBRANCH  30  31
ENDBRANCH  29  30
ENDBRANCH  28  29
ENDBRANCH  27  28
ENDBRANCH  26  27
ENDBRANCH  25  26
ENDBRANCH  24  25
ENDBRANCH  23  24
ENDBRANCH  22  23
ENDBRANCH  21  22
ENDBRANCH   2  21
TORSDOF 19
ENDMDL
