MODEL 1
REMARK VINA RESULT:      -7.6      0.000      0.000
REMARK  Name = 
REMARK  8 active torsions:
REMARK  status: ('A' for Active; 'I' for Inactive)
REMARK    1  A    between atoms: C_1  and  S_2
REMARK    2  A    between atoms: S_2  and  C_3
REMARK    3  A    between atoms: C_6  and  C_7
REMARK    4  A    between atoms: C_8  and  C_9
REMARK    5  A    between atoms: C_9  and  O_11
REMARK    6  A    between atoms: O_11  and  C_12
REMARK    7  A    between atoms: C_12  and  C_13
REMARK    8  A    between atoms: N_15  and  C_16
REMARK                            x       y       z     vdW  Elec       q    Type
REMARK                         _______ _______ _______ _____ _____    ______ ____
ROOT
ATOM      1  O   UNL     1       6.742   6.306  17.130  0.00  0.00    +0.000 OA
ENDROOT
BRANCH   1   2
ATOM      2  C   UNL     1       5.572   6.411  16.461  0.00  0.00    +0.000 C 
ATOM      3  O   UNL     1       5.211   5.708  15.529  0.00  0.00    +0.000 OA
BRANCH   2   5
ATOM      4  C   UNL     1       3.480   7.004  17.528  0.00  0.00    +0.000 C 
ATOM      5  C   UNL     1       4.719   7.376  17.177  0.00  0.00    +0.000 C 
BRANCH   4   9
ATOM      6  C   UNL     1       0.880   9.372  19.975  0.00  0.00    +0.000 A 
ATOM      7  C   UNL     1       1.480   8.213  20.469  0.00  0.00    +0.000 A 
ATOM      8  C   UNL     1       2.320   7.448  19.652  0.00  0.00    +0.000 A 
ATOM      9  C   UNL     1       2.561   7.824  18.327  0.00  0.00    +0.000 A 
ATOM     10  C   UNL     1       1.969   8.994  17.838  0.00  0.00    +0.000 A 
ATOM     11  C   UNL     1       1.125   9.757  18.655  0.00  0.00    +0.000 A 
BRANCH   6  13
ATOM     12  C   UNL     1      -0.475   9.077  22.356  0.00  0.00    +0.000 C 
ATOM     13  S   UNL     1      -0.213  10.295  21.040  0.00  0.00    +0.000 S 
ENDBRANCH   6  13
ENDBRANCH   4   9
ENDBRANCH   2   5
ENDBRANCH   1   2
BRANCH   1  14
ATOM     14  C   UNL     1       7.077   4.972  17.519  0.00  0.00    +0.000 C 
BRANCH  14  15
ATOM     15  C   UNL     1       6.149   4.494  18.638  0.00  0.00    +0.000 C 
ATOM     16  O   UNL     1       6.318   4.816  19.811  0.00  0.00    +0.000 OA
ATOM     17  N   UNL     1       5.099   3.677  18.231  0.00  0.00    +0.000 N 
ATOM     18  H   UNL     1       5.233   3.200  17.340  0.00  0.00    +0.000 HD
BRANCH  17  19
ATOM     19  C   UNL     1       4.192   3.102  19.219  0.00  0.00    +0.000 C 
ATOM     20  C   UNL     1       3.683   1.718  18.797  0.00  0.00    +0.000 C 
ATOM     21  C   UNL     1       2.516   1.931  17.848  0.00  0.00    +0.000 C 
ATOM     22  S   UNL     1       1.627   3.313  18.524  0.00  0.00    +0.000 S 
ATOM     23  O   UNL     1       0.615   2.800  19.425  0.00  0.00    +0.000 OA
ATOM     24  O   UNL     1       1.306   4.224  17.446  0.00  0.00    +0.000 OA
ATOM     25  C   UNL     1       2.962   3.979  19.498  0.00  0.00    +0.000 C 
ENDBRANCH  17  19
ENDBRANCH  14  15
ENDBRANCH   1  14
TORSDOF 7
ENDMDL
MODEL 2
REMARK VINA RESULT:      -7.5      1.942      4.734
REMARK  Name = 
REMARK  8 active torsions:
REMARK  status: ('A' for Active; 'I' for Inactive)
REMARK    1  A    between atoms: C_1  and  S_2
REMARK    2  A    between atoms: S_2  and  C_3
REMARK    3  A    between atoms: C_6  and  C_7
REMARK    4  A    between atoms: C_8  and  C_9
REMARK    5  A    between atoms: C_9  and  O_11
REMARK    6  A    between atoms: O_11  and  C_12
REMARK    7  A    between atoms: C_12  and  C_13
REMARK    8  A    between atoms: N_15  and  C_16
REMARK                            x       y       z     vdW  Elec       q    Type
REMARK                         _______ _______ _______ _____ _____    ______ ____
ROOT
ATOM      1  O   UNL     1       1.626   2.101  19.416  0.00  0.00    +0.000 OA
ENDROOT
BRANCH   1   2
ATOM      2  C   UNL     1       1.656   2.821  20.559  0.00  0.00    +0.000 C 
ATOM      3  O   UNL     1       2.123   2.455  21.627  0.00  0.00    +0.000 OA
BRANCH   2   5
ATOM      4  C   UNL     1       2.065   5.208  20.498  0.00  0.00    +0.000 C 
ATOM      5  C   UNL     1       1.223   4.195  20.250  0.00  0.00    +0.000 C 
BRANCH   4   9
ATOM      6  C   UNL     1       1.334   9.337  19.618  0.00  0.00    +0.000 A 
ATOM      7  C   UNL     1       0.958   8.781  20.842  0.00  0.00    +0.000 A 
ATOM      8  C   UNL     1       1.198   7.428  21.108  0.00  0.00    +0.000 A 
ATOM      9  C   UNL     1       1.804   6.609  20.150  0.00  0.00    +0.000 A 
ATOM     10  C   UNL     1       2.193   7.172  18.929  0.00  0.00    +0.000 A 
ATOM     11  C   UNL     1       1.949   8.525  18.661  0.00  0.00    +0.000 A 
BRANCH   6  13
ATOM     12  C   UNL     1       2.245  11.426  18.069  0.00  0.00    +0.000 C 
ATOM     13  S   UNL     1       0.975  11.055  19.308  0.00  0.00    +0.000 S 
ENDBRANCH   6  13
ENDBRANCH   4   9
ENDBRANCH   2   5
ENDBRANCH   1   2
BRANCH   1  14
ATOM     14  C   UNL     1       2.911   1.872  18.833  0.00  0.00    +0.000 C 
BRANCH  14  15
ATOM     15  C   UNL     1       3.207   2.926  17.764  0.00  0.00    +0.000 C 
ATOM     16  O   UNL     1       2.401   3.208  16.882  0.00  0.00    +0.000 OA
ATOM     17  N   UNL     1       4.449   3.545  17.867  0.00  0.00    +0.000 N 
ATOM     18  H   UNL     1       5.156   3.027  18.389  0.00  0.00    +0.000 HD
BRANCH  17  19
ATOM     19  C   UNL     1       4.872   4.515  16.862  0.00  0.00    +0.000 C 
ATOM     20  C   UNL     1       6.088   4.025  16.065  0.00  0.00    +0.000 C 
ATOM     21  C   UNL     1       7.327   4.336  16.888  0.00  0.00    +0.000 C 
ATOM     22  S   UNL     1       7.005   5.927  17.610  0.00  0.00    +0.000 S 
ATOM     23  O   UNL     1       7.520   6.942  16.713  0.00  0.00    +0.000 OA
ATOM     24  O   UNL     1       7.374   5.879  19.010  0.00  0.00    +0.000 OA
ATOM     25  C   UNL     1       5.231   5.886  17.454  0.00  0.00    +0.000 C 
ENDBRANCH  17  19
ENDBRANCH  14  15
ENDBRANCH   1  14
TORSDOF 7
ENDMDL
MODEL 3
REMARK VINA RESULT:      -7.3      5.324      6.309
REMARK  Name = 
REMARK  8 active torsions:
REMARK  status: ('A' for Active; 'I' for Inactive)
REMARK    1  A    between atoms: C_1  and  S_2
REMARK    2  A    between atoms: S_2  and  C_3
REMARK    3  A    between atoms: C_6  and  C_7
REMARK    4  A    between atoms: C_8  and  C_9
REMARK    5  A    between atoms: C_9  and  O_11
REMARK    6  A    between atoms: O_11  and  C_12
REMARK    7  A    between atoms: C_12  and  C_13
REMARK    8  A    between atoms: N_15  and  C_16
REMARK                            x       y       z     vdW  Elec       q    Type
REMARK                         _______ _______ _______ _____ _____    ______ ____
ROOT
ATOM      1  O   UNL     1       7.106   7.189  16.743  0.00  0.00    +0.000 OA
ENDROOT
BRANCH   1   2
ATOM      2  C   UNL     1       7.753   7.530  17.879  0.00  0.00    +0.000 C 
ATOM      3  O   UNL     1       8.094   6.766  18.770  0.00  0.00    +0.000 OA
BRANCH   2   5
ATOM      4  C   UNL     1       8.833   9.500  18.786  0.00  0.00    +0.000 C 
ATOM      5  C   UNL     1       8.165   8.941  17.768  0.00  0.00    +0.000 C 
BRANCH   4   9
ATOM      6  C   UNL     1      10.581  13.411  18.765  0.00  0.00    +0.000 A 
ATOM      7  C   UNL     1      11.038  12.420  19.635  0.00  0.00    +0.000 A 
ATOM      8  C   UNL     1      10.449  11.151  19.633  0.00  0.00    +0.000 A 
ATOM      9  C   UNL     1       9.387  10.859  18.771  0.00  0.00    +0.000 A 
ATOM     10  C   UNL     1       8.940  11.850  17.889  0.00  0.00    +0.000 A 
ATOM     11  C   UNL     1       9.527  13.122  17.895  0.00  0.00    +0.000 A 
BRANCH   6  13
ATOM     12  C   UNL     1      10.420  15.749  20.215  0.00  0.00    +0.000 C 
ATOM     13  S   UNL     1      11.336  15.025  18.828  0.00  0.00    +0.000 S 
ENDBRANCH   6  13
ENDBRANCH   4   9
ENDBRANCH   2   5
ENDBRANCH   1   2
BRANCH   1  14
ATOM     14  C   UNL     1       5.706   6.962  16.911  0.00  0.00    +0.000 C 
BRANCH  14  15
ATOM     15  C   UNL     1       5.430   5.475  17.145  0.00  0.00    +0.000 C 
ATOM     16  O   UNL     1       6.158   4.596  16.693  0.00  0.00    +0.000 OA
ATOM     17  N   UNL     1       4.302   5.193  17.909  0.00  0.00    +0.000 N 
ATOM     18  H   UNL     1       3.598   5.929  17.942  0.00  0.00    +0.000 HD
BRANCH  17  19
ATOM     19  C   UNL     1       3.898   3.809  18.137  0.00  0.00    +0.000 C 
ATOM     20  C   UNL     1       2.645   3.435  17.335  0.00  0.00    +0.000 C 
ATOM     21  C   UNL     1       1.439   3.919  18.124  0.00  0.00    +0.000 C 
ATOM     22  S   UNL     1       1.844   3.589  19.822  0.00  0.00    +0.000 S 
ATOM     23  O   UNL     1       1.352   2.267  20.154  0.00  0.00    +0.000 OA
ATOM     24  O   UNL     1       1.506   4.756  20.609  0.00  0.00    +0.000 OA
ATOM     25  C   UNL     1       3.611   3.496  19.613  0.00  0.00    +0.000 C 
ENDBRANCH  17  19
ENDBRANCH  14  15
ENDBRANCH   1  14
TORSDOF 7
ENDMDL
MODEL 4
REMARK VINA RESULT:      -7.3      5.439      6.632
REMARK  Name = 
REMARK  8 active torsions:
REMARK  status: ('A' for Active; 'I' for Inactive)
REMARK    1  A    between atoms: C_1  and  S_2
REMARK    2  A    between atoms: S_2  and  C_3
REMARK    3  A    between atoms: C_6  and  C_7
REMARK    4  A    between atoms: C_8  and  C_9
REMARK    5  A    between atoms: C_9  and  O_11
REMARK    6  A    between atoms: O_11  and  C_12
REMARK    7  A    between atoms: C_12  and  C_13
REMARK    8  A    between atoms: N_15  and  C_16
REMARK                            x       y       z     vdW  Elec       q    Type
REMARK                         _______ _______ _______ _____ _____    ______ ____
ROOT
ATOM      1  O   UNL     1       6.944   7.421  16.948  0.00  0.00    +0.000 OA
ENDROOT
BRANCH   1   2
ATOM      2  C   UNL     1       7.758   7.587  18.013  0.00  0.00    +0.000 C 
ATOM      3  O   UNL     1       8.130   6.709  18.778  0.00  0.00    +0.000 OA
BRANCH   2   5
ATOM      4  C   UNL     1       8.970   9.418  19.037  0.00  0.00    +0.000 C 
ATOM      5  C   UNL     1       8.291   8.960  17.976  0.00  0.00    +0.000 C 
BRANCH   4   9
ATOM      6  C   UNL     1      10.846  13.269  19.093  0.00  0.00    +0.000 A 
ATOM      7  C   UNL     1      10.601  12.601  17.892  0.00  0.00    +0.000 A 
ATOM      8  C   UNL     1       9.994  11.341  17.894  0.00  0.00    +0.000 A 
ATOM      9  C   UNL     1       9.637  10.724  19.097  0.00  0.00    +0.000 A 
ATOM     10  C   UNL     1       9.871  11.401  20.300  0.00  0.00    +0.000 A 
ATOM     11  C   UNL     1      10.483  12.661  20.297  0.00  0.00    +0.000 A 
BRANCH   6  13
ATOM     12  C   UNL     1      10.261  15.936  19.462  0.00  0.00    +0.000 C 
ATOM     13  S   UNL     1      11.656  14.857  19.044  0.00  0.00    +0.000 S 
ENDBRANCH   6  13
ENDBRANCH   4   9
ENDBRANCH   2   5
ENDBRANCH   1   2
BRANCH   1  14
ATOM     14  C   UNL     1       7.121   6.181  16.261  0.00  0.00    +0.000 C 
BRANCH  14  15
ATOM     15  C   UNL     1       5.791   5.429  16.167  0.00  0.00    +0.000 C 
ATOM     16  O   UNL     1       5.337   5.035  15.096  0.00  0.00    +0.000 OA
ATOM     17  N   UNL     1       5.140   5.219  17.377  0.00  0.00    +0.000 N 
ATOM     18  H   UNL     1       5.399   5.853  18.132  0.00  0.00    +0.000 HD
BRANCH  17  19
ATOM     19  C   UNL     1       3.829   4.577  17.404  0.00  0.00    +0.000 C 
ATOM     20  C   UNL     1       2.915   5.178  18.479  0.00  0.00    +0.000 C 
ATOM     21  C   UNL     1       3.268   4.516  19.800  0.00  0.00    +0.000 C 
ATOM     22  S   UNL     1       3.574   2.815  19.388  0.00  0.00    +0.000 S 
ATOM     23  O   UNL     1       2.327   2.088  19.520  0.00  0.00    +0.000 OA
ATOM     24  O   UNL     1       4.786   2.391  20.057  0.00  0.00    +0.000 OA
ATOM     25  C   UNL     1       3.900   3.063  17.654  0.00  0.00    +0.000 C 
ENDBRANCH  17  19
ENDBRANCH  14  15
ENDBRANCH   1  14
TORSDOF 7
ENDMDL
MODEL 5
REMARK VINA RESULT:      -7.3      4.764      5.890
REMARK  Name = 
REMARK  8 active torsions:
REMARK  status: ('A' for Active; 'I' for Inactive)
REMARK    1  A    between atoms: C_1  and  S_2
REMARK    2  A    between atoms: S_2  and  C_3
REMARK    3  A    between atoms: C_6  and  C_7
REMARK    4  A    between atoms: C_8  and  C_9
REMARK    5  A    between atoms: C_9  and  O_11
REMARK    6  A    between atoms: O_11  and  C_12
REMARK    7  A    between atoms: C_12  and  C_13
REMARK    8  A    between atoms: N_15  and  C_16
REMARK                            x       y       z     vdW  Elec       q    Type
REMARK                         _______ _______ _______ _____ _____    ______ ____
ROOT
ATOM      1  O   UNL     1       7.468   6.067  16.422  0.00  0.00    +0.000 OA
ENDROOT
BRANCH   1   2
ATOM      2  C   UNL     1       6.854   6.985  17.200  0.00  0.00    +0.000 C 
ATOM      3  O   UNL     1       5.675   6.984  17.519  0.00  0.00    +0.000 OA
BRANCH   2   5
ATOM      4  C   UNL     1       7.732   9.197  17.653  0.00  0.00    +0.000 C 
ATOM      5  C   UNL     1       7.886   7.871  17.769  0.00  0.00    +0.000 C 
BRANCH   4   9
ATOM      6  C   UNL     1      10.251  12.208  19.369  0.00  0.00    +0.000 A 
ATOM      7  C   UNL     1       9.554  12.439  18.182  0.00  0.00    +0.000 A 
ATOM      8  C   UNL     1       8.742  11.441  17.633  0.00  0.00    +0.000 A 
ATOM      9  C   UNL     1       8.627  10.193  18.254  0.00  0.00    +0.000 A 
ATOM     10  C   UNL     1       9.316   9.968  19.451  0.00  0.00    +0.000 A 
ATOM     11  C   UNL     1      10.132  10.967  19.999  0.00  0.00    +0.000 A 
BRANCH   6  13
ATOM     12  C   UNL     1      10.173  14.262  21.204  0.00  0.00    +0.000 C 
ATOM     13  S   UNL     1      11.303  13.496  20.012  0.00  0.00    +0.000 S 
ENDBRANCH   6  13
ENDBRANCH   4   9
ENDBRANCH   2   5
ENDBRANCH   1   2
BRANCH   1  14
ATOM     14  C   UNL     1       7.465   4.744  16.963  0.00  0.00    +0.000 C 
BRANCH  14  15
ATOM     15  C   UNL     1       6.172   4.017  16.586  0.00  0.00    +0.000 C 
ATOM     16  O   UNL     1       5.990   3.543  15.468  0.00  0.00    +0.000 OA
ATOM     17  N   UNL     1       5.225   3.926  17.600  0.00  0.00    +0.000 N 
ATOM     18  H   UNL     1       5.310   4.616  18.345  0.00  0.00    +0.000 HD
BRANCH  17  19
ATOM     19  C   UNL     1       3.924   3.318  17.336  0.00  0.00    +0.000 C 
ATOM     20  C   UNL     1       2.770   4.296  17.588  0.00  0.00    +0.000 C 
ATOM     21  C   UNL     1       2.476   4.281  19.079  0.00  0.00    +0.000 C 
ATOM     22  S   UNL     1       2.651   2.579  19.558  0.00  0.00    +0.000 S 
ATOM     23  O   UNL     1       1.354   1.942  19.441  0.00  0.00    +0.000 OA
ATOM     24  O   UNL     1       3.427   2.524  20.779  0.00  0.00    +0.000 OA
ATOM     25  C   UNL     1       3.657   2.064  18.182  0.00  0.00    +0.000 C 
ENDBRANCH  17  19
ENDBRANCH  14  15
ENDBRANCH   1  14
TORSDOF 7
ENDMDL
MODEL 6
REMARK VINA RESULT:      -7.2      4.653      5.586
REMARK  Name = 
REMARK  8 active torsions:
REMARK  status: ('A' for Active; 'I' for Inactive)
REMARK    1  A    between atoms: C_1  and  S_2
REMARK    2  A    between atoms: S_2  and  C_3
REMARK    3  A    between atoms: C_6  and  C_7
REMARK    4  A    between atoms: C_8  and  C_9
REMARK    5  A    between atoms: C_9  and  O_11
REMARK    6  A    between atoms: O_11  and  C_12
REMARK    7  A    between atoms: C_12  and  C_13
REMARK    8  A    between atoms: N_15  and  C_16
REMARK                            x       y       z     vdW  Elec       q    Type
REMARK                         _______ _______ _______ _____ _____    ______ ____
ROOT
ATOM      1  O   UNL     1       7.924   6.058  17.413  0.00  0.00    +0.000 OA
ENDROOT
BRANCH   1   2
ATOM      2  C   UNL     1       7.142   7.116  17.103  0.00  0.00    +0.000 C 
ATOM      3  O   UNL     1       6.189   7.106  16.339  0.00  0.00    +0.000 OA
BRANCH   2   5
ATOM      4  C   UNL     1       8.438   9.100  17.604  0.00  0.00    +0.000 C 
ATOM      5  C   UNL     1       7.499   8.230  18.000  0.00  0.00    +0.000 C 
BRANCH   4   9
ATOM      6  C   UNL     1       9.664  12.545  19.837  0.00  0.00    +0.000 A 
ATOM      7  C   UNL     1       9.738  11.264  20.386  0.00  0.00    +0.000 A 
ATOM      8  C   UNL     1       9.325  10.152  19.644  0.00  0.00    +0.000 A 
ATOM      9  C   UNL     1       8.821  10.306  18.349  0.00  0.00    +0.000 A 
ATOM     10  C   UNL     1       8.761  11.590  17.795  0.00  0.00    +0.000 A 
ATOM     11  C   UNL     1       9.170  12.703  18.540  0.00  0.00    +0.000 A 
BRANCH   6  13
ATOM     12  C   UNL     1      11.558  14.547  19.845  0.00  0.00    +0.000 C 
ATOM     13  S   UNL     1      10.166  13.937  20.832  0.00  0.00    +0.000 S 
ENDBRANCH   6  13
ENDBRANCH   4   9
ENDBRANCH   2   5
ENDBRANCH   1   2
BRANCH   1  14
ATOM     14  C   UNL     1       7.227   4.813  17.480  0.00  0.00    +0.000 C 
BRANCH  14  15
ATOM     15  C   UNL     1       6.322   4.773  18.713  0.00  0.00    +0.000 C 
ATOM     16  O   UNL     1       6.711   5.129  19.823  0.00  0.00    +0.000 OA
ATOM     17  N   UNL     1       5.029   4.314  18.487  0.00  0.00    +0.000 N 
ATOM     18  H   UNL     1       4.906   3.738  17.655  0.00  0.00    +0.000 HD
BRANCH  17  19
ATOM     19  C   UNL     1       4.098   4.164  19.602  0.00  0.00    +0.000 C 
ATOM     20  C   UNL     1       3.840   2.691  19.943  0.00  0.00    +0.000 C 
ATOM     21  C   UNL     1       2.777   2.180  18.985  0.00  0.00    +0.000 C 
ATOM     22  S   UNL     1       1.631   3.527  18.818  0.00  0.00    +0.000 S 
ATOM     23  O   UNL     1       0.598   3.367  19.823  0.00  0.00    +0.000 OA
ATOM     24  O   UNL     1       1.318   3.693  17.414  0.00  0.00    +0.000 OA
ATOM     25  C   UNL     1       2.734   4.823  19.346  0.00  0.00    +0.000 C 
ENDBRANCH  17  19
ENDBRANCH  14  15
ENDBRANCH   1  14
TORSDOF 7
ENDMDL
MODEL 7
REMARK VINA RESULT:      -7.1      4.927      6.019
REMARK  Name = 
REMARK  8 active torsions:
REMARK  status: ('A' for Active; 'I' for Inactive)
REMARK    1  A    between atoms: C_1  and  S_2
REMARK    2  A    between atoms: S_2  and  C_3
REMARK    3  A    between atoms: C_6  and  C_7
REMARK    4  A    between atoms: C_8  and  C_9
REMARK    5  A    between atoms: C_9  and  O_11
REMARK    6  A    between atoms: O_11  and  C_12
REMARK    7  A    between atoms: C_12  and  C_13
REMARK    8  A    between atoms: N_15  and  C_16
REMARK                            x       y       z     vdW  Elec       q    Type
REMARK                         _______ _______ _______ _____ _____    ______ ____
ROOT
ATOM      1  O   UNL     1       7.563   6.695  16.457  0.00  0.00    +0.000 OA
ENDROOT
BRANCH   1   2
ATOM      2  C   UNL     1       7.736   7.020  17.757  0.00  0.00    +0.000 C 
ATOM      3  O   UNL     1       7.880   6.235  18.682  0.00  0.00    +0.000 OA
BRANCH   2   5
ATOM      4  C   UNL     1       8.761   8.962  18.781  0.00  0.00    +0.000 C 
ATOM      5  C   UNL     1       7.933   8.478  17.845  0.00  0.00    +0.000 C 
BRANCH   4   9
ATOM      6  C   UNL     1       9.708  13.128  19.099  0.00  0.00    +0.000 A 
ATOM      7  C   UNL     1       9.204  12.590  17.914  0.00  0.00    +0.000 A 
ATOM      8  C   UNL     1       8.908  11.225  17.827  0.00  0.00    +0.000 A 
ATOM      9  C   UNL     1       9.125  10.377  18.918  0.00  0.00    +0.000 A 
ATOM     10  C   UNL     1       9.618  10.922  20.109  0.00  0.00    +0.000 A 
ATOM     11  C   UNL     1       9.918  12.287  20.194  0.00  0.00    +0.000 A 
BRANCH   6  13
ATOM     12  C   UNL     1      10.924  14.953  20.768  0.00  0.00    +0.000 C 
ATOM     13  S   UNL     1      10.107  14.865  19.153  0.00  0.00    +0.000 S 
ENDBRANCH   6  13
ENDBRANCH   4   9
ENDBRANCH   2   5
ENDBRANCH   1   2
BRANCH   1  14
ATOM     14  C   UNL     1       6.680   5.593  16.240  0.00  0.00    +0.000 C 
BRANCH  14  15
ATOM     15  C   UNL     1       5.302   5.889  16.836  0.00  0.00    +0.000 C 
ATOM     16  O   UNL     1       4.629   6.853  16.482  0.00  0.00    +0.000 OA
ATOM     17  N   UNL     1       4.865   4.986  17.800  0.00  0.00    +0.000 N 
ATOM     18  H   UNL     1       5.598   4.447  18.261  0.00  0.00    +0.000 HD
BRANCH  17  19
ATOM     19  C   UNL     1       3.599   5.206  18.491  0.00  0.00    +0.000 C 
ATOM     20  C   UNL     1       3.579   4.554  19.879  0.00  0.00    +0.000 C 
ATOM     21  C   UNL     1       3.223   3.089  19.689  0.00  0.00    +0.000 C 
ATOM     22  S   UNL     1       1.988   3.083  18.411  0.00  0.00    +0.000 S 
ATOM     23  O   UNL     1       0.686   3.170  19.042  0.00  0.00    +0.000 OA
ATOM     24  O   UNL     1       2.315   2.039  17.462  0.00  0.00    +0.000 OA
ATOM     25  C   UNL     1       2.384   4.674  17.715  0.00  0.00    +0.000 C 
ENDBRANCH  17  19
ENDBRANCH  14  15
ENDBRANCH   1  14
TORSDOF 7
ENDMDL
MODEL 8
REMARK VINA RESULT:      -7.0      4.697      5.709
REMARK  Name = 
REMARK  8 active torsions:
REMARK  status: ('A' for Active; 'I' for Inactive)
REMARK    1  A    between atoms: C_1  and  S_2
REMARK    2  A    between atoms: S_2  and  C_3
REMARK    3  A    between atoms: C_6  and  C_7
REMARK    4  A    between atoms: C_8  and  C_9
REMARK    5  A    between atoms: C_9  and  O_11
REMARK    6  A    between atoms: O_11  and  C_12
REMARK    7  A    between atoms: C_12  and  C_13
REMARK    8  A    between atoms: N_15  and  C_16
REMARK                            x       y       z     vdW  Elec       q    Type
REMARK                         _______ _______ _______ _____ _____    ______ ____
ROOT
ATOM      1  O   UNL     1       6.373   6.359  18.132  0.00  0.00    +0.000 OA
ENDROOT
BRANCH   1   2
ATOM      2  C   UNL     1       7.384   6.949  17.455  0.00  0.00    +0.000 C 
ATOM      3  O   UNL     1       7.686   6.741  16.290  0.00  0.00    +0.000 OA
BRANCH   2   5
ATOM      4  C   UNL     1       8.417   9.128  17.690  0.00  0.00    +0.000 C 
ATOM      5  C   UNL     1       7.925   8.035  18.291  0.00  0.00    +0.000 C 
BRANCH   4   9
ATOM      6  C   UNL     1       9.698  12.684  19.706  0.00  0.00    +0.000 A 
ATOM      7  C   UNL     1       9.093  12.744  18.450  0.00  0.00    +0.000 A 
ATOM      8  C   UNL     1       8.688  11.570  17.804  0.00  0.00    +0.000 A 
ATOM      9  C   UNL     1       8.895  10.321  18.398  0.00  0.00    +0.000 A 
ATOM     10  C   UNL     1       9.490  10.265  19.663  0.00  0.00    +0.000 A 
ATOM     11  C   UNL     1       9.899  11.440  20.308  0.00  0.00    +0.000 A 
BRANCH   6  13
ATOM     12  C   UNL     1       9.015  15.353  19.782  0.00  0.00    +0.000 C 
ATOM     13  S   UNL     1      10.232  14.202  20.476  0.00  0.00    +0.000 S 
ENDBRANCH   6  13
ENDBRANCH   4   9
ENDBRANCH   2   5
ENDBRANCH   1   2
BRANCH   1  14
ATOM     14  C   UNL     1       6.627   5.002  18.499  0.00  0.00    +0.000 C 
BRANCH  14  15
ATOM     15  C   UNL     1       5.647   4.065  17.789  0.00  0.00    +0.000 C 
ATOM     16  O   UNL     1       5.732   3.818  16.589  0.00  0.00    +0.000 OA
ATOM     17  N   UNL     1       4.662   3.510  18.599  0.00  0.00    +0.000 N 
ATOM     18  H   UNL     1       4.464   4.018  19.460  0.00  0.00    +0.000 HD
BRANCH  17  19
ATOM     19  C   UNL     1       3.629   2.659  18.019  0.00  0.00    +0.000 C 
ATOM     20  C   UNL     1       2.703   3.438  17.076  0.00  0.00    +0.000 C 
ATOM     21  C   UNL     1       1.655   4.127  17.934  0.00  0.00    +0.000 C 
ATOM     22  S   UNL     1       1.257   2.948  19.201  0.00  0.00    +0.000 S 
ATOM     23  O   UNL     1       0.143   2.146  18.737  0.00  0.00    +0.000 OA
ATOM     24  O   UNL     1       1.232   3.635  20.476  0.00  0.00    +0.000 OA
ATOM     25  C   UNL     1       2.744   1.975  19.072  0.00  0.00    +0.000 C 
ENDBRANCH  17  19
ENDBRANCH  14  15
ENDBRANCH   1  14
TORSDOF 7
ENDMDL
MODEL 9
REMARK VINA RESULT:      -7.0      4.629      5.915
REMARK  Name = 
REMARK  8 active torsions:
REMARK  status: ('A' for Active; 'I' for Inactive)
REMARK    1  A    between atoms: C_1  and  S_2
REMARK    2  A    between atoms: S_2  and  C_3
REMARK    3  A    between atoms: C_6  and  C_7
REMARK    4  A    between atoms: C_8  and  C_9
REMARK    5  A    between atoms: C_9  and  O_11
REMARK    6  A    between atoms: O_11  and  C_12
REMARK    7  A    between atoms: C_12  and  C_13
REMARK    8  A    between atoms: N_15  and  C_16
REMARK                            x       y       z     vdW  Elec       q    Type
REMARK                         _______ _______ _______ _____ _____    ______ ____
ROOT
ATOM      1  O   UNL     1       7.006   6.551  16.853  0.00  0.00    +0.000 OA
ENDROOT
BRANCH   1   2
ATOM      2  C   UNL     1       7.567   6.322  18.061  0.00  0.00    +0.000 C 
ATOM      3  O   UNL     1       7.623   5.246  18.636  0.00  0.00    +0.000 OA
BRANCH   2   5
ATOM      4  C   UNL     1       7.963   8.706  17.890  0.00  0.00    +0.000 C 
ATOM      5  C   UNL     1       8.283   7.543  18.473  0.00  0.00    +0.000 C 
BRANCH   4   9
ATOM      6  C   UNL     1       9.721  12.441  19.038  0.00  0.00    +0.000 A 
ATOM      7  C   UNL     1       9.964  11.274  19.764  0.00  0.00    +0.000 A 
ATOM      8  C   UNL     1       9.375  10.065  19.378  0.00  0.00    +0.000 A 
ATOM      9  C   UNL     1       8.523  10.008  18.270  0.00  0.00    +0.000 A 
ATOM     10  C   UNL     1       8.292  11.177  17.535  0.00  0.00    +0.000 A 
ATOM     11  C   UNL     1       8.878  12.388  17.925  0.00  0.00    +0.000 A 
BRANCH   6  13
ATOM     12  C   UNL     1      10.490  14.886  18.027  0.00  0.00    +0.000 C 
ATOM     13  S   UNL     1      10.462  13.966  19.589  0.00  0.00    +0.000 S 
ENDBRANCH   6  13
ENDBRANCH   4   9
ENDBRANCH   2   5
ENDBRANCH   1   2
BRANCH   1  14
ATOM     14  C   UNL     1       6.982   5.410  15.992  0.00  0.00    +0.000 C 
BRANCH  14  15
ATOM     15  C   UNL     1       5.609   4.736  16.038  0.00  0.00    +0.000 C 
ATOM     16  O   UNL     1       5.117   4.184  15.058  0.00  0.00    +0.000 OA
ATOM     17  N   UNL     1       4.964   4.786  17.269  0.00  0.00    +0.000 N 
ATOM     18  H   UNL     1       5.270   5.528  17.897  0.00  0.00    +0.000 HD
BRANCH  17  19
ATOM     19  C   UNL     1       3.618   4.240  17.415  0.00  0.00    +0.000 C 
ATOM     20  C   UNL     1       2.798   5.000  18.466  0.00  0.00    +0.000 C 
ATOM     21  C   UNL     1       3.174   4.441  19.828  0.00  0.00    +0.000 C 
ATOM     22  S   UNL     1       3.350   2.692  19.569  0.00  0.00    +0.000 S 
ATOM     23  O   UNL     1       2.068   2.067  19.825  0.00  0.00    +0.000 OA
ATOM     24  O   UNL     1       4.565   2.251  20.223  0.00  0.00    +0.000 OA
ATOM     25  C   UNL     1       3.605   2.754  17.807  0.00  0.00    +0.000 C 
ENDBRANCH  17  19
ENDBRANCH  14  15
ENDBRANCH   1  14
TORSDOF 7
ENDMDL
