MODEL 1
REMARK VINA RESULT:      -8.1      0.000      0.000
REMARK  Name = 
REMARK  7 active torsions:
REMARK  status: ('A' for Active; 'I' for Inactive)
REMARK    1  A    between atoms: C_1  and  C_2
REMARK    2  A    between atoms: C_7  and  C_8
REMARK    3  A    between atoms: C_10  and  C_12
REMARK    4  A    between atoms: C_12  and  C_13
REMARK    5  A    between atoms: C_13  and  N_14
REMARK    6  A    between atoms: C_13  and  C_15
REMARK    7  A    between atoms: C_15  and  C_16
REMARK                            x       y       z     vdW  Elec       q    Type
REMARK                         _______ _______ _______ _____ _____    ______ ____
ROOT
ATOM      1  C   UNL     1       5.597   4.896  19.270  0.00  0.00    +0.000 C 
ENDROOT
BRANCH   1  11
ATOM      2  C   UNL     1       2.436   2.579  21.572  0.00  0.00    +0.000 C 
ATOM      3  C   UNL     1       1.551   2.943  20.381  0.00  0.00    +0.000 C 
ATOM      4  C   UNL     1       0.786   4.251  20.624  0.00  0.00    +0.000 C 
ATOM      5  N   UNL     1       1.598   5.442  20.812  0.00  0.00    +0.000 N 
ATOM      6  C   UNL     1       2.281   6.102  19.816  0.00  0.00    +0.000 C 
ATOM      7  O   UNL     1       2.485   7.308  19.929  0.00  0.00    +0.000 OA
ATOM      8  C   UNL     1       2.624   5.304  18.547  0.00  0.00    +0.000 C 
ATOM      9  C   UNL     1       3.239   6.111  17.412  0.00  0.00    +0.000 C 
ATOM     10  N   UNL     1       3.263   3.998  18.857  0.00  0.00    +0.000 N 
ATOM     11  C   UNL     1       4.588   3.759  19.254  0.00  0.00    +0.000 C 
ATOM     12  O   UNL     1       4.948   2.625  19.586  0.00  0.00    +0.000 OA
ATOM     13  C   UNL     1       2.311   2.903  19.041  0.00  0.00    +0.000 C 
ATOM     14  H   UNL     1       1.333   6.068  21.565  0.00  0.00    +0.000 HD
ENDBRANCH   1  11
BRANCH   1  15
ATOM     15  C   UNL     1       6.709   4.796  18.183  0.00  0.00    +0.000 C 
BRANCH  15  16
ATOM     16  N   UNL     1       8.014   5.024  18.846  0.00  0.00    +0.000 NA
ATOM     17  H   UNL     1       8.462   5.868  18.494  0.00  0.00    +0.000 HD
ATOM     18  H   UNL     1       8.664   4.267  18.634  0.00  0.00    +0.000 HD
ENDBRANCH  15  16
BRANCH  15  19
ATOM     19  C   UNL     1       6.494   5.798  17.007  0.00  0.00    +0.000 C 
BRANCH  19  20
ATOM     20  C   UNL     1       6.547   5.184  15.615  0.00  0.00    +0.000 A 
ATOM     21  C   UNL     1       7.507   5.593  14.677  0.00  0.00    +0.000 A 
ATOM     22  C   UNL     1       7.533   5.013  13.402  0.00  0.00    +0.000 A 
ATOM     23  F   UNL     1       8.459   5.411  12.518  0.00  0.00    +0.000 F 
ATOM     24  C   UNL     1       6.620   4.029  13.055  0.00  0.00    +0.000 A 
ATOM     25  F   UNL     1       6.642   3.482  11.827  0.00  0.00    +0.000 F 
ATOM     26  C   UNL     1       5.657   3.609  13.965  0.00  0.00    +0.000 A 
ATOM     27  C   UNL     1       5.636   4.186  15.233  0.00  0.00    +0.000 A 
ATOM     28  F   UNL     1       4.701   3.779  16.104  0.00  0.00    +0.000 F 
ENDBRANCH  19  20
ENDBRANCH  15  19
ENDBRANCH   1  15
TORSDOF 5
ENDMDL
MODEL 2
REMARK VINA RESULT:      -7.6      4.678      7.630
REMARK  Name = 
REMARK  7 active torsions:
REMARK  status: ('A' for Active; 'I' for Inactive)
REMARK    1  A    between atoms: C_1  and  C_2
REMARK    2  A    between atoms: C_7  and  C_8
REMARK    3  A    between atoms: C_10  and  C_12
REMARK    4  A    between atoms: C_12  and  C_13
REMARK    5  A    between atoms: C_13  and  N_14
REMARK    6  A    between atoms: C_13  and  C_15
REMARK    7  A    between atoms: C_15  and  C_16
REMARK                            x       y       z     vdW  Elec       q    Type
REMARK                         _______ _______ _______ _____ _____    ______ ____
ROOT
ATOM      1  C   UNL     1       2.873   6.409  18.558  0.00  0.00    +0.000 C 
ENDROOT
BRANCH   1  11
ATOM      2  C   UNL     1       7.241   7.057  17.479  0.00  0.00    +0.000 C 
ATOM      3  C   UNL     1       7.040   5.795  16.641  0.00  0.00    +0.000 C 
ATOM      4  C   UNL     1       7.410   4.529  17.427  0.00  0.00    +0.000 C 
ATOM      5  N   UNL     1       6.623   4.265  18.620  0.00  0.00    +0.000 N 
ATOM      6  C   UNL     1       5.324   3.814  18.631  0.00  0.00    +0.000 C 
ATOM      7  O   UNL     1       4.930   3.145  19.583  0.00  0.00    +0.000 OA
ATOM      8  C   UNL     1       4.482   4.059  17.368  0.00  0.00    +0.000 C 
ATOM      9  C   UNL     1       3.105   3.408  17.362  0.00  0.00    +0.000 C 
ATOM     10  N   UNL     1       4.552   5.471  16.907  0.00  0.00    +0.000 N 
ATOM     11  C   UNL     1       3.898   6.588  17.449  0.00  0.00    +0.000 C 
ATOM     12  O   UNL     1       4.140   7.722  17.027  0.00  0.00    +0.000 OA
ATOM     13  C   UNL     1       5.650   5.735  15.978  0.00  0.00    +0.000 C 
ATOM     14  H   UNL     1       7.128   3.977  19.452  0.00  0.00    +0.000 HD
ENDBRANCH   1  11
BRANCH   1  15
ATOM     15  C   UNL     1       2.393   7.734  19.223  0.00  0.00    +0.000 C 
BRANCH  15  16
ATOM     16  N   UNL     1       1.835   7.400  20.553  0.00  0.00    +0.000 NA
ATOM     17  H   UNL     1       0.969   6.872  20.466  0.00  0.00    +0.000 HD
ATOM     18  H   UNL     1       1.582   8.247  21.062  0.00  0.00    +0.000 HD
ENDBRANCH  15  16
BRANCH  15  19
ATOM     19  C   UNL     1       1.351   8.502  18.352  0.00  0.00    +0.000 C 
BRANCH  19  20
ATOM     20  C   UNL     1       1.236   9.992  18.642  0.00  0.00    +0.000 A 
ATOM     21  C   UNL     1       2.175  10.905  18.137  0.00  0.00    +0.000 A 
ATOM     22  C   UNL     1       2.046  12.271  18.419  0.00  0.00    +0.000 A 
ATOM     23  F   UNL     1       2.949  13.131  17.927  0.00  0.00    +0.000 F 
ATOM     24  C   UNL     1       0.992  12.737  19.190  0.00  0.00    +0.000 A 
ATOM     25  F   UNL     1       0.877  14.047  19.467  0.00  0.00    +0.000 F 
ATOM     26  C   UNL     1       0.051  11.852  19.703  0.00  0.00    +0.000 A 
ATOM     27  C   UNL     1       0.180  10.494  19.418  0.00  0.00    +0.000 A 
ATOM     28  F   UNL     1      -0.730   9.648  19.922  0.00  0.00    +0.000 F 
ENDBRANCH  19  20
ENDBRANCH  15  19
ENDBRANCH   1  15
TORSDOF 5
ENDMDL
MODEL 3
REMARK VINA RESULT:      -7.5      1.365      2.740
REMARK  Name = 
REMARK  7 active torsions:
REMARK  status: ('A' for Active; 'I' for Inactive)
REMARK    1  A    between atoms: C_1  and  C_2
REMARK    2  A    between atoms: C_7  and  C_8
REMARK    3  A    between atoms: C_10  and  C_12
REMARK    4  A    between atoms: C_12  and  C_13
REMARK    5  A    between atoms: C_13  and  N_14
REMARK    6  A    between atoms: C_13  and  C_15
REMARK    7  A    between atoms: C_15  and  C_16
REMARK                            x       y       z     vdW  Elec       q    Type
REMARK                         _______ _______ _______ _____ _____    ______ ____
ROOT
ATOM      1  C   UNL     1       6.020   4.100  18.798  0.00  0.00    +0.000 C 
ENDROOT
BRANCH   1  11
ATOM      2  C   UNL     1       1.704   5.115  17.798  0.00  0.00    +0.000 C 
ATOM      3  C   UNL     1       1.399   4.237  19.010  0.00  0.00    +0.000 C 
ATOM      4  C   UNL     1       1.162   2.776  18.604  0.00  0.00    +0.000 C 
ATOM      5  N   UNL     1       2.282   2.097  17.973  0.00  0.00    +0.000 N 
ATOM      6  C   UNL     1       3.416   1.665  18.623  0.00  0.00    +0.000 C 
ATOM      7  O   UNL     1       4.027   0.697  18.178  0.00  0.00    +0.000 OA
ATOM      8  C   UNL     1       3.765   2.341  19.959  0.00  0.00    +0.000 C 
ATOM      9  C   UNL     1       4.934   1.728  20.718  0.00  0.00    +0.000 C 
ATOM     10  N   UNL     1       3.737   3.825  19.865  0.00  0.00    +0.000 N 
ATOM     11  C   UNL     1       4.699   4.670  19.291  0.00  0.00    +0.000 C 
ATOM     12  O   UNL     1       4.487   5.882  19.187  0.00  0.00    +0.000 OA
ATOM     13  C   UNL     1       2.426   4.411  20.145  0.00  0.00    +0.000 C 
ATOM     14  H   UNL     1       2.079   1.533  17.155  0.00  0.00    +0.000 HD
ENDBRANCH   1  11
BRANCH   1  15
ATOM     15  C   UNL     1       6.943   5.125  18.075  0.00  0.00    +0.000 C 
BRANCH  15  16
ATOM     16  N   UNL     1       7.461   6.069  19.092  0.00  0.00    +0.000 NA
ATOM     17  H   UNL     1       6.947   5.984  19.967  0.00  0.00    +0.000 HD
ATOM     18  H   UNL     1       7.323   7.035  18.793  0.00  0.00    +0.000 HD
ENDBRANCH  15  16
BRANCH  15  19
ATOM     19  C   UNL     1       6.215   5.885  16.924  0.00  0.00    +0.000 C 
BRANCH  19  20
ATOM     20  C   UNL     1       6.272   5.207  15.561  0.00  0.00    +0.000 A 
ATOM     21  C   UNL     1       7.283   5.515  14.638  0.00  0.00    +0.000 A 
ATOM     22  C   UNL     1       7.311   4.878  13.391  0.00  0.00    +0.000 A 
ATOM     23  F   UNL     1       8.286   5.180  12.521  0.00  0.00    +0.000 F 
ATOM     24  C   UNL     1       6.350   3.936  13.057  0.00  0.00    +0.000 A 
ATOM     25  F   UNL     1       6.375   3.334  11.855  0.00  0.00    +0.000 F 
ATOM     26  C   UNL     1       5.337   3.616  13.953  0.00  0.00    +0.000 A 
ATOM     27  C   UNL     1       5.313   4.249  15.194  0.00  0.00    +0.000 A 
ATOM     28  F   UNL     1       4.329   3.938  16.050  0.00  0.00    +0.000 F 
ENDBRANCH  19  20
ENDBRANCH  15  19
ENDBRANCH   1  15
TORSDOF 5
ENDMDL
MODEL 4
REMARK VINA RESULT:      -7.4      4.732      8.065
REMARK  Name = 
REMARK  7 active torsions:
REMARK  status: ('A' for Active; 'I' for Inactive)
REMARK    1  A    between atoms: C_1  and  C_2
REMARK    2  A    between atoms: C_7  and  C_8
REMARK    3  A    between atoms: C_10  and  C_12
REMARK    4  A    between atoms: C_12  and  C_13
REMARK    5  A    between atoms: C_13  and  N_14
REMARK    6  A    between atoms: C_13  and  C_15
REMARK    7  A    between atoms: C_15  and  C_16
REMARK                            x       y       z     vdW  Elec       q    Type
REMARK                         _______ _______ _______ _____ _____    ______ ____
ROOT
ATOM      1  C   UNL     1       2.856   6.470  18.867  0.00  0.00    +0.000 C 
ENDROOT
BRANCH   1  11
ATOM      2  C   UNL     1       7.153   7.078  17.515  0.00  0.00    +0.000 C 
ATOM      3  C   UNL     1       6.858   5.876  16.619  0.00  0.00    +0.000 C 
ATOM      4  C   UNL     1       7.246   4.556  17.299  0.00  0.00    +0.000 C 
ATOM      5  N   UNL     1       6.539   4.237  18.528  0.00  0.00    +0.000 N 
ATOM      6  C   UNL     1       5.231   3.817  18.606  0.00  0.00    +0.000 C 
ATOM      7  O   UNL     1       4.887   3.100  19.542  0.00  0.00    +0.000 OA
ATOM      8  C   UNL     1       4.309   4.160  17.424  0.00  0.00    +0.000 C 
ATOM      9  C   UNL     1       2.917   3.545  17.479  0.00  0.00    +0.000 C 
ATOM     10  N   UNL     1       4.387   5.596  17.045  0.00  0.00    +0.000 N 
ATOM     11  C   UNL     1       3.804   6.693  17.699  0.00  0.00    +0.000 C 
ATOM     12  O   UNL     1       4.049   7.845  17.330  0.00  0.00    +0.000 OA
ATOM     13  C   UNL     1       5.423   5.891  16.056  0.00  0.00    +0.000 C 
ATOM     14  H   UNL     1       7.093   3.885  19.302  0.00  0.00    +0.000 HD
ENDBRANCH   1  11
BRANCH   1  15
ATOM     15  C   UNL     1       2.288   7.774  19.503  0.00  0.00    +0.000 C 
BRANCH  15  16
ATOM     16  N   UNL     1       1.770   7.436  20.849  0.00  0.00    +0.000 NA
ATOM     17  H   UNL     1       2.157   8.056  21.558  0.00  0.00    +0.000 HD
ATOM     18  H   UNL     1       2.063   6.498  21.124  0.00  0.00    +0.000 HD
ENDBRANCH  15  16
BRANCH  15  19
ATOM     19  C   UNL     1       1.182   8.439  18.627  0.00  0.00    +0.000 C 
BRANCH  19  20
ATOM     20  C   UNL     1       0.787   9.850  19.041  0.00  0.00    +0.000 A 
ATOM     21  C   UNL     1      -0.316  10.080  19.877  0.00  0.00    +0.000 A 
ATOM     22  C   UNL     1      -0.658  11.388  20.242  0.00  0.00    +0.000 A 
ATOM     23  F   UNL     1      -1.712  11.592  21.045  0.00  0.00    +0.000 F 
ATOM     24  C   UNL     1       0.088  12.466  19.789  0.00  0.00    +0.000 A 
ATOM     25  F   UNL     1      -0.250  13.721  20.133  0.00  0.00    +0.000 F 
ATOM     26  C   UNL     1       1.183  12.265  18.957  0.00  0.00    +0.000 A 
ATOM     27  C   UNL     1       1.522  10.961  18.598  0.00  0.00    +0.000 A 
ATOM     28  F   UNL     1       2.577  10.776  17.792  0.00  0.00    +0.000 F 
ENDBRANCH  19  20
ENDBRANCH  15  19
ENDBRANCH   1  15
TORSDOF 5
ENDMDL
MODEL 5
REMARK VINA RESULT:      -7.3      4.748      7.105
REMARK  Name = 
REMARK  7 active torsions:
REMARK  status: ('A' for Active; 'I' for Inactive)
REMARK    1  A    between atoms: C_1  and  C_2
REMARK    2  A    between atoms: C_7  and  C_8
REMARK    3  A    between atoms: C_10  and  C_12
REMARK    4  A    between atoms: C_12  and  C_13
REMARK    5  A    between atoms: C_13  and  N_14
REMARK    6  A    between atoms: C_13  and  C_15
REMARK    7  A    between atoms: C_15  and  C_16
REMARK                            x       y       z     vdW  Elec       q    Type
REMARK                         _______ _______ _______ _____ _____    ______ ____
ROOT
ATOM      1  C   UNL     1       2.721   6.459  18.295  0.00  0.00    +0.000 C 
ENDROOT
BRANCH   1  11
ATOM      2  C   UNL     1       1.166   2.213  18.762  0.00  0.00    +0.000 C 
ATOM      3  C   UNL     1       2.484   1.998  19.505  0.00  0.00    +0.000 C 
ATOM      4  C   UNL     1       3.589   1.502  18.562  0.00  0.00    +0.000 C 
ATOM      5  N   UNL     1       3.958   2.401  17.481  0.00  0.00    +0.000 N 
ATOM      6  C   UNL     1       4.690   3.557  17.625  0.00  0.00    +0.000 C 
ATOM      7  O   UNL     1       5.377   3.951  16.686  0.00  0.00    +0.000 OA
ATOM      8  C   UNL     1       4.710   4.211  19.017  0.00  0.00    +0.000 C 
ATOM      9  C   UNL     1       5.653   5.397  19.170  0.00  0.00    +0.000 C 
ATOM     10  N   UNL     1       3.345   4.368  19.586  0.00  0.00    +0.000 N 
ATOM     11  C   UNL     1       2.376   5.327  19.251  0.00  0.00    +0.000 C 
ATOM     12  O   UNL     1       1.241   5.265  19.731  0.00  0.00    +0.000 OA
ATOM     13  C   UNL     1       2.891   3.213  20.360  0.00  0.00    +0.000 C 
ATOM     14  H   UNL     1       4.081   1.991  16.561  0.00  0.00    +0.000 HD
ENDBRANCH   1  11
BRANCH   1  15
ATOM     15  C   UNL     1       2.423   7.887  18.843  0.00  0.00    +0.000 C 
BRANCH  15  16
ATOM     16  N   UNL     1       2.078   7.761  20.278  0.00  0.00    +0.000 NA
ATOM     17  H   UNL     1       1.298   8.368  20.523  0.00  0.00    +0.000 HD
ATOM     18  H   UNL     1       2.853   8.070  20.864  0.00  0.00    +0.000 HD
ENDBRANCH  15  16
BRANCH  15  19
ATOM     19  C   UNL     1       1.288   8.609  18.054  0.00  0.00    +0.000 C 
BRANCH  19  20
ATOM     20  C   UNL     1       1.185  10.110  18.293  0.00  0.00    +0.000 A 
ATOM     21  C   UNL     1       2.291  10.953  18.106  0.00  0.00    +0.000 A 
ATOM     22  C   UNL     1       2.170  12.329  18.333  0.00  0.00    +0.000 A 
ATOM     23  F   UNL     1       3.234  13.123  18.147  0.00  0.00    +0.000 F 
ATOM     24  C   UNL     1       0.960  12.874  18.738  0.00  0.00    +0.000 A 
ATOM     25  F   UNL     1       0.850  14.195  18.965  0.00  0.00    +0.000 F 
ATOM     26  C   UNL     1      -0.149  12.060  18.933  0.00  0.00    +0.000 A 
ATOM     27  C   UNL     1      -0.025  10.691  18.703  0.00  0.00    +0.000 A 
ATOM     28  F   UNL     1      -1.099   9.912  18.898  0.00  0.00    +0.000 F 
ENDBRANCH  19  20
ENDBRANCH  15  19
ENDBRANCH   1  15
TORSDOF 5
ENDMDL
MODEL 6
REMARK VINA RESULT:      -7.3      2.409      3.630
REMARK  Name = 
REMARK  7 active torsions:
REMARK  status: ('A' for Active; 'I' for Inactive)
REMARK    1  A    between atoms: C_1  and  C_2
REMARK    2  A    between atoms: C_7  and  C_8
REMARK    3  A    between atoms: C_10  and  C_12
REMARK    4  A    between atoms: C_12  and  C_13
REMARK    5  A    between atoms: C_13  and  N_14
REMARK    6  A    between atoms: C_13  and  C_15
REMARK    7  A    between atoms: C_15  and  C_16
REMARK                            x       y       z     vdW  Elec       q    Type
REMARK                         _______ _______ _______ _____ _____    ______ ____
ROOT
ATOM      1  C   UNL     1       3.103   3.699  16.723  0.00  0.00    +0.000 C 
ENDROOT
BRANCH   1  11
ATOM      2  C   UNL     1       2.094   1.939  20.791  0.00  0.00    +0.000 C 
ATOM      3  C   UNL     1       1.371   3.270  20.994  0.00  0.00    +0.000 C 
ATOM      4  C   UNL     1       2.282   4.312  21.658  0.00  0.00    +0.000 C 
ATOM      5  N   UNL     1       3.472   4.689  20.912  0.00  0.00    +0.000 N 
ATOM      6  C   UNL     1       3.487   5.486  19.790  0.00  0.00    +0.000 C 
ATOM      7  O   UNL     1       4.486   6.158  19.548  0.00  0.00    +0.000 OA
ATOM      8  C   UNL     1       2.183   5.591  18.982  0.00  0.00    +0.000 C 
ATOM      9  C   UNL     1       2.198   6.600  17.842  0.00  0.00    +0.000 C 
ATOM     10  N   UNL     1       1.595   4.258  18.683  0.00  0.00    +0.000 N 
ATOM     11  C   UNL     1       2.012   3.330  17.716  0.00  0.00    +0.000 C 
ATOM     12  O   UNL     1       1.493   2.211  17.657  0.00  0.00    +0.000 OA
ATOM     13  C   UNL     1       0.677   3.772  19.713  0.00  0.00    +0.000 C 
ATOM     14  H   UNL     1       4.341   4.755  21.432  0.00  0.00    +0.000 HD
ENDBRANCH   1  11
BRANCH   1  15
ATOM     15  C   UNL     1       4.478   3.012  16.982  0.00  0.00    +0.000 C 
BRANCH  15  16
ATOM     16  N   UNL     1       4.747   3.065  18.437  0.00  0.00    +0.000 NA
ATOM     17  H   UNL     1       4.948   2.138  18.807  0.00  0.00    +0.000 HD
ATOM     18  H   UNL     1       3.922   3.383  18.946  0.00  0.00    +0.000 HD
ENDBRANCH  15  16
BRANCH  15  19
ATOM     19  C   UNL     1       5.640   3.666  16.172  0.00  0.00    +0.000 C 
BRANCH  19  20
ATOM     20  C   UNL     1       6.364   4.803  16.879  0.00  0.00    +0.000 A 
ATOM     21  C   UNL     1       7.250   4.552  17.939  0.00  0.00    +0.000 A 
ATOM     22  C   UNL     1       7.903   5.617  18.573  0.00  0.00    +0.000 A 
ATOM     23  F   UNL     1       8.748   5.362  19.582  0.00  0.00    +0.000 F 
ATOM     24  C   UNL     1       7.688   6.924  18.161  0.00  0.00    +0.000 A 
ATOM     25  F   UNL     1       8.309   7.944  18.778  0.00  0.00    +0.000 F 
ATOM     26  C   UNL     1       6.814   7.197  17.116  0.00  0.00    +0.000 A 
ATOM     27  C   UNL     1       6.169   6.136  16.485  0.00  0.00    +0.000 A 
ATOM     28  F   UNL     1       5.323   6.409  15.480  0.00  0.00    +0.000 F 
ENDBRANCH  19  20
ENDBRANCH  15  19
ENDBRANCH   1  15
TORSDOF 5
ENDMDL
MODEL 7
REMARK VINA RESULT:      -7.2      4.760      7.826
REMARK  Name = 
REMARK  7 active torsions:
REMARK  status: ('A' for Active; 'I' for Inactive)
REMARK    1  A    between atoms: C_1  and  C_2
REMARK    2  A    between atoms: C_7  and  C_8
REMARK    3  A    between atoms: C_10  and  C_12
REMARK    4  A    between atoms: C_12  and  C_13
REMARK    5  A    between atoms: C_13  and  N_14
REMARK    6  A    between atoms: C_13  and  C_15
REMARK    7  A    between atoms: C_15  and  C_16
REMARK                            x       y       z     vdW  Elec       q    Type
REMARK                         _______ _______ _______ _____ _____    ______ ____
ROOT
ATOM      1  C   UNL     1       2.922   6.510  18.330  0.00  0.00    +0.000 C 
ENDROOT
BRANCH   1  11
ATOM      2  C   UNL     1       7.342   7.031  17.405  0.00  0.00    +0.000 C 
ATOM      3  C   UNL     1       7.152   5.733  16.622  0.00  0.00    +0.000 C 
ATOM      4  C   UNL     1       7.466   4.502  17.485  0.00  0.00    +0.000 C 
ATOM      5  N   UNL     1       6.626   4.311  18.656  0.00  0.00    +0.000 N 
ATOM      6  C   UNL     1       5.318   3.882  18.634  0.00  0.00    +0.000 C 
ATOM      7  O   UNL     1       4.874   3.269  19.600  0.00  0.00    +0.000 OA
ATOM      8  C   UNL     1       4.534   4.078  17.325  0.00  0.00    +0.000 C 
ATOM      9  C   UNL     1       3.147   3.450  17.294  0.00  0.00    +0.000 C 
ATOM     10  N   UNL     1       4.650   5.463  16.799  0.00  0.00    +0.000 N 
ATOM     11  C   UNL     1       3.995   6.617  17.257  0.00  0.00    +0.000 C 
ATOM     12  O   UNL     1       4.276   7.724  16.790  0.00  0.00    +0.000 OA
ATOM     13  C   UNL     1       5.791   5.663  15.905  0.00  0.00    +0.000 C 
ATOM     14  H   UNL     1       7.090   4.056  19.521  0.00  0.00    +0.000 HD
ENDBRANCH   1  11
BRANCH   1  15
ATOM     15  C   UNL     1       2.360   7.876  18.827  0.00  0.00    +0.000 C 
BRANCH  15  16
ATOM     16  N   UNL     1       1.688   7.646  20.127  0.00  0.00    +0.000 NA
ATOM     17  H   UNL     1       1.878   6.709  20.477  0.00  0.00    +0.000 HD
ATOM     18  H   UNL     1       0.675   7.694  20.023  0.00  0.00    +0.000 HD
ENDBRANCH  15  16
BRANCH  15  19
ATOM     19  C   UNL     1       1.388   8.538  17.802  0.00  0.00    +0.000 C 
BRANCH  19  20
ATOM     20  C   UNL     1       0.780   9.861  18.245  0.00  0.00    +0.000 A 
ATOM     21  C   UNL     1       1.532  10.800  18.968  0.00  0.00    +0.000 A 
ATOM     22  C   UNL     1       0.948  12.010  19.364  0.00  0.00    +0.000 A 
ATOM     23  F   UNL     1       1.679  12.899  20.052  0.00  0.00    +0.000 F 
ATOM     24  C   UNL     1      -0.370  12.297  19.043  0.00  0.00    +0.000 A 
ATOM     25  F   UNL     1      -0.930  13.455  19.434  0.00  0.00    +0.000 F 
ATOM     26  C   UNL     1      -1.136  11.382  18.330  0.00  0.00    +0.000 A 
ATOM     27  C   UNL     1      -0.551  10.181  17.935  0.00  0.00    +0.000 A 
ATOM     28  F   UNL     1      -1.298   9.302  17.251  0.00  0.00    +0.000 F 
ENDBRANCH  19  20
ENDBRANCH  15  19
ENDBRANCH   1  15
TORSDOF 5
ENDMDL
MODEL 8
REMARK VINA RESULT:      -7.2      4.466      8.238
REMARK  Name = 
REMARK  7 active torsions:
REMARK  status: ('A' for Active; 'I' for Inactive)
REMARK    1  A    between atoms: C_1  and  C_2
REMARK    2  A    between atoms: C_7  and  C_8
REMARK    3  A    between atoms: C_10  and  C_12
REMARK    4  A    between atoms: C_12  and  C_13
REMARK    5  A    between atoms: C_13  and  N_14
REMARK    6  A    between atoms: C_13  and  C_15
REMARK    7  A    between atoms: C_15  and  C_16
REMARK                            x       y       z     vdW  Elec       q    Type
REMARK                         _______ _______ _______ _____ _____    ______ ____
ROOT
ATOM      1  C   UNL     1       2.631   6.102  18.516  0.00  0.00    +0.000 C 
ENDROOT
BRANCH   1  11
ATOM      2  C   UNL     1       6.985   7.104  17.681  0.00  0.00    +0.000 C 
ATOM      3  C   UNL     1       6.925   5.850  16.810  0.00  0.00    +0.000 C 
ATOM      4  C   UNL     1       7.351   4.599  17.591  0.00  0.00    +0.000 C 
ATOM      5  N   UNL     1       6.527   4.249  18.736  0.00  0.00    +0.000 N 
ATOM      6  C   UNL     1       5.267   3.700  18.670  0.00  0.00    +0.000 C 
ATOM      7  O   UNL     1       4.878   2.982  19.588  0.00  0.00    +0.000 OA
ATOM      8  C   UNL     1       4.474   3.908  17.369  0.00  0.00    +0.000 C 
ATOM      9  C   UNL     1       3.154   3.155  17.278  0.00  0.00    +0.000 C 
ATOM     10  N   UNL     1       4.460   5.331  16.938  0.00  0.00    +0.000 N 
ATOM     11  C   UNL     1       3.694   6.383  17.465  0.00  0.00    +0.000 C 
ATOM     12  O   UNL     1       3.870   7.542  17.077  0.00  0.00    +0.000 OA
ATOM     13  C   UNL     1       5.580   5.699  16.074  0.00  0.00    +0.000 C 
ATOM     14  H   UNL     1       7.009   3.981  19.588  0.00  0.00    +0.000 HD
ENDBRANCH   1  11
BRANCH   1  15
ATOM     15  C   UNL     1       2.512   7.186  19.629  0.00  0.00    +0.000 C 
BRANCH  15  16
ATOM     16  N   UNL     1       1.860   6.562  20.804  0.00  0.00    +0.000 NA
ATOM     17  H   UNL     1       0.977   6.126  20.545  0.00  0.00    +0.000 HD
ATOM     18  H   UNL     1       1.617   7.268  21.499  0.00  0.00    +0.000 HD
ENDBRANCH  15  16
BRANCH  15  19
ATOM     19  C   UNL     1       1.730   8.451  19.158  0.00  0.00    +0.000 C 
BRANCH  19  20
ATOM     20  C   UNL     1       0.940   9.167  20.245  0.00  0.00    +0.000 A 
ATOM     21  C   UNL     1       1.175   8.909  21.604  0.00  0.00    +0.000 A 
ATOM     22  C   UNL     1       0.434   9.582  22.583  0.00  0.00    +0.000 A 
ATOM     23  F   UNL     1       0.672   9.328  23.878  0.00  0.00    +0.000 F 
ATOM     24  C   UNL     1      -0.532  10.510  22.225  0.00  0.00    +0.000 A 
ATOM     25  F   UNL     1      -1.249  11.147  23.168  0.00  0.00    +0.000 F 
ATOM     26  C   UNL     1      -0.786  10.781  20.886  0.00  0.00    +0.000 A 
ATOM     27  C   UNL     1      -0.044  10.112  19.914  0.00  0.00    +0.000 A 
ATOM     28  F   UNL     1      -0.298  10.376  18.624  0.00  0.00    +0.000 F 
ENDBRANCH  19  20
ENDBRANCH  15  19
ENDBRANCH   1  15
TORSDOF 5
ENDMDL
MODEL 9
REMARK VINA RESULT:      -7.2      1.719      3.198
REMARK  Name = 
REMARK  7 active torsions:
REMARK  status: ('A' for Active; 'I' for Inactive)
REMARK    1  A    between atoms: C_1  and  C_2
REMARK    2  A    between atoms: C_7  and  C_8
REMARK    3  A    between atoms: C_10  and  C_12
REMARK    4  A    between atoms: C_12  and  C_13
REMARK    5  A    between atoms: C_13  and  N_14
REMARK    6  A    between atoms: C_13  and  C_15
REMARK    7  A    between atoms: C_15  and  C_16
REMARK                            x       y       z     vdW  Elec       q    Type
REMARK                         _______ _______ _______ _____ _____    ______ ____
ROOT
ATOM      1  C   UNL     1       5.737   4.342  18.771  0.00  0.00    +0.000 C 
ENDROOT
BRANCH   1  11
ATOM      2  C   UNL     1       1.322   4.837  17.809  0.00  0.00    +0.000 C 
ATOM      3  C   UNL     1       1.135   3.918  19.015  0.00  0.00    +0.000 C 
ATOM      4  C   UNL     1       1.073   2.442  18.597  0.00  0.00    +0.000 C 
ATOM      5  N   UNL     1       2.262   1.910  17.953  0.00  0.00    +0.000 N 
ATOM      6  C   UNL     1       3.445   1.612  18.591  0.00  0.00    +0.000 C 
ATOM      7  O   UNL     1       4.165   0.729  18.133  0.00  0.00    +0.000 OA
ATOM      8  C   UNL     1       3.720   2.314  19.930  0.00  0.00    +0.000 C 
ATOM      9  C   UNL     1       4.960   1.841  20.676  0.00  0.00    +0.000 C 
ATOM     10  N   UNL     1       3.512   3.784  19.850  0.00  0.00    +0.000 N 
ATOM     11  C   UNL     1       4.361   4.745  19.278  0.00  0.00    +0.000 C 
ATOM     12  O   UNL     1       4.003   5.923  19.186  0.00  0.00    +0.000 OA
ATOM     13  C   UNL     1       2.143   4.205  20.145  0.00  0.00    +0.000 C 
ATOM     14  H   UNL     1       2.123   1.332  17.130  0.00  0.00    +0.000 HD
ENDBRANCH   1  11
BRANCH   1  15
ATOM     15  C   UNL     1       6.203   5.092  17.487  0.00  0.00    +0.000 C 
BRANCH  15  16
ATOM     16  N   UNL     1       6.439   6.509  17.847  0.00  0.00    +0.000 NA
ATOM     17  H   UNL     1       5.596   7.066  17.719  0.00  0.00    +0.000 HD
ATOM     18  H   UNL     1       7.134   6.928  17.229  0.00  0.00    +0.000 HD
ENDBRANCH  15  16
BRANCH  15  19
ATOM     19  C   UNL     1       5.181   4.973  16.315  0.00  0.00    +0.000 C 
BRANCH  19  20
ATOM     20  C   UNL     1       5.784   4.635  14.959  0.00  0.00    +0.000 A 
ATOM     21  C   UNL     1       5.089   3.843  14.032  0.00  0.00    +0.000 A 
ATOM     22  C   UNL     1       5.667   3.546  12.791  0.00  0.00    +0.000 A 
ATOM     23  F   UNL     1       4.989   2.791  11.914  0.00  0.00    +0.000 F 
ATOM     24  C   UNL     1       6.923   4.032  12.463  0.00  0.00    +0.000 A 
ATOM     25  F   UNL     1       7.479   3.737  11.275  0.00  0.00    +0.000 F 
ATOM     26  C   UNL     1       7.633   4.816  13.365  0.00  0.00    +0.000 A 
ATOM     27  C   UNL     1       7.053   5.112  14.597  0.00  0.00    +0.000 A 
ATOM     28  F   UNL     1       7.747   5.865  15.463  0.00  0.00    +0.000 F 
ENDBRANCH  19  20
ENDBRANCH  15  19
ENDBRANCH   1  15
TORSDOF 5
ENDMDL
