MODEL 1
REMARK VINA RESULT:      -7.8      0.000      0.000
REMARK  Name = 
REMARK  6 active torsions:
REMARK  status: ('A' for Active; 'I' for Inactive)
REMARK    1  A    between atoms: C_2  and  C_13
REMARK    2  A    between atoms: N_3  and  C_4
REMARK    3  A    between atoms: C_4  and  C_5
REMARK    4  A    between atoms: C_5  and  C_6
REMARK    5  A    between atoms: C_6  and  C_7
REMARK    6  A    between atoms: C_7  and  N_8
REMARK                            x       y       z     vdW  Elec       q    Type
REMARK                         _______ _______ _______ _____ _____    ______ ____
ROOT
ATOM      1  O   UNL     1       6.881   4.957  19.454  0.00  0.00    +0.000 OA
ATOM      2  C   UNL     1       6.078   5.582  18.787  0.00  0.00    +0.000 C 
ATOM      3  N   UNL     1       6.427   6.626  17.969  0.00  0.00    +0.000 N 
ATOM      4  H   UNL     1       5.715   7.064  17.427  0.00  0.00    +0.000 HD
ENDROOT
BRANCH   2   5
ATOM      5  C   UNL     1       4.671   5.247  18.784  0.00  0.00    +0.000 A 
ATOM      6  C   UNL     1       3.898   4.544  17.869  0.00  0.00    +0.000 A 
ATOM      7  C   UNL     1       2.621   4.355  18.447  0.00  0.00    +0.000 A 
ATOM      8  C   UNL     1       1.485   3.648  18.052  0.00  0.00    +0.000 A 
ATOM      9  C   UNL     1       0.788   3.001  19.061  0.00  0.00    +0.000 A 
ATOM     10  C   UNL     1       0.830   3.532  20.347  0.00  0.00    +0.000 A 
ATOM     11  C   UNL     1       1.652   4.608  20.665  0.00  0.00    +0.000 A 
ATOM     12  C   UNL     1       2.651   4.875  19.730  0.00  0.00    +0.000 A 
ATOM     13  N   UNL     1       3.835   5.601  19.826  0.00  0.00    +0.000 N 
ATOM     14  H   UNL     1       4.120   6.117  20.620  0.00  0.00    +0.000 HD
ENDBRANCH   2   5
BRANCH   3  15
ATOM     15  C   UNL     1       7.775   7.132  17.863  0.00  0.00    +0.000 C 
BRANCH  15  16
ATOM     16  C   UNL     1       7.856   8.638  17.612  0.00  0.00    +0.000 C 
BRANCH  16  17
ATOM     17  C   UNL     1       8.733   9.365  18.637  0.00  0.00    +0.000 C 
BRANCH  17  18
ATOM     18  C   UNL     1       8.888  10.839  18.264  0.00  0.00    +0.000 C 
BRANCH  18  19
ATOM     19  N   UNL     1      10.153  11.391  18.712  0.00  0.00    +0.000 N 
ATOM     20  C   UNL     1      10.535  11.603  20.007  0.00  0.00    +0.000 A 
ATOM     21  C   UNL     1      11.809  12.116  19.922  0.00  0.00    +0.000 A 
ATOM     22  N   UNL     1      12.203  12.213  18.613  0.00  0.00    +0.000 NA
ATOM     23  C   UNL     1      11.191  11.763  17.908  0.00  0.00    +0.000 A 
ENDBRANCH  18  19
ENDBRANCH  17  18
ENDBRANCH  16  17
ENDBRANCH  15  16
ENDBRANCH   3  15
TORSDOF 6
ENDMDL
MODEL 2
REMARK VINA RESULT:      -7.5      1.030      1.217
REMARK  Name = 
REMARK  6 active torsions:
REMARK  status: ('A' for Active; 'I' for Inactive)
REMARK    1  A    between atoms: C_2  and  C_13
REMARK    2  A    between atoms: N_3  and  C_4
REMARK    3  A    between atoms: C_4  and  C_5
REMARK    4  A    between atoms: C_5  and  C_6
REMARK    5  A    between atoms: C_6  and  C_7
REMARK    6  A    between atoms: C_7  and  N_8
REMARK                            x       y       z     vdW  Elec       q    Type
REMARK                         _______ _______ _______ _____ _____    ______ ____
ROOT
ATOM      1  O   UNL     1       6.842   5.090  19.279  0.00  0.00    +0.000 OA
ATOM      2  C   UNL     1       5.986   5.586  18.571  0.00  0.00    +0.000 C 
ATOM      3  N   UNL     1       6.258   6.502  17.587  0.00  0.00    +0.000 N 
ATOM      4  H   UNL     1       5.505   6.835  17.026  0.00  0.00    +0.000 HD
ENDROOT
BRANCH   2   5
ATOM      5  C   UNL     1       4.592   5.219  18.696  0.00  0.00    +0.000 A 
ATOM      6  C   UNL     1       3.726   4.592  17.810  0.00  0.00    +0.000 A 
ATOM      7  C   UNL     1       2.529   4.315  18.509  0.00  0.00    +0.000 A 
ATOM      8  C   UNL     1       1.362   3.625  18.177  0.00  0.00    +0.000 A 
ATOM      9  C   UNL     1       0.797   2.863  19.189  0.00  0.00    +0.000 A 
ATOM     10  C   UNL     1       0.983   3.263  20.508  0.00  0.00    +0.000 A 
ATOM     11  C   UNL     1       1.823   4.321  20.838  0.00  0.00    +0.000 A 
ATOM     12  C   UNL     1       2.702   4.705  19.826  0.00  0.00    +0.000 A 
ATOM     13  N   UNL     1       3.880   5.446  19.858  0.00  0.00    +0.000 N 
ATOM     14  H   UNL     1       4.250   5.887  20.663  0.00  0.00    +0.000 HD
ENDBRANCH   2   5
BRANCH   3  15
ATOM     15  C   UNL     1       7.581   7.020  17.332  0.00  0.00    +0.000 C 
BRANCH  15  16
ATOM     16  C   UNL     1       8.145   7.872  18.469  0.00  0.00    +0.000 C 
BRANCH  16  17
ATOM     17  C   UNL     1       8.409   9.323  18.050  0.00  0.00    +0.000 C 
BRANCH  17  18
ATOM     18  C   UNL     1       9.164  10.072  19.148  0.00  0.00    +0.000 C 
BRANCH  18  19
ATOM     19  N   UNL     1       9.630  11.373  18.706  0.00  0.00    +0.000 N 
ATOM     20  C   UNL     1      10.502  11.622  17.684  0.00  0.00    +0.000 A 
ATOM     21  C   UNL     1      10.616  12.992  17.638  0.00  0.00    +0.000 A 
ATOM     22  N   UNL     1       9.833  13.573  18.602  0.00  0.00    +0.000 NA
ATOM     23  C   UNL     1       9.246  12.576  19.224  0.00  0.00    +0.000 A 
ENDBRANCH  18  19
ENDBRANCH  17  18
ENDBRANCH  16  17
ENDBRANCH  15  16
ENDBRANCH   3  15
TORSDOF 6
ENDMDL
MODEL 3
REMARK VINA RESULT:      -7.3      1.502      2.029
REMARK  Name = 
REMARK  6 active torsions:
REMARK  status: ('A' for Active; 'I' for Inactive)
REMARK    1  A    between atoms: C_2  and  C_13
REMARK    2  A    between atoms: N_3  and  C_4
REMARK    3  A    between atoms: C_4  and  C_5
REMARK    4  A    between atoms: C_5  and  C_6
REMARK    5  A    between atoms: C_6  and  C_7
REMARK    6  A    between atoms: C_7  and  N_8
REMARK                            x       y       z     vdW  Elec       q    Type
REMARK                         _______ _______ _______ _____ _____    ______ ____
ROOT
ATOM      1  O   UNL     1       7.463   4.411  18.104  0.00  0.00    +0.000 OA
ATOM      2  C   UNL     1       6.421   5.027  18.233  0.00  0.00    +0.000 C 
ATOM      3  N   UNL     1       6.260   6.329  17.833  0.00  0.00    +0.000 N 
ATOM      4  H   UNL     1       5.364   6.752  17.939  0.00  0.00    +0.000 HD
ENDROOT
BRANCH   2   5
ATOM      5  C   UNL     1       5.242   4.411  18.801  0.00  0.00    +0.000 A 
ATOM      6  C   UNL     1       4.375   4.839  19.798  0.00  0.00    +0.000 A 
ATOM      7  C   UNL     1       3.289   3.933  19.833  0.00  0.00    +0.000 A 
ATOM      8  C   UNL     1       2.088   3.904  20.543  0.00  0.00    +0.000 A 
ATOM      9  C   UNL     1       0.981   3.442  19.847  0.00  0.00    +0.000 A 
ATOM     10  C   UNL     1       1.173   2.520  18.823  0.00  0.00    +0.000 A 
ATOM     11  C   UNL     1       2.447   2.156  18.399  0.00  0.00    +0.000 A 
ATOM     12  C   UNL     1       3.466   3.012  18.815  0.00  0.00    +0.000 A 
ATOM     13  N   UNL     1       4.764   3.196  18.348  0.00  0.00    +0.000 N 
ATOM     14  H   UNL     1       5.193   2.657  17.638  0.00  0.00    +0.000 HD
ENDBRANCH   2   5
BRANCH   3  15
ATOM     15  C   UNL     1       7.328   7.124  17.276  0.00  0.00    +0.000 C 
BRANCH  15  16
ATOM     16  C   UNL     1       8.194   7.824  18.324  0.00  0.00    +0.000 C 
BRANCH  16  17
ATOM     17  C   UNL     1       8.342   9.327  18.064  0.00  0.00    +0.000 C 
BRANCH  17  18
ATOM     18  C   UNL     1       9.106   9.999  19.205  0.00  0.00    +0.000 C 
BRANCH  18  19
ATOM     19  N   UNL     1       9.266  11.426  18.997  0.00  0.00    +0.000 N 
ATOM     20  C   UNL     1       9.069  12.104  17.827  0.00  0.00    +0.000 A 
ATOM     21  C   UNL     1       9.323  13.421  18.132  0.00  0.00    +0.000 A 
ATOM     22  N   UNL     1       9.662  13.553  19.454  0.00  0.00    +0.000 NA
ATOM     23  C   UNL     1       9.613  12.338  19.951  0.00  0.00    +0.000 A 
ENDBRANCH  18  19
ENDBRANCH  17  18
ENDBRANCH  16  17
ENDBRANCH  15  16
ENDBRANCH   3  15
TORSDOF 6
ENDMDL
MODEL 4
REMARK VINA RESULT:      -7.3      0.995      1.201
REMARK  Name = 
REMARK  6 active torsions:
REMARK  status: ('A' for Active; 'I' for Inactive)
REMARK    1  A    between atoms: C_2  and  C_13
REMARK    2  A    between atoms: N_3  and  C_4
REMARK    3  A    between atoms: C_4  and  C_5
REMARK    4  A    between atoms: C_5  and  C_6
REMARK    5  A    between atoms: C_6  and  C_7
REMARK    6  A    between atoms: C_7  and  N_8
REMARK                            x       y       z     vdW  Elec       q    Type
REMARK                         _______ _______ _______ _____ _____    ______ ____
ROOT
ATOM      1  O   UNL     1       6.244   5.020  16.437  0.00  0.00    +0.000 OA
ATOM      2  C   UNL     1       5.751   5.483  17.448  0.00  0.00    +0.000 C 
ATOM      3  N   UNL     1       6.392   6.390  18.253  0.00  0.00    +0.000 N 
ATOM      4  H   UNL     1       5.906   6.751  19.044  0.00  0.00    +0.000 HD
ENDROOT
BRANCH   2   5
ATOM      5  C   UNL     1       4.413   5.129  17.871  0.00  0.00    +0.000 A 
ATOM      6  C   UNL     1       3.519   4.185  17.385  0.00  0.00    +0.000 A 
ATOM      7  C   UNL     1       2.425   4.135  18.281  0.00  0.00    +0.000 A 
ATOM      8  C   UNL     1       1.294   3.322  18.369  0.00  0.00    +0.000 A 
ATOM      9  C   UNL     1       0.900   2.963  19.649  0.00  0.00    +0.000 A 
ATOM     10  C   UNL     1       1.184   3.829  20.702  0.00  0.00    +0.000 A 
ATOM     11  C   UNL     1       1.960   4.968  20.520  0.00  0.00    +0.000 A 
ATOM     12  C   UNL     1       2.697   4.989  19.337  0.00  0.00    +0.000 A 
ATOM     13  N   UNL     1       3.805   5.738  18.952  0.00  0.00    +0.000 N 
ATOM     14  H   UNL     1       4.215   6.460  19.490  0.00  0.00    +0.000 HD
ENDBRANCH   2   5
BRANCH   3  15
ATOM     15  C   UNL     1       7.743   6.840  18.018  0.00  0.00    +0.000 C 
BRANCH  15  16
ATOM     16  C   UNL     1       7.847   8.304  17.592  0.00  0.00    +0.000 C 
BRANCH  16  17
ATOM     17  C   UNL     1       8.575   9.173  18.623  0.00  0.00    +0.000 C 
BRANCH  17  18
ATOM     18  C   UNL     1       8.948  10.527  18.019  0.00  0.00    +0.000 C 
BRANCH  18  19
ATOM     19  N   UNL     1      10.046  11.161  18.725  0.00  0.00    +0.000 N 
ATOM     20  C   UNL     1      11.148  11.742  18.162  0.00  0.00    +0.000 A 
ATOM     21  C   UNL     1      11.882  12.215  19.225  0.00  0.00    +0.000 A 
ATOM     22  N   UNL     1      11.248  11.939  20.410  0.00  0.00    +0.000 NA
ATOM     23  C   UNL     1      10.144  11.311  20.078  0.00  0.00    +0.000 A 
ENDBRANCH  18  19
ENDBRANCH  17  18
ENDBRANCH  16  17
ENDBRANCH  15  16
ENDBRANCH   3  15
TORSDOF 6
ENDMDL
MODEL 5
REMARK VINA RESULT:      -7.2      1.424      1.886
REMARK  Name = 
REMARK  6 active torsions:
REMARK  status: ('A' for Active; 'I' for Inactive)
REMARK    1  A    between atoms: C_2  and  C_13
REMARK    2  A    between atoms: N_3  and  C_4
REMARK    3  A    between atoms: C_4  and  C_5
REMARK    4  A    between atoms: C_5  and  C_6
REMARK    5  A    between atoms: C_6  and  C_7
REMARK    6  A    between atoms: C_7  and  N_8
REMARK                            x       y       z     vdW  Elec       q    Type
REMARK                         _______ _______ _______ _____ _____    ______ ____
ROOT
ATOM      1  O   UNL     1       7.752   5.462  19.570  0.00  0.00    +0.000 OA
ATOM      2  C   UNL     1       6.776   5.718  18.891  0.00  0.00    +0.000 C 
ATOM      3  N   UNL     1       6.772   6.670  17.904  0.00  0.00    +0.000 N 
ATOM      4  H   UNL     1       5.943   6.795  17.366  0.00  0.00    +0.000 HD
ENDROOT
BRANCH   2   5
ATOM      5  C   UNL     1       5.529   5.002  19.054  0.00  0.00    +0.000 A 
ATOM      6  C   UNL     1       4.247   5.449  19.346  0.00  0.00    +0.000 A 
ATOM      7  C   UNL     1       3.371   4.347  19.211  0.00  0.00    +0.000 A 
ATOM      8  C   UNL     1       1.984   4.210  19.278  0.00  0.00    +0.000 A 
ATOM      9  C   UNL     1       1.416   3.325  18.374  0.00  0.00    +0.000 A 
ATOM     10  C   UNL     1       2.172   2.244  17.934  0.00  0.00    +0.000 A 
ATOM     11  C   UNL     1       3.514   2.106  18.273  0.00  0.00    +0.000 A 
ATOM     12  C   UNL     1       4.111   3.264  18.769  0.00  0.00    +0.000 A 
ATOM     13  N   UNL     1       5.448   3.633  18.892  0.00  0.00    +0.000 N 
ATOM     14  H   UNL     1       6.219   3.049  18.682  0.00  0.00    +0.000 HD
ENDBRANCH   2   5
BRANCH   3  15
ATOM     15  C   UNL     1       7.908   7.512  17.613  0.00  0.00    +0.000 C 
BRANCH  15  16
ATOM     16  C   UNL     1       7.684   8.991  17.930  0.00  0.00    +0.000 C 
BRANCH  16  17
ATOM     17  C   UNL     1       8.994   9.771  18.082  0.00  0.00    +0.000 C 
BRANCH  17  18
ATOM     18  C   UNL     1       9.193  10.214  19.531  0.00  0.00    +0.000 C 
BRANCH  18  19
ATOM     19  N   UNL     1       9.709  11.566  19.629  0.00  0.00    +0.000 N 
ATOM     20  C   UNL     1       9.355  12.631  18.847  0.00  0.00    +0.000 A 
ATOM     21  C   UNL     1      10.092  13.687  19.331  0.00  0.00    +0.000 A 
ATOM     22  N   UNL     1      10.874  13.287  20.384  0.00  0.00    +0.000 NA
ATOM     23  C   UNL     1      10.618  12.009  20.545  0.00  0.00    +0.000 A 
ENDBRANCH  18  19
ENDBRANCH  17  18
ENDBRANCH  16  17
ENDBRANCH  15  16
ENDBRANCH   3  15
TORSDOF 6
ENDMDL
MODEL 6
REMARK VINA RESULT:      -7.2      1.505      1.946
REMARK  Name = 
REMARK  6 active torsions:
REMARK  status: ('A' for Active; 'I' for Inactive)
REMARK    1  A    between atoms: C_2  and  C_13
REMARK    2  A    between atoms: N_3  and  C_4
REMARK    3  A    between atoms: C_4  and  C_5
REMARK    4  A    between atoms: C_5  and  C_6
REMARK    5  A    between atoms: C_6  and  C_7
REMARK    6  A    between atoms: C_7  and  N_8
REMARK                            x       y       z     vdW  Elec       q    Type
REMARK                         _______ _______ _______ _____ _____    ______ ____
ROOT
ATOM      1  O   UNL     1       4.864   6.383  16.303  0.00  0.00    +0.000 OA
ATOM      2  C   UNL     1       5.231   5.951  17.379  0.00  0.00    +0.000 C 
ATOM      3  N   UNL     1       6.426   6.291  17.960  0.00  0.00    +0.000 N 
ATOM      4  H   UNL     1       6.639   5.923  18.861  0.00  0.00    +0.000 HD
ENDROOT
BRANCH   2   5
ATOM      5  C   UNL     1       4.407   5.053  18.157  0.00  0.00    +0.000 A 
ATOM      6  C   UNL     1       4.205   4.948  19.527  0.00  0.00    +0.000 A 
ATOM      7  C   UNL     1       3.160   4.018  19.734  0.00  0.00    +0.000 A 
ATOM      8  C   UNL     1       2.467   3.590  20.867  0.00  0.00    +0.000 A 
ATOM      9  C   UNL     1       1.109   3.364  20.701  0.00  0.00    +0.000 A 
ATOM     10  C   UNL     1       0.646   2.973  19.448  0.00  0.00    +0.000 A 
ATOM     11  C   UNL     1       1.486   2.932  18.341  0.00  0.00    +0.000 A 
ATOM     12  C   UNL     1       2.687   3.623  18.494  0.00  0.00    +0.000 A 
ATOM     13  N   UNL     1       3.604   4.099  17.561  0.00  0.00    +0.000 N 
ATOM     14  H   UNL     1       3.551   3.945  16.585  0.00  0.00    +0.000 HD
ENDBRANCH   2   5
BRANCH   3  15
ATOM     15  C   UNL     1       7.401   7.145  17.324  0.00  0.00    +0.000 C 
BRANCH  15  16
ATOM     16  C   UNL     1       8.241   7.967  18.303  0.00  0.00    +0.000 C 
BRANCH  16  17
ATOM     17  C   UNL     1       8.258   9.461  17.962  0.00  0.00    +0.000 C 
BRANCH  17  18
ATOM     18  C   UNL     1       9.142  10.227  18.945  0.00  0.00    +0.000 C 
BRANCH  18  19
ATOM     19  N   UNL     1       9.694  11.436  18.363  0.00  0.00    +0.000 N 
ATOM     20  C   UNL     1       9.046  12.628  18.197  0.00  0.00    +0.000 A 
ATOM     21  C   UNL     1       9.979  13.464  17.627  0.00  0.00    +0.000 A 
ATOM     22  N   UNL     1      11.170  12.807  17.452  0.00  0.00    +0.000 NA
ATOM     23  C   UNL     1      10.971  11.592  17.909  0.00  0.00    +0.000 A 
ENDBRANCH  18  19
ENDBRANCH  17  18
ENDBRANCH  16  17
ENDBRANCH  15  16
ENDBRANCH   3  15
TORSDOF 6
ENDMDL
MODEL 7
REMARK VINA RESULT:      -7.1      1.308      1.486
REMARK  Name = 
REMARK  6 active torsions:
REMARK  status: ('A' for Active; 'I' for Inactive)
REMARK    1  A    between atoms: C_2  and  C_13
REMARK    2  A    between atoms: N_3  and  C_4
REMARK    3  A    between atoms: C_4  and  C_5
REMARK    4  A    between atoms: C_5  and  C_6
REMARK    5  A    between atoms: C_6  and  C_7
REMARK    6  A    between atoms: C_7  and  N_8
REMARK                            x       y       z     vdW  Elec       q    Type
REMARK                         _______ _______ _______ _____ _____    ______ ____
ROOT
ATOM      1  O   UNL     1       7.538   4.561  18.220  0.00  0.00    +0.000 OA
ATOM      2  C   UNL     1       6.517   5.223  18.187  0.00  0.00    +0.000 C 
ATOM      3  N   UNL     1       6.473   6.519  17.740  0.00  0.00    +0.000 N 
ATOM      4  H   UNL     1       5.592   6.982  17.710  0.00  0.00    +0.000 HD
ENDROOT
BRANCH   2   5
ATOM      5  C   UNL     1       5.243   4.673  18.596  0.00  0.00    +0.000 A 
ATOM      6  C   UNL     1       4.882   3.392  18.989  0.00  0.00    +0.000 A 
ATOM      7  C   UNL     1       3.547   3.450  19.453  0.00  0.00    +0.000 A 
ATOM      8  C   UNL     1       2.699   2.519  20.054  0.00  0.00    +0.000 A 
ATOM      9  C   UNL     1       1.874   3.004  21.057  0.00  0.00    +0.000 A 
ATOM     10  C   UNL     1       1.473   4.335  21.004  0.00  0.00    +0.000 A 
ATOM     11  C   UNL     1       1.980   5.213  20.053  0.00  0.00    +0.000 A 
ATOM     12  C   UNL     1       3.136   4.771  19.410  0.00  0.00    +0.000 A 
ATOM     13  N   UNL     1       4.107   5.454  18.683  0.00  0.00    +0.000 N 
ATOM     14  H   UNL     1       4.072   6.417  18.456  0.00  0.00    +0.000 HD
ENDBRANCH   2   5
BRANCH   3  15
ATOM     15  C   UNL     1       7.644   7.253  17.324  0.00  0.00    +0.000 C 
BRANCH  15  16
ATOM     16  C   UNL     1       8.299   8.067  18.441  0.00  0.00    +0.000 C 
BRANCH  16  17
ATOM     17  C   UNL     1       8.403   9.558  18.105  0.00  0.00    +0.000 C 
BRANCH  17  18
ATOM     18  C   UNL     1       9.303  10.275  19.112  0.00  0.00    +0.000 C 
BRANCH  18  19
ATOM     19  N   UNL     1      10.010  11.395  18.520  0.00  0.00    +0.000 N 
ATOM     20  C   UNL     1      11.363  11.594  18.518  0.00  0.00    +0.000 A 
ATOM     21  C   UNL     1      11.548  12.768  17.826  0.00  0.00    +0.000 A 
ATOM     22  N   UNL     1      10.345  13.277  17.409  0.00  0.00    +0.000 NA
ATOM     23  C   UNL     1       9.438  12.427  17.834  0.00  0.00    +0.000 A 
ENDBRANCH  18  19
ENDBRANCH  17  18
ENDBRANCH  16  17
ENDBRANCH  15  16
ENDBRANCH   3  15
TORSDOF 6
ENDMDL
MODEL 8
REMARK VINA RESULT:      -7.1      1.405      1.880
REMARK  Name = 
REMARK  6 active torsions:
REMARK  status: ('A' for Active; 'I' for Inactive)
REMARK    1  A    between atoms: C_2  and  C_13
REMARK    2  A    between atoms: N_3  and  C_4
REMARK    3  A    between atoms: C_4  and  C_5
REMARK    4  A    between atoms: C_5  and  C_6
REMARK    5  A    between atoms: C_6  and  C_7
REMARK    6  A    between atoms: C_7  and  N_8
REMARK                            x       y       z     vdW  Elec       q    Type
REMARK                         _______ _______ _______ _____ _____    ______ ____
ROOT
ATOM      1  O   UNL     1       7.447   5.175  16.431  0.00  0.00    +0.000 OA
ATOM      2  C   UNL     1       6.640   5.634  17.217  0.00  0.00    +0.000 C 
ATOM      3  N   UNL     1       6.678   6.929  17.668  0.00  0.00    +0.000 N 
ATOM      4  H   UNL     1       5.958   7.240  18.283  0.00  0.00    +0.000 HD
ENDROOT
BRANCH   2   5
ATOM      5  C   UNL     1       5.539   4.843  17.721  0.00  0.00    +0.000 A 
ATOM      6  C   UNL     1       5.380   4.146  18.912  0.00  0.00    +0.000 A 
ATOM      7  C   UNL     1       4.040   3.698  18.967  0.00  0.00    +0.000 A 
ATOM      8  C   UNL     1       3.286   3.048  19.945  0.00  0.00    +0.000 A 
ATOM      9  C   UNL     1       1.965   3.452  20.065  0.00  0.00    +0.000 A 
ATOM     10  C   UNL     1       1.314   3.946  18.939  0.00  0.00    +0.000 A 
ATOM     11  C   UNL     1       1.989   4.164  17.742  0.00  0.00    +0.000 A 
ATOM     12  C   UNL     1       3.379   4.187  17.853  0.00  0.00    +0.000 A 
ATOM     13  N   UNL     1       4.364   4.692  17.010  0.00  0.00    +0.000 N 
ATOM     14  H   UNL     1       4.199   5.081  16.115  0.00  0.00    +0.000 HD
ENDBRANCH   2   5
BRANCH   3  15
ATOM     15  C   UNL     1       7.718   7.862  17.308  0.00  0.00    +0.000 C 
BRANCH  15  16
ATOM     16  C   UNL     1       8.444   8.477  18.505  0.00  0.00    +0.000 C 
BRANCH  16  17
ATOM     17  C   UNL     1       8.800   9.952  18.289  0.00  0.00    +0.000 C 
BRANCH  17  18
ATOM     18  C   UNL     1       9.491  10.526  19.527  0.00  0.00    +0.000 C 
BRANCH  18  19
ATOM     19  N   UNL     1      10.602  11.394  19.185  0.00  0.00    +0.000 N 
ATOM     20  C   UNL     1      10.991  11.761  17.927  0.00  0.00    +0.000 A 
ATOM     21  C   UNL     1      12.066  12.597  18.117  0.00  0.00    +0.000 A 
ATOM     22  N   UNL     1      12.330  12.747  19.454  0.00  0.00    +0.000 NA
ATOM     23  C   UNL     1      11.430  12.018  20.073  0.00  0.00    +0.000 A 
ENDBRANCH  18  19
ENDBRANCH  17  18
ENDBRANCH  16  17
ENDBRANCH  15  16
ENDBRANCH   3  15
TORSDOF 6
ENDMDL
MODEL 9
REMARK VINA RESULT:      -7.1      5.200      7.978
REMARK  Name = 
REMARK  6 active torsions:
REMARK  status: ('A' for Active; 'I' for Inactive)
REMARK    1  A    between atoms: C_2  and  C_13
REMARK    2  A    between atoms: N_3  and  C_4
REMARK    3  A    between atoms: C_4  and  C_5
REMARK    4  A    between atoms: C_5  and  C_6
REMARK    5  A    between atoms: C_6  and  C_7
REMARK    6  A    between atoms: C_7  and  N_8
REMARK                            x       y       z     vdW  Elec       q    Type
REMARK                         _______ _______ _______ _____ _____    ______ ____
ROOT
ATOM      1  O   UNL     1       6.712   4.731  18.722  0.00  0.00    +0.000 OA
ATOM      2  C   UNL     1       5.968   4.215  17.909  0.00  0.00    +0.000 C 
ATOM      3  N   UNL     1       4.923   3.397  18.255  0.00  0.00    +0.000 N 
ATOM      4  H   UNL     1       4.337   3.042  17.532  0.00  0.00    +0.000 HD
ENDROOT
BRANCH   2   5
ATOM      5  C   UNL     1       6.113   4.454  16.490  0.00  0.00    +0.000 A 
ATOM      6  C   UNL     1       7.187   4.923  15.745  0.00  0.00    +0.000 A 
ATOM      7  C   UNL     1       6.845   4.793  14.378  0.00  0.00    +0.000 A 
ATOM      8  C   UNL     1       7.547   5.001  13.190  0.00  0.00    +0.000 A 
ATOM      9  C   UNL     1       7.301   4.094  12.171  0.00  0.00    +0.000 A 
ATOM     10  C   UNL     1       6.053   3.482  12.110  0.00  0.00    +0.000 A 
ATOM     11  C   UNL     1       5.105   3.657  13.112  0.00  0.00    +0.000 A 
ATOM     12  C   UNL     1       5.606   4.180  14.303  0.00  0.00    +0.000 A 
ATOM     13  N   UNL     1       5.093   4.186  15.597  0.00  0.00    +0.000 N 
ATOM     14  H   UNL     1       4.202   3.843  15.855  0.00  0.00    +0.000 HD
ENDBRANCH   2   5
BRANCH   3  15
ATOM     15  C   UNL     1       4.637   3.011  19.616  0.00  0.00    +0.000 C 
BRANCH  15  16
ATOM     16  C   UNL     1       3.352   2.198  19.776  0.00  0.00    +0.000 C 
BRANCH  16  17
ATOM     17  C   UNL     1       2.337   2.869  20.708  0.00  0.00    +0.000 C 
BRANCH  17  18
ATOM     18  C   UNL     1       1.303   3.654  19.901  0.00  0.00    +0.000 C 
BRANCH  18  19
ATOM     19  N   UNL     1       1.829   4.913  19.408  0.00  0.00    +0.000 N 
ATOM     20  C   UNL     1       2.057   5.243  18.101  0.00  0.00    +0.000 A 
ATOM     21  C   UNL     1       2.534   6.533  18.139  0.00  0.00    +0.000 A 
ATOM     22  N   UNL     1       2.593   6.988  19.431  0.00  0.00    +0.000 NA
ATOM     23  C   UNL     1       2.157   5.995  20.172  0.00  0.00    +0.000 A 
ENDBRANCH  18  19
ENDBRANCH  17  18
ENDBRANCH  16  17
ENDBRANCH  15  16
ENDBRANCH   3  15
TORSDOF 6
ENDMDL
