MODEL 1
REMARK VINA RESULT:      -5.9      0.000      0.000
REMARK  Name = 
REMARK  2 active torsions:
REMARK  status: ('A' for Active; 'I' for Inactive)
REMARK    1  A    between atoms: C_1  and  C_2
REMARK    2  A    between atoms: C_11  and  C_12
REMARK                            x       y       z     vdW  Elec       q    Type
REMARK                         _______ _______ _______ _____ _____    ______ ____
ROOT
ATOM      1  C   UNL     1       0.700   2.442  18.788  0.00  0.00    +0.000 C 
ATOM      2  C   UNL     1       2.133   2.896  18.804  0.00  0.00    +0.000 A 
ATOM      3  C   UNL     1       2.765   3.224  17.593  0.00  0.00    +0.000 A 
ATOM      4  C   UNL     1       4.072   3.693  17.545  0.00  0.00    +0.000 A 
ATOM      5  N   UNL     1       4.621   4.019  16.357  0.00  0.00    +0.000 NA
ATOM      6  C   UNL     1       5.886   4.489  16.389  0.00  0.00    +0.000 A 
ATOM      7  C   UNL     1       6.591   4.625  17.566  0.00  0.00    +0.000 A 
ATOM      8  N   UNL     1       6.062   4.294  18.764  0.00  0.00    +0.000 NA
ATOM      9  C   UNL     1       4.796   3.832  18.753  0.00  0.00    +0.000 A 
ATOM     10  C   UNL     1       4.177   3.493  19.950  0.00  0.00    +0.000 A 
ATOM     11  C   UNL     1       2.850   3.033  20.002  0.00  0.00    +0.000 A 
ATOM     12  C   UNL     1       2.226   2.733  21.337  0.00  0.00    +0.000 C 
ENDROOT
TORSDOF 0
ENDMDL
MODEL 2
REMARK VINA RESULT:      -5.8      0.131      2.252
REMARK  Name = 
REMARK  2 active torsions:
REMARK  status: ('A' for Active; 'I' for Inactive)
REMARK    1  A    between atoms: C_1  and  C_2
REMARK    2  A    between atoms: C_11  and  C_12
REMARK                            x       y       z     vdW  Elec       q    Type
REMARK                         _______ _______ _______ _____ _____    ______ ____
ROOT
ATOM      1  C   UNL     1       2.297   2.738  21.245  0.00  0.00    +0.000 C 
ATOM      2  C   UNL     1       2.906   3.095  19.918  0.00  0.00    +0.000 A 
ATOM      3  C   UNL     1       4.218   3.597  19.875  0.00  0.00    +0.000 A 
ATOM      4  C   UNL     1       4.853   3.903  18.678  0.00  0.00    +0.000 A 
ATOM      5  N   UNL     1       6.124   4.356  18.693  0.00  0.00    +0.000 NA
ATOM      6  C   UNL     1       6.685   4.611  17.493  0.00  0.00    +0.000 A 
ATOM      7  C   UNL     1       6.002   4.430  16.308  0.00  0.00    +0.000 A 
ATOM      8  N   UNL     1       4.726   3.988  16.273  0.00  0.00    +0.000 NA
ATOM      9  C   UNL     1       4.153   3.718  17.463  0.00  0.00    +0.000 A 
ATOM     10  C   UNL     1       2.850   3.237  17.505  0.00  0.00    +0.000 A 
ATOM     11  C   UNL     1       2.211   2.912  18.713  0.00  0.00    +0.000 A 
ATOM     12  C   UNL     1       0.818   2.348  18.681  0.00  0.00    +0.000 C 
ENDROOT
TORSDOF 0
ENDMDL
MODEL 3
REMARK VINA RESULT:      -5.8      1.376      2.634
REMARK  Name = 
REMARK  2 active torsions:
REMARK  status: ('A' for Active; 'I' for Inactive)
REMARK    1  A    between atoms: C_1  and  C_2
REMARK    2  A    between atoms: C_11  and  C_12
REMARK                            x       y       z     vdW  Elec       q    Type
REMARK                         _______ _______ _______ _____ _____    ______ ____
ROOT
ATOM      1  C   UNL     1       2.323   4.619  20.691  0.00  0.00    +0.000 C 
ATOM      2  C   UNL     1       3.230   4.544  19.495  0.00  0.00    +0.000 A 
ATOM      3  C   UNL     1       4.609   4.760  19.661  0.00  0.00    +0.000 A 
ATOM      4  C   UNL     1       5.505   4.659  18.604  0.00  0.00    +0.000 A 
ATOM      5  N   UNL     1       6.822   4.850  18.825  0.00  0.00    +0.000 NA
ATOM      6  C   UNL     1       7.636   4.715  17.757  0.00  0.00    +0.000 A 
ATOM      7  C   UNL     1       7.156   4.409  16.501  0.00  0.00    +0.000 A 
ATOM      8  N   UNL     1       5.841   4.225  16.257  0.00  0.00    +0.000 NA
ATOM      9  C   UNL     1       5.013   4.346  17.315  0.00  0.00    +0.000 A 
ATOM     10  C   UNL     1       3.648   4.148  17.146  0.00  0.00    +0.000 A 
ATOM     11  C   UNL     1       2.742   4.233  18.217  0.00  0.00    +0.000 A 
ATOM     12  C   UNL     1       1.285   3.957  17.972  0.00  0.00    +0.000 C 
ENDROOT
TORSDOF 0
ENDMDL
MODEL 4
REMARK VINA RESULT:      -5.8      1.275      1.311
REMARK  Name = 
REMARK  2 active torsions:
REMARK  status: ('A' for Active; 'I' for Inactive)
REMARK    1  A    between atoms: C_1  and  C_2
REMARK    2  A    between atoms: C_11  and  C_12
REMARK                            x       y       z     vdW  Elec       q    Type
REMARK                         _______ _______ _______ _____ _____    ______ ____
ROOT
ATOM      1  C   UNL     1       1.291   3.768  18.053  0.00  0.00    +0.000 C 
ATOM      2  C   UNL     1       2.761   4.014  18.252  0.00  0.00    +0.000 A 
ATOM      3  C   UNL     1       3.632   3.902  17.156  0.00  0.00    +0.000 A 
ATOM      4  C   UNL     1       4.993   4.160  17.265  0.00  0.00    +0.000 A 
ATOM      5  N   UNL     1       5.780   4.063  16.173  0.00  0.00    +0.000 NA
ATOM      6  C   UNL     1       7.087   4.350  16.348  0.00  0.00    +0.000 A 
ATOM      7  C   UNL     1       7.602   4.715  17.574  0.00  0.00    +0.000 A 
ATOM      8  N   UNL     1       6.833   4.807  18.681  0.00  0.00    +0.000 NA
ATOM      9  C   UNL     1       5.522   4.533  18.522  0.00  0.00    +0.000 A 
ATOM     10  C   UNL     1       4.664   4.630  19.611  0.00  0.00    +0.000 A 
ATOM     11  C   UNL     1       3.285   4.384  19.500  0.00  0.00    +0.000 A 
ATOM     12  C   UNL     1       2.406   4.556  20.708  0.00  0.00    +0.000 C 
ENDROOT
TORSDOF 0
ENDMDL
MODEL 5
REMARK VINA RESULT:      -5.7      1.680      2.815
REMARK  Name = 
REMARK  2 active torsions:
REMARK  status: ('A' for Active; 'I' for Inactive)
REMARK    1  A    between atoms: C_1  and  C_2
REMARK    2  A    between atoms: C_11  and  C_12
REMARK                            x       y       z     vdW  Elec       q    Type
REMARK                         _______ _______ _______ _____ _____    ______ ____
ROOT
ATOM      1  C   UNL     1       2.732   2.512  19.633  0.00  0.00    +0.000 C 
ATOM      2  C   UNL     1       3.507   3.648  19.025  0.00  0.00    +0.000 A 
ATOM      3  C   UNL     1       4.853   3.833  19.384  0.00  0.00    +0.000 A 
ATOM      4  C   UNL     1       5.636   4.835  18.824  0.00  0.00    +0.000 A 
ATOM      5  N   UNL     1       6.931   4.950  19.184  0.00  0.00    +0.000 NA
ATOM      6  C   UNL     1       7.636   5.931  18.583  0.00  0.00    +0.000 A 
ATOM      7  C   UNL     1       7.071   6.781  17.656  0.00  0.00    +0.000 A 
ATOM      8  N   UNL     1       5.774   6.689  17.290  0.00  0.00    +0.000 NA
ATOM      9  C   UNL     1       5.056   5.707  17.874  0.00  0.00    +0.000 A 
ATOM     10  C   UNL     1       3.721   5.536  17.530  0.00  0.00    +0.000 A 
ATOM     11  C   UNL     1       2.932   4.513  18.083  0.00  0.00    +0.000 A 
ATOM     12  C   UNL     1       1.508   4.354  17.628  0.00  0.00    +0.000 C 
ENDROOT
TORSDOF 0
ENDMDL
MODEL 6
REMARK VINA RESULT:      -5.7      1.695      2.098
REMARK  Name = 
REMARK  2 active torsions:
REMARK  status: ('A' for Active; 'I' for Inactive)
REMARK    1  A    between atoms: C_1  and  C_2
REMARK    2  A    between atoms: C_11  and  C_12
REMARK                            x       y       z     vdW  Elec       q    Type
REMARK                         _______ _______ _______ _____ _____    ______ ____
ROOT
ATOM      1  C   UNL     1       1.536   4.377  17.689  0.00  0.00    +0.000 C 
ATOM      2  C   UNL     1       2.992   4.491  18.044  0.00  0.00    +0.000 A 
ATOM      3  C   UNL     1       3.760   5.522  17.479  0.00  0.00    +0.000 A 
ATOM      4  C   UNL     1       5.099   5.708  17.801  0.00  0.00    +0.000 A 
ATOM      5  N   UNL     1       5.782   6.733  17.249  0.00  0.00    +0.000 NA
ATOM      6  C   UNL     1       7.071   6.865  17.625  0.00  0.00    +0.000 A 
ATOM      7  C   UNL     1       7.670   6.001  18.517  0.00  0.00    +0.000 A 
ATOM      8  N   UNL     1       7.006   4.964  19.072  0.00  0.00    +0.000 NA
ATOM      9  C   UNL     1       5.713   4.822  18.716  0.00  0.00    +0.000 A 
ATOM     10  C   UNL     1       4.959   3.791  19.264  0.00  0.00    +0.000 A 
ATOM     11  C   UNL     1       3.601   3.611  18.951  0.00  0.00    +0.000 A 
ATOM     12  C   UNL     1       2.832   2.506  19.620  0.00  0.00    +0.000 C 
ENDROOT
TORSDOF 0
ENDMDL
MODEL 7
REMARK VINA RESULT:      -5.7      2.276      4.437
REMARK  Name = 
REMARK  2 active torsions:
REMARK  status: ('A' for Active; 'I' for Inactive)
REMARK    1  A    between atoms: C_1  and  C_2
REMARK    2  A    between atoms: C_11  and  C_12
REMARK                            x       y       z     vdW  Elec       q    Type
REMARK                         _______ _______ _______ _____ _____    ______ ____
ROOT
ATOM      1  C   UNL     1       5.580   3.898  15.800  0.00  0.00    +0.000 C 
ATOM      2  C   UNL     1       4.540   4.203  16.842  0.00  0.00    +0.000 A 
ATOM      3  C   UNL     1       3.891   3.143  17.497  0.00  0.00    +0.000 A 
ATOM      4  C   UNL     1       2.954   3.358  18.500  0.00  0.00    +0.000 A 
ATOM      5  N   UNL     1       2.381   2.302  19.115  0.00  0.00    +0.000 NA
ATOM      6  C   UNL     1       1.497   2.586  20.095  0.00  0.00    +0.000 A 
ATOM      7  C   UNL     1       1.184   3.881  20.450  0.00  0.00    +0.000 A 
ATOM      8  N   UNL     1       1.739   4.950  19.840  0.00  0.00    +0.000 NA
ATOM      9  C   UNL     1       2.632   4.686  18.865  0.00  0.00    +0.000 A 
ATOM     10  C   UNL     1       3.262   5.735  18.207  0.00  0.00    +0.000 A 
ATOM     11  C   UNL     1       4.221   5.520  17.203  0.00  0.00    +0.000 A 
ATOM     12  C   UNL     1       4.900   6.702  16.568  0.00  0.00    +0.000 C 
ENDROOT
TORSDOF 0
ENDMDL
MODEL 8
REMARK VINA RESULT:      -5.7      1.710      4.727
REMARK  Name = 
REMARK  2 active torsions:
REMARK  status: ('A' for Active; 'I' for Inactive)
REMARK    1  A    between atoms: C_1  and  C_2
REMARK    2  A    between atoms: C_11  and  C_12
REMARK                            x       y       z     vdW  Elec       q    Type
REMARK                         _______ _______ _______ _____ _____    ______ ____
ROOT
ATOM      1  C   UNL     1       7.460   5.568  18.587  0.00  0.00    +0.000 C 
ATOM      2  C   UNL     1       6.124   4.985  18.217  0.00  0.00    +0.000 A 
ATOM      3  C   UNL     1       5.100   4.946  19.179  0.00  0.00    +0.000 A 
ATOM      4  C   UNL     1       3.831   4.463  18.887  0.00  0.00    +0.000 A 
ATOM      5  N   UNL     1       2.877   4.474  19.840  0.00  0.00    +0.000 NA
ATOM      6  C   UNL     1       1.662   4.010  19.480  0.00  0.00    +0.000 A 
ATOM      7  C   UNL     1       1.402   3.539  18.210  0.00  0.00    +0.000 A 
ATOM      8  N   UNL     1       2.346   3.510  17.245  0.00  0.00    +0.000 NA
ATOM      9  C   UNL     1       3.564   3.979  17.585  0.00  0.00    +0.000 A 
ATOM     10  C   UNL     1       4.580   4.002  16.637  0.00  0.00    +0.000 A 
ATOM     11  C   UNL     1       5.860   4.505  16.926  0.00  0.00    +0.000 A 
ATOM     12  C   UNL     1       6.898   4.547  15.838  0.00  0.00    +0.000 C 
ENDROOT
TORSDOF 0
ENDMDL
MODEL 9
REMARK VINA RESULT:      -5.6      1.466      4.182
REMARK  Name = 
REMARK  2 active torsions:
REMARK  status: ('A' for Active; 'I' for Inactive)
REMARK    1  A    between atoms: C_1  and  C_2
REMARK    2  A    between atoms: C_11  and  C_12
REMARK                            x       y       z     vdW  Elec       q    Type
REMARK                         _______ _______ _______ _____ _____    ______ ____
ROOT
ATOM      1  C   UNL     1       6.596   4.735  15.483  0.00  0.00    +0.000 C 
ATOM      2  C   UNL     1       5.711   4.487  16.672  0.00  0.00    +0.000 A 
ATOM      3  C   UNL     1       4.411   3.992  16.472  0.00  0.00    +0.000 A 
ATOM      4  C   UNL     1       3.561   3.699  17.531  0.00  0.00    +0.000 A 
ATOM      5  N   UNL     1       2.332   3.199  17.282  0.00  0.00    +0.000 NA
ATOM      6  C   UNL     1       1.569   2.918  18.358  0.00  0.00    +0.000 A 
ATOM      7  C   UNL     1       2.008   3.134  19.648  0.00  0.00    +0.000 A 
ATOM      8  N   UNL     1       3.230   3.644  19.917  0.00  0.00    +0.000 NA
ATOM      9  C   UNL     1       4.010   3.922  18.853  0.00  0.00    +0.000 A 
ATOM     10  C   UNL     1       5.289   4.426  19.053  0.00  0.00    +0.000 A 
ATOM     11  C   UNL     1       6.157   4.708  17.984  0.00  0.00    +0.000 A 
ATOM     12  C   UNL     1       7.546   5.205  18.274  0.00  0.00    +0.000 C 
ENDROOT
TORSDOF 0
ENDMDL
