MODEL 1
REMARK VINA RESULT:      -7.7      0.000      0.000
REMARK  Name = 
REMARK  8 active torsions:
REMARK  status: ('A' for Active; 'I' for Inactive)
REMARK    1  A    between atoms: C_1  and  C_2
REMARK    2  A    between atoms: C_2  and  C_3
REMARK    3  A    between atoms: C_3  and  O_5
REMARK    4  A    between atoms: N_11  and  C_12
REMARK    5  A    between atoms: C_12  and  C_13
REMARK    6  A    between atoms: C_23  and  C_24
REMARK    7  A    between atoms: C_23  and  O_25
REMARK    8  A    between atoms: C_26  and  O_27
REMARK                            x       y       z     vdW  Elec       q    Type
REMARK                         _______ _______ _______ _____ _____    ______ ____
ROOT
ATOM      1  C   UNL     1       5.111   6.447  16.696  0.00  0.00    +0.000 C 
ATOM      2  C   UNL     1       4.959   5.061  17.365  0.00  0.00    +0.000 C 
ATOM      3  N   UNL     1       3.528   4.722  17.001  0.00  0.00    +0.000 NA
ATOM      4  C   UNL     1       2.795   4.819  18.068  0.00  0.00    +0.000 C 
ATOM      5  C   UNL     1       2.326   6.081  18.678  0.00  0.00    +0.000 A 
ATOM      6  N   UNL     1       2.777   7.358  18.435  0.00  0.00    +0.000 NA
ATOM      7  C   UNL     1       2.367   8.067  19.471  0.00  0.00    +0.000 A 
ATOM      8  N   UNL     1       1.621   7.343  20.341  0.00  0.00    +0.000 N 
ATOM      9  C   UNL     1       1.678   6.037  19.897  0.00  0.00    +0.000 A 
ATOM     10  N   UNL     1       1.370   4.951  20.647  0.00  0.00    +0.000 NA
ATOM     11  C   UNL     1       2.033   3.912  20.205  0.00  0.00    +0.000 C 
ATOM     12  N   UNL     1       2.855   3.823  19.055  0.00  0.00    +0.000 N 
ATOM     13  C   UNL     1       4.263   3.338  19.195  0.00  0.00    +0.000 C 
ATOM     14  C   UNL     1       4.316   2.295  20.328  0.00  0.00    +0.000 C 
ATOM     15  C   UNL     1       5.224   4.643  18.922  0.00  0.00    +0.000 C 
ENDROOT
BRANCH   2  16
ATOM     16  C   UNL     1       5.963   4.234  16.555  0.00  0.00    +0.000 C 
ATOM     17  O   UNL     1       5.695   3.667  15.488  0.00  0.00    +0.000 OA
BRANCH  16  18
ATOM     18  O   UNL     1       7.172   4.118  17.144  0.00  0.00    +0.000 OA
ATOM     19  H   UNL     1       7.562   5.024  17.169  0.00  0.00    +0.000 HD
ENDBRANCH  16  18
ENDBRANCH   2  16
BRANCH  13  20
ATOM     20  O   UNL     1       4.608   2.459  18.116  0.00  0.00    +0.000 OA
ATOM     21  H   UNL     1       5.485   2.711  17.828  0.00  0.00    +0.000 HD
ENDBRANCH  13  20
BRANCH  15  22
ATOM     22  O   UNL     1       4.978   5.716  19.841  0.00  0.00    +0.000 OA
ATOM     23  H   UNL     1       5.672   6.414  19.703  0.00  0.00    +0.000 HD
ENDBRANCH  15  22
BRANCH   8  24
ATOM     24  C   UNL     1       1.101   7.808  21.612  0.00  0.00    +0.000 C 
BRANCH  24  25
ATOM     25  C   UNL     1       0.275   9.069  21.470  0.00  0.00    +0.000 A 
ATOM     26  C   UNL     1      -0.057   9.842  22.597  0.00  0.00    +0.000 A 
ATOM     27  C   UNL     1      -0.703  11.070  22.457  0.00  0.00    +0.000 A 
ATOM     28  C   UNL     1      -1.022  11.549  21.190  0.00  0.00    +0.000 A 
ATOM     29  C   UNL     1      -0.721  10.786  20.063  0.00  0.00    +0.000 A 
ATOM     30  C   UNL     1      -0.081   9.552  20.201  0.00  0.00    +0.000 A 
ENDBRANCH  24  25
ENDBRANCH   8  24
TORSDOF 6
ENDMDL
MODEL 2
REMARK VINA RESULT:      -7.7      1.701      3.298
REMARK  Name = 
REMARK  8 active torsions:
REMARK  status: ('A' for Active; 'I' for Inactive)
REMARK    1  A    between atoms: C_1  and  C_2
REMARK    2  A    between atoms: C_2  and  C_3
REMARK    3  A    between atoms: C_3  and  O_5
REMARK    4  A    between atoms: N_11  and  C_12
REMARK    5  A    between atoms: C_12  and  C_13
REMARK    6  A    between atoms: C_23  and  C_24
REMARK    7  A    between atoms: C_23  and  O_25
REMARK    8  A    between atoms: C_26  and  O_27
REMARK                            x       y       z     vdW  Elec       q    Type
REMARK                         _______ _______ _______ _____ _____    ______ ____
ROOT
ATOM      1  C   UNL     1       2.708   3.463  20.396  0.00  0.00    +0.000 C 
ATOM      2  C   UNL     1       3.606   3.426  19.137  0.00  0.00    +0.000 C 
ATOM      3  N   UNL     1       4.689   4.411  19.528  0.00  0.00    +0.000 NA
ATOM      4  C   UNL     1       4.531   5.497  18.833  0.00  0.00    +0.000 C 
ATOM      5  C   UNL     1       3.513   6.538  19.085  0.00  0.00    +0.000 A 
ATOM      6  N   UNL     1       2.391   6.452  19.877  0.00  0.00    +0.000 NA
ATOM      7  C   UNL     1       1.611   7.437  19.472  0.00  0.00    +0.000 A 
ATOM      8  N   UNL     1       2.186   8.200  18.509  0.00  0.00    +0.000 N 
ATOM      9  C   UNL     1       3.366   7.566  18.174  0.00  0.00    +0.000 A 
ATOM     10  N   UNL     1       4.068   7.789  17.037  0.00  0.00    +0.000 NA
ATOM     11  C   UNL     1       4.753   6.716  16.728  0.00  0.00    +0.000 C 
ATOM     12  N   UNL     1       4.896   5.524  17.479  0.00  0.00    +0.000 N 
ATOM     13  C   UNL     1       4.562   4.212  16.842  0.00  0.00    +0.000 C 
ATOM     14  C   UNL     1       4.909   4.289  15.342  0.00  0.00    +0.000 C 
ATOM     15  C   UNL     1       3.191   3.682  17.578  0.00  0.00    +0.000 C 
ENDROOT
BRANCH   2  16
ATOM     16  C   UNL     1       4.110   1.980  19.181  0.00  0.00    +0.000 C 
ATOM     17  O   UNL     1       3.616   1.052  18.527  0.00  0.00    +0.000 OA
BRANCH  16  18
ATOM     18  O   UNL     1       5.116   1.780  20.058  0.00  0.00    +0.000 OA
ATOM     19  H   UNL     1       5.566   0.945  19.786  0.00  0.00    +0.000 HD
ENDBRANCH  16  18
ENDBRANCH   2  16
BRANCH  13  20
ATOM     20  O   UNL     1       5.523   3.212  17.205  0.00  0.00    +0.000 OA
ATOM     21  H   UNL     1       5.720   2.720  16.408  0.00  0.00    +0.000 HD
ENDBRANCH  13  20
BRANCH  15  22
ATOM     22  O   UNL     1       2.095   4.595  17.432  0.00  0.00    +0.000 OA
ATOM     23  H   UNL     1       2.363   5.472  17.814  0.00  0.00    +0.000 HD
ENDBRANCH  15  22
BRANCH   8  24
ATOM     24  C   UNL     1       1.556   9.298  17.801  0.00  0.00    +0.000 C 
BRANCH  24  25
ATOM     25  C   UNL     1       0.580  10.061  18.672  0.00  0.00    +0.000 A 
ATOM     26  C   UNL     1       1.029  10.780  19.793  0.00  0.00    +0.000 A 
ATOM     27  C   UNL     1       0.155  11.590  20.519  0.00  0.00    +0.000 A 
ATOM     28  C   UNL     1      -1.177  11.700  20.133  0.00  0.00    +0.000 A 
ATOM     29  C   UNL     1      -1.644  10.977  19.038  0.00  0.00    +0.000 A 
ATOM     30  C   UNL     1      -0.773  10.159  18.313  0.00  0.00    +0.000 A 
ENDBRANCH  24  25
ENDBRANCH   8  24
TORSDOF 6
ENDMDL
MODEL 3
REMARK VINA RESULT:      -7.5      1.685      3.444
REMARK  Name = 
REMARK  8 active torsions:
REMARK  status: ('A' for Active; 'I' for Inactive)
REMARK    1  A    between atoms: C_1  and  C_2
REMARK    2  A    between atoms: C_2  and  C_3
REMARK    3  A    between atoms: C_3  and  O_5
REMARK    4  A    between atoms: N_11  and  C_12
REMARK    5  A    between atoms: C_12  and  C_13
REMARK    6  A    between atoms: C_23  and  C_24
REMARK    7  A    between atoms: C_23  and  O_25
REMARK    8  A    between atoms: C_26  and  O_27
REMARK                            x       y       z     vdW  Elec       q    Type
REMARK                         _______ _______ _______ _____ _____    ______ ____
ROOT
ATOM      1  C   UNL     1       2.526   3.587  20.536  0.00  0.00    +0.000 C 
ATOM      2  C   UNL     1       3.459   3.507  19.306  0.00  0.00    +0.000 C 
ATOM      3  N   UNL     1       4.539   4.494  19.700  0.00  0.00    +0.000 NA
ATOM      4  C   UNL     1       4.411   5.561  18.970  0.00  0.00    +0.000 C 
ATOM      5  C   UNL     1       3.395   6.617  19.163  0.00  0.00    +0.000 A 
ATOM      6  N   UNL     1       2.250   6.563  19.924  0.00  0.00    +0.000 NA
ATOM      7  C   UNL     1       1.491   7.542  19.469  0.00  0.00    +0.000 A 
ATOM      8  N   UNL     1       2.100   8.272  18.502  0.00  0.00    +0.000 N 
ATOM      9  C   UNL     1       3.283   7.620  18.220  0.00  0.00    +0.000 A 
ATOM     10  N   UNL     1       4.020   7.805  17.097  0.00  0.00    +0.000 NA
ATOM     11  C   UNL     1       4.704   6.718  16.839  0.00  0.00    +0.000 C 
ATOM     12  N   UNL     1       4.815   5.547  17.627  0.00  0.00    +0.000 N 
ATOM     13  C   UNL     1       4.489   4.220  17.018  0.00  0.00    +0.000 C 
ATOM     14  C   UNL     1       4.880   4.251  15.528  0.00  0.00    +0.000 C 
ATOM     15  C   UNL     1       3.092   3.722  17.728  0.00  0.00    +0.000 C 
ENDROOT
BRANCH   2  16
ATOM     16  C   UNL     1       3.949   2.059  19.405  0.00  0.00    +0.000 C 
ATOM     17  O   UNL     1       4.869   1.686  20.145  0.00  0.00    +0.000 OA
BRANCH  16  18
ATOM     18  O   UNL     1       3.328   1.214  18.555  0.00  0.00    +0.000 OA
ATOM     19  H   UNL     1       3.467   1.575  17.647  0.00  0.00    +0.000 HD
ENDBRANCH  16  18
ENDBRANCH   2  16
BRANCH  13  20
ATOM     20  O   UNL     1       5.430   3.223  17.437  0.00  0.00    +0.000 OA
ATOM     21  H   UNL     1       6.047   3.108  16.714  0.00  0.00    +0.000 HD
ENDBRANCH  13  20
BRANCH  15  22
ATOM     22  O   UNL     1       2.009   4.639  17.524  0.00  0.00    +0.000 OA
ATOM     23  H   UNL     1       1.207   4.289  17.998  0.00  0.00    +0.000 HD
ENDBRANCH  15  22
BRANCH   8  24
ATOM     24  C   UNL     1       1.501   9.354  17.745  0.00  0.00    +0.000 C 
BRANCH  24  25
ATOM     25  C   UNL     1       0.586  10.213  18.593  0.00  0.00    +0.000 A 
ATOM     26  C   UNL     1      -0.792  10.282  18.319  0.00  0.00    +0.000 A 
ATOM     27  C   UNL     1      -1.658  10.963  19.174  0.00  0.00    +0.000 A 
ATOM     28  C   UNL     1      -1.163  11.581  20.320  0.00  0.00    +0.000 A 
ATOM     29  C   UNL     1       0.202  11.542  20.595  0.00  0.00    +0.000 A 
ATOM     30  C   UNL     1       1.073  10.865  19.736  0.00  0.00    +0.000 A 
ENDBRANCH  24  25
ENDBRANCH   8  24
TORSDOF 6
ENDMDL
MODEL 4
REMARK VINA RESULT:      -7.5      2.021      3.596
REMARK  Name = 
REMARK  8 active torsions:
REMARK  status: ('A' for Active; 'I' for Inactive)
REMARK    1  A    between atoms: C_1  and  C_2
REMARK    2  A    between atoms: C_2  and  C_3
REMARK    3  A    between atoms: C_3  and  O_5
REMARK    4  A    between atoms: N_11  and  C_12
REMARK    5  A    between atoms: C_12  and  C_13
REMARK    6  A    between atoms: C_23  and  C_24
REMARK    7  A    between atoms: C_23  and  O_25
REMARK    8  A    between atoms: C_26  and  O_27
REMARK                            x       y       z     vdW  Elec       q    Type
REMARK                         _______ _______ _______ _____ _____    ______ ____
ROOT
ATOM      1  C   UNL     1       2.699   3.459  20.443  0.00  0.00    +0.000 C 
ATOM      2  C   UNL     1       3.586   3.457  19.176  0.00  0.00    +0.000 C 
ATOM      3  N   UNL     1       4.646   4.467  19.567  0.00  0.00    +0.000 NA
ATOM      4  C   UNL     1       4.454   5.554  18.884  0.00  0.00    +0.000 C 
ATOM      5  C   UNL     1       3.412   6.566  19.154  0.00  0.00    +0.000 A 
ATOM      6  N   UNL     1       2.299   6.444  19.955  0.00  0.00    +0.000 NA
ATOM      7  C   UNL     1       1.490   7.412  19.566  0.00  0.00    +0.000 A 
ATOM      8  N   UNL     1       2.036   8.198  18.605  0.00  0.00    +0.000 N 
ATOM      9  C   UNL     1       3.229   7.598  18.254  0.00  0.00    +0.000 A 
ATOM     10  N   UNL     1       3.915   7.851  17.113  0.00  0.00    +0.000 NA
ATOM     11  C   UNL     1       4.625   6.799  16.789  0.00  0.00    +0.000 C 
ATOM     12  N   UNL     1       4.806   5.603  17.527  0.00  0.00    +0.000 N 
ATOM     13  C   UNL     1       4.501   4.290  16.880  0.00  0.00    +0.000 C 
ATOM     14  C   UNL     1       4.833   4.389  15.379  0.00  0.00    +0.000 C 
ATOM     15  C   UNL     1       3.151   3.717  17.623  0.00  0.00    +0.000 C 
ENDROOT
BRANCH   2  16
ATOM     16  C   UNL     1       4.128   2.025  19.202  0.00  0.00    +0.000 C 
ATOM     17  O   UNL     1       3.667   1.096  18.526  0.00  0.00    +0.000 OA
BRANCH  16  18
ATOM     18  O   UNL     1       5.128   1.836  20.089  0.00  0.00    +0.000 OA
ATOM     19  H   UNL     1       5.390   0.887  20.021  0.00  0.00    +0.000 HD
ENDBRANCH  16  18
ENDBRANCH   2  16
BRANCH  13  20
ATOM     20  O   UNL     1       5.491   3.311  17.226  0.00  0.00    +0.000 OA
ATOM     21  H   UNL     1       5.028   2.594  17.658  0.00  0.00    +0.000 HD
ENDBRANCH  13  20
BRANCH  15  22
ATOM     22  O   UNL     1       2.030   4.602  17.495  0.00  0.00    +0.000 OA
ATOM     23  H   UNL     1       2.043   4.995  16.582  0.00  0.00    +0.000 HD
ENDBRANCH  15  22
BRANCH   8  24
ATOM     24  C   UNL     1       1.372   9.285  17.913  0.00  0.00    +0.000 C 
BRANCH  24  25
ATOM     25  C   UNL     1       1.569  10.616  18.607  0.00  0.00    +0.000 A 
ATOM     26  C   UNL     1       2.350  11.626  18.018  0.00  0.00    +0.000 A 
ATOM     27  C   UNL     1       2.426  12.897  18.588  0.00  0.00    +0.000 A 
ATOM     28  C   UNL     1       1.718  13.182  19.752  0.00  0.00    +0.000 A 
ATOM     29  C   UNL     1       0.957  12.187  20.363  0.00  0.00    +0.000 A 
ATOM     30  C   UNL     1       0.885  10.911  19.797  0.00  0.00    +0.000 A 
ENDBRANCH  24  25
ENDBRANCH   8  24
TORSDOF 6
ENDMDL
MODEL 5
REMARK VINA RESULT:      -7.3      1.994      3.553
REMARK  Name = 
REMARK  8 active torsions:
REMARK  status: ('A' for Active; 'I' for Inactive)
REMARK    1  A    between atoms: C_1  and  C_2
REMARK    2  A    between atoms: C_2  and  C_3
REMARK    3  A    between atoms: C_3  and  O_5
REMARK    4  A    between atoms: N_11  and  C_12
REMARK    5  A    between atoms: C_12  and  C_13
REMARK    6  A    between atoms: C_23  and  C_24
REMARK    7  A    between atoms: C_23  and  O_25
REMARK    8  A    between atoms: C_26  and  O_27
REMARK                            x       y       z     vdW  Elec       q    Type
REMARK                         _______ _______ _______ _____ _____    ______ ____
ROOT
ATOM      1  C   UNL     1       2.556   3.577  20.616  0.00  0.00    +0.000 C 
ATOM      2  C   UNL     1       3.458   3.529  19.361  0.00  0.00    +0.000 C 
ATOM      3  N   UNL     1       4.524   4.539  19.735  0.00  0.00    +0.000 NA
ATOM      4  C   UNL     1       4.351   5.608  19.018  0.00  0.00    +0.000 C 
ATOM      5  C   UNL     1       3.316   6.638  19.246  0.00  0.00    +0.000 A 
ATOM      6  N   UNL     1       2.192   6.550  20.037  0.00  0.00    +0.000 NA
ATOM      7  C   UNL     1       1.398   7.515  19.609  0.00  0.00    +0.000 A 
ATOM      8  N   UNL     1       1.964   8.267  18.633  0.00  0.00    +0.000 N 
ATOM      9  C   UNL     1       3.155   7.645  18.314  0.00  0.00    +0.000 A 
ATOM     10  N   UNL     1       3.857   7.857  17.175  0.00  0.00    +0.000 NA
ATOM     11  C   UNL     1       4.560   6.789  16.889  0.00  0.00    +0.000 C 
ATOM     12  N   UNL     1       4.719   5.614  17.664  0.00  0.00    +0.000 N 
ATOM     13  C   UNL     1       4.409   4.285  17.052  0.00  0.00    +0.000 C 
ATOM     14  C   UNL     1       4.760   4.337  15.553  0.00  0.00    +0.000 C 
ATOM     15  C   UNL     1       3.044   3.748  17.795  0.00  0.00    +0.000 C 
ENDROOT
BRANCH   2  16
ATOM     16  C   UNL     1       3.985   2.093  19.435  0.00  0.00    +0.000 C 
ATOM     17  O   UNL     1       4.929   1.736  20.151  0.00  0.00    +0.000 OA
BRANCH  16  18
ATOM     18  O   UNL     1       3.365   1.241  18.590  0.00  0.00    +0.000 OA
ATOM     19  H   UNL     1       2.499   1.654  18.358  0.00  0.00    +0.000 HD
ENDBRANCH  16  18
ENDBRANCH   2  16
BRANCH  13  20
ATOM     20  O   UNL     1       5.384   3.308  17.438  0.00  0.00    +0.000 OA
ATOM     21  H   UNL     1       6.220   3.596  17.073  0.00  0.00    +0.000 HD
ENDBRANCH  13  20
BRANCH  15  22
ATOM     22  O   UNL     1       1.934   4.640  17.628  0.00  0.00    +0.000 OA
ATOM     23  H   UNL     1       1.900   4.924  16.676  0.00  0.00    +0.000 HD
ENDBRANCH  15  22
BRANCH   8  24
ATOM     24  C   UNL     1       1.319   9.340  17.901  0.00  0.00    +0.000 C 
BRANCH  24  25
ATOM     25  C   UNL     1       1.426  10.670  18.616  0.00  0.00    +0.000 A 
ATOM     26  C   UNL     1       0.803  10.869  19.861  0.00  0.00    +0.000 A 
ATOM     27  C   UNL     1       1.008  12.045  20.584  0.00  0.00    +0.000 A 
ATOM     28  C   UNL     1       1.844  13.037  20.079  0.00  0.00    +0.000 A 
ATOM     29  C   UNL     1       2.451  12.866  18.837  0.00  0.00    +0.000 A 
ATOM     30  C   UNL     1       2.242  11.693  18.107  0.00  0.00    +0.000 A 
ENDBRANCH  24  25
ENDBRANCH   8  24
TORSDOF 6
ENDMDL
MODEL 6
REMARK VINA RESULT:      -7.3      3.831      7.181
REMARK  Name = 
REMARK  8 active torsions:
REMARK  status: ('A' for Active; 'I' for Inactive)
REMARK    1  A    between atoms: C_1  and  C_2
REMARK    2  A    between atoms: C_2  and  C_3
REMARK    3  A    between atoms: C_3  and  O_5
REMARK    4  A    between atoms: N_11  and  C_12
REMARK    5  A    between atoms: C_12  and  C_13
REMARK    6  A    between atoms: C_23  and  C_24
REMARK    7  A    between atoms: C_23  and  O_25
REMARK    8  A    between atoms: C_26  and  O_27
REMARK                            x       y       z     vdW  Elec       q    Type
REMARK                         _______ _______ _______ _____ _____    ______ ____
ROOT
ATOM      1  C   UNL     1       1.232   4.826  17.696  0.00  0.00    +0.000 C 
ATOM      2  C   UNL     1       1.992   3.952  18.721  0.00  0.00    +0.000 C 
ATOM      3  N   UNL     1       2.672   5.016  19.558  0.00  0.00    +0.000 NA
ATOM      4  C   UNL     1       3.942   5.007  19.285  0.00  0.00    +0.000 C 
ATOM      5  C   UNL     1       4.565   5.582  18.074  0.00  0.00    +0.000 A 
ATOM      6  N   UNL     1       3.949   5.966  16.905  0.00  0.00    +0.000 NA
ATOM      7  C   UNL     1       4.918   6.019  16.010  0.00  0.00    +0.000 A 
ATOM      8  N   UNL     1       6.138   5.758  16.541  0.00  0.00    +0.000 N 
ATOM      9  C   UNL     1       5.910   5.368  17.846  0.00  0.00    +0.000 A 
ATOM     10  N   UNL     1       6.798   4.696  18.619  0.00  0.00    +0.000 NA
ATOM     11  C   UNL     1       6.153   3.994  19.516  0.00  0.00    +0.000 C 
ATOM     12  N   UNL     1       4.763   3.986  19.787  0.00  0.00    +0.000 N 
ATOM     13  C   UNL     1       4.019   2.689  19.769  0.00  0.00    +0.000 C 
ATOM     14  C   UNL     1       4.960   1.573  20.261  0.00  0.00    +0.000 C 
ATOM     15  C   UNL     1       3.049   2.737  18.442  0.00  0.00    +0.000 C 
ENDROOT
BRANCH   2  16
ATOM     16  C   UNL     1       0.825   3.299  19.469  0.00  0.00    +0.000 C 
ATOM     17  O   UNL     1       0.244   2.273  19.090  0.00  0.00    +0.000 OA
BRANCH  16  18
ATOM     18  O   UNL     1       0.430   3.983  20.563  0.00  0.00    +0.000 OA
ATOM     19  H   UNL     1       1.097   4.696  20.707  0.00  0.00    +0.000 HD
ENDBRANCH  16  18
ENDBRANCH   2  16
BRANCH  13  20
ATOM     20  O   UNL     1       3.076   2.627  20.848  0.00  0.00    +0.000 OA
ATOM     21  H   UNL     1       3.383   1.941  21.440  0.00  0.00    +0.000 HD
ENDBRANCH  13  20
BRANCH  15  22
ATOM     22  O   UNL     1       3.784   2.901  17.223  0.00  0.00    +0.000 OA
ATOM     23  H   UNL     1       4.750   2.984  17.446  0.00  0.00    +0.000 HD
ENDBRANCH  15  22
BRANCH   8  24
ATOM     24  C   UNL     1       7.384   5.655  15.807  0.00  0.00    +0.000 C 
BRANCH  24  25
ATOM     25  C   UNL     1       7.210   4.963  14.471  0.00  0.00    +0.000 A 
ATOM     26  C   UNL     1       6.290   3.910  14.321  0.00  0.00    +0.000 A 
ATOM     27  C   UNL     1       6.031   3.360  13.066  0.00  0.00    +0.000 A 
ATOM     28  C   UNL     1       6.680   3.857  11.940  0.00  0.00    +0.000 A 
ATOM     29  C   UNL     1       7.611   4.885  12.072  0.00  0.00    +0.000 A 
ATOM     30  C   UNL     1       7.878   5.433  13.330  0.00  0.00    +0.000 A 
ENDBRANCH  24  25
ENDBRANCH   8  24
TORSDOF 6
ENDMDL
MODEL 7
REMARK VINA RESULT:      -7.2      4.393      8.361
REMARK  Name = 
REMARK  8 active torsions:
REMARK  status: ('A' for Active; 'I' for Inactive)
REMARK    1  A    between atoms: C_1  and  C_2
REMARK    2  A    between atoms: C_2  and  C_3
REMARK    3  A    between atoms: C_3  and  O_5
REMARK    4  A    between atoms: N_11  and  C_12
REMARK    5  A    between atoms: C_12  and  C_13
REMARK    6  A    between atoms: C_23  and  C_24
REMARK    7  A    between atoms: C_23  and  O_25
REMARK    8  A    between atoms: C_26  and  O_27
REMARK                            x       y       z     vdW  Elec       q    Type
REMARK                         _______ _______ _______ _____ _____    ______ ____
ROOT
ATOM      1  C   UNL     1      -1.558  11.917  22.058  0.00  0.00    +0.000 C 
ATOM      2  C   UNL     1      -0.755  12.555  20.901  0.00  0.00    +0.000 C 
ATOM      3  N   UNL     1      -1.298  11.784  19.715  0.00  0.00    +0.000 NA
ATOM      4  C   UNL     1      -0.381  10.963  19.300  0.00  0.00    +0.000 C 
ATOM      5  C   UNL     1      -0.016   9.685  19.946  0.00  0.00    +0.000 A 
ATOM      6  N   UNL     1      -0.341   9.251  21.211  0.00  0.00    +0.000 NA
ATOM      7  C   UNL     1       0.520   8.285  21.472  0.00  0.00    +0.000 A 
ATOM      8  N   UNL     1       1.343   8.019  20.428  0.00  0.00    +0.000 N 
ATOM      9  C   UNL     1       1.080   8.986  19.479  0.00  0.00    +0.000 A 
ATOM     10  N   UNL     1       1.900   9.300  18.447  0.00  0.00    +0.000 NA
ATOM     11  C   UNL     1       1.703  10.546  18.095  0.00  0.00    +0.000 C 
ATOM     12  N   UNL     1       0.718  11.445  18.574  0.00  0.00    +0.000 N 
ATOM     13  C   UNL     1       1.141  12.771  19.122  0.00  0.00    +0.000 C 
ATOM     14  C   UNL     1       2.388  13.248  18.354  0.00  0.00    +0.000 C 
ATOM     15  C   UNL     1       0.864  12.704  20.741  0.00  0.00    +0.000 C 
ENDROOT
BRANCH   2  16
ATOM     16  C   UNL     1      -1.285  13.992  20.935  0.00  0.00    +0.000 C 
ATOM     17  O   UNL     1      -0.794  14.896  21.624  0.00  0.00    +0.000 OA
BRANCH  16  18
ATOM     18  O   UNL     1      -2.393  14.182  20.189  0.00  0.00    +0.000 OA
ATOM     19  H   UNL     1      -2.857  14.967  20.567  0.00  0.00    +0.000 HD
ENDBRANCH  16  18
ENDBRANCH   2  16
BRANCH  13  20
ATOM     20  O   UNL     1       0.248  13.807  18.691  0.00  0.00    +0.000 OA
ATOM     21  H   UNL     1      -0.096  13.536  17.840  0.00  0.00    +0.000 HD
ENDBRANCH  13  20
BRANCH  15  22
ATOM     22  O   UNL     1       1.591  11.650  21.385  0.00  0.00    +0.000 OA
ATOM     23  H   UNL     1       1.934  11.990  22.255  0.00  0.00    +0.000 HD
ENDBRANCH  15  22
BRANCH   8  24
ATOM     24  C   UNL     1       2.447   7.079  20.430  0.00  0.00    +0.000 C 
BRANCH  24  25
ATOM     25  C   UNL     1       2.080   5.757  19.789  0.00  0.00    +0.000 A 
ATOM     26  C   UNL     1       1.438   4.751  20.532  0.00  0.00    +0.000 A 
ATOM     27  C   UNL     1       0.980   3.587  19.915  0.00  0.00    +0.000 A 
ATOM     28  C   UNL     1       1.150   3.412  18.544  0.00  0.00    +0.000 A 
ATOM     29  C   UNL     1       1.804   4.388  17.796  0.00  0.00    +0.000 A 
ATOM     30  C   UNL     1       2.270   5.552  18.413  0.00  0.00    +0.000 A 
ENDBRANCH  24  25
ENDBRANCH   8  24
TORSDOF 6
ENDMDL
MODEL 8
REMARK VINA RESULT:      -7.1      4.332      8.422
REMARK  Name = 
REMARK  8 active torsions:
REMARK  status: ('A' for Active; 'I' for Inactive)
REMARK    1  A    between atoms: C_1  and  C_2
REMARK    2  A    between atoms: C_2  and  C_3
REMARK    3  A    between atoms: C_3  and  O_5
REMARK    4  A    between atoms: N_11  and  C_12
REMARK    5  A    between atoms: C_12  and  C_13
REMARK    6  A    between atoms: C_23  and  C_24
REMARK    7  A    between atoms: C_23  and  O_25
REMARK    8  A    between atoms: C_26  and  O_27
REMARK                            x       y       z     vdW  Elec       q    Type
REMARK                         _______ _______ _______ _____ _____    ______ ____
ROOT
ATOM      1  C   UNL     1      -1.106  11.885  22.516  0.00  0.00    +0.000 C 
ATOM      2  C   UNL     1      -0.480  12.552  21.269  0.00  0.00    +0.000 C 
ATOM      3  N   UNL     1      -1.221  11.835  20.158  0.00  0.00    +0.000 NA
ATOM      4  C   UNL     1      -0.400  11.015  19.576  0.00  0.00    +0.000 C 
ATOM      5  C   UNL     1       0.033   9.707  20.111  0.00  0.00    +0.000 A 
ATOM      6  N   UNL     1      -0.098   9.232  21.397  0.00  0.00    +0.000 NA
ATOM      7  C   UNL     1       0.771   8.242  21.485  0.00  0.00    +0.000 A 
ATOM      8  N   UNL     1       1.413   8.001  20.315  0.00  0.00    +0.000 N 
ATOM      9  C   UNL     1       1.026   9.008  19.453  0.00  0.00    +0.000 A 
ATOM     10  N   UNL     1       1.680   9.346  18.316  0.00  0.00    +0.000 NA
ATOM     11  C   UNL     1       1.458  10.608  18.042  0.00  0.00    +0.000 C 
ATOM     12  N   UNL     1       0.582  11.505  18.702  0.00  0.00    +0.000 N 
ATOM     13  C   UNL     1       1.116  12.802  19.221  0.00  0.00    +0.000 C 
ATOM     14  C   UNL     1       2.237  13.286  18.282  0.00  0.00    +0.000 C 
ATOM     15  C   UNL     1       1.097  12.679  20.861  0.00  0.00    +0.000 C 
ENDROOT
BRANCH   2  16
ATOM     16  C   UNL     1      -0.965  13.996  21.436  0.00  0.00    +0.000 C 
ATOM     17  O   UNL     1      -2.066  14.407  21.050  0.00  0.00    +0.000 OA
BRANCH  16  18
ATOM     18  O   UNL     1      -0.049  14.816  21.993  0.00  0.00    +0.000 OA
ATOM     19  H   UNL     1       0.813  14.614  21.557  0.00  0.00    +0.000 HD
ENDBRANCH  16  18
ENDBRANCH   2  16
BRANCH  13  20
ATOM     20  O   UNL     1       0.191  13.869  18.973  0.00  0.00    +0.000 OA
ATOM     21  H   UNL     1      -0.632  13.460  18.705  0.00  0.00    +0.000 HD
ENDBRANCH  13  20
BRANCH  15  22
ATOM     22  O   UNL     1       1.892  11.589  21.345  0.00  0.00    +0.000 OA
ATOM     23  H   UNL     1       2.697  11.506  20.768  0.00  0.00    +0.000 HD
ENDBRANCH  15  22
BRANCH   8  24
ATOM     24  C   UNL     1       2.482   7.043  20.110  0.00  0.00    +0.000 C 
BRANCH  24  25
ATOM     25  C   UNL     1       1.968   5.698  19.641  0.00  0.00    +0.000 A 
ATOM     26  C   UNL     1       2.126   5.295  18.303  0.00  0.00    +0.000 A 
ATOM     27  C   UNL     1       1.774   4.008  17.898  0.00  0.00    +0.000 A 
ATOM     28  C   UNL     1       1.266   3.100  18.822  0.00  0.00    +0.000 A 
ATOM     29  C   UNL     1       1.082   3.489  20.147  0.00  0.00    +0.000 A 
ATOM     30  C   UNL     1       1.426   4.781  20.555  0.00  0.00    +0.000 A 
ENDBRANCH  24  25
ENDBRANCH   8  24
TORSDOF 6
ENDMDL
MODEL 9
REMARK VINA RESULT:      -7.1      2.060      3.634
REMARK  Name = 
REMARK  8 active torsions:
REMARK  status: ('A' for Active; 'I' for Inactive)
REMARK    1  A    between atoms: C_1  and  C_2
REMARK    2  A    between atoms: C_2  and  C_3
REMARK    3  A    between atoms: C_3  and  O_5
REMARK    4  A    between atoms: N_11  and  C_12
REMARK    5  A    between atoms: C_12  and  C_13
REMARK    6  A    between atoms: C_23  and  C_24
REMARK    7  A    between atoms: C_23  and  O_25
REMARK    8  A    between atoms: C_26  and  O_27
REMARK                            x       y       z     vdW  Elec       q    Type
REMARK                         _______ _______ _______ _____ _____    ______ ____
ROOT
ATOM      1  C   UNL     1       4.356   4.014  14.456  0.00  0.00    +0.000 C 
ATOM      2  C   UNL     1       5.601   4.594  15.168  0.00  0.00    +0.000 C 
ATOM      3  N   UNL     1       5.877   3.510  16.191  0.00  0.00    +0.000 NA
ATOM      4  C   UNL     1       5.553   3.958  17.366  0.00  0.00    +0.000 C 
ATOM      5  C   UNL     1       4.176   4.081  17.889  0.00  0.00    +0.000 A 
ATOM      6  N   UNL     1       2.994   4.029  17.185  0.00  0.00    +0.000 NA
ATOM      7  C   UNL     1       2.099   4.583  17.982  0.00  0.00    +0.000 A 
ATOM      8  N   UNL     1       2.612   4.931  19.188  0.00  0.00    +0.000 N 
ATOM      9  C   UNL     1       3.972   4.713  19.100  0.00  0.00    +0.000 A 
ATOM     10  N   UNL     1       4.896   5.244  19.937  0.00  0.00    +0.000 NA
ATOM     11  C   UNL     1       6.043   5.350  19.313  0.00  0.00    +0.000 C 
ATOM     12  N   UNL     1       6.380   4.884  18.018  0.00  0.00    +0.000 N 
ATOM     13  C   UNL     1       6.948   5.842  17.020  0.00  0.00    +0.000 C 
ATOM     14  C   UNL     1       7.798   6.888  17.767  0.00  0.00    +0.000 C 
ATOM     15  C   UNL     1       5.785   6.054  15.877  0.00  0.00    +0.000 C 
ENDROOT
BRANCH   2  16
ATOM     16  C   UNL     1       6.624   4.574  14.028  0.00  0.00    +0.000 C 
ATOM     17  O   UNL     1       7.315   5.547  13.699  0.00  0.00    +0.000 OA
BRANCH  16  18
ATOM     18  O   UNL     1       6.667   3.405  13.355  0.00  0.00    +0.000 OA
ATOM     19  H   UNL     1       6.162   3.543  12.518  0.00  0.00    +0.000 HD
ENDBRANCH  16  18
ENDBRANCH   2  16
BRANCH  13  20
ATOM     20  O   UNL     1       8.012   5.232  16.278  0.00  0.00    +0.000 OA
ATOM     21  H   UNL     1       8.332   5.892  15.664  0.00  0.00    +0.000 HD
ENDBRANCH  13  20
BRANCH  15  22
ATOM     22  O   UNL     1       4.563   6.573  16.419  0.00  0.00    +0.000 OA
ATOM     23  H   UNL     1       4.421   6.169  17.317  0.00  0.00    +0.000 HD
ENDBRANCH  15  22
BRANCH   8  24
ATOM     24  C   UNL     1       1.910   5.635  20.243  0.00  0.00    +0.000 C 
BRANCH  24  25
ATOM     25  C   UNL     1       1.765   7.114  19.952  0.00  0.00    +0.000 A 
ATOM     26  C   UNL     1       2.119   7.637  18.696  0.00  0.00    +0.000 A 
ATOM     27  C   UNL     1       1.865   8.972  18.380  0.00  0.00    +0.000 A 
ATOM     28  C   UNL     1       1.246   9.803  19.309  0.00  0.00    +0.000 A 
ATOM     29  C   UNL     1       0.908   9.307  20.567  0.00  0.00    +0.000 A 
ATOM     30  C   UNL     1       1.169   7.972  20.889  0.00  0.00    +0.000 A 
ENDBRANCH  24  25
ENDBRANCH   8  24
TORSDOF 6
ENDMDL
