MODEL 1
REMARK VINA RESULT:      -7.6      0.000      0.000
REMARK  Name = 
REMARK  13 active torsions:
REMARK  status: ('A' for Active; 'I' for Inactive)
REMARK    1  A    between atoms: C_1  and  C_2
REMARK    2  A    between atoms: C_2  and  C_3
REMARK    3  A    between atoms: C_2  and  C_4
REMARK    4  A    between atoms: C_2  and  C_5
REMARK    5  A    between atoms: C_6  and  C_7
REMARK    6  A    between atoms: C_7  and  C_8
REMARK    7  A    between atoms: C_7  and  N_12
REMARK    8  A    between atoms: C_8  and  C_9
REMARK    9  A    between atoms: C_9  and  O_11
REMARK   10  A    between atoms: C_13  and  C_15
REMARK   11  A    between atoms: C_20  and  C_22
REMARK   12  A    between atoms: C_22  and  C_23
REMARK   13  A    between atoms: C_23  and  C_24
REMARK                            x       y       z     vdW  Elec       q    Type
REMARK                         _______ _______ _______ _____ _____    ______ ____
ROOT
ATOM      1  C   UNL     1       3.886   2.839  18.925  0.00  0.00    +0.000 C 
ATOM      2  C   UNL     1       3.021   2.194  17.829  0.00  0.00    +0.000 C 
ATOM      3  C   UNL     1       2.142   3.179  17.066  0.00  0.00    +0.000 C 
ATOM      4  C   UNL     1       1.443   4.173  17.988  0.00  0.00    +0.000 C 
ATOM      5  N   UNL     1       2.328   4.732  19.015  0.00  0.00    +0.000 N 
ATOM      6  C   UNL     1       2.599   6.076  19.252  0.00  0.00    +0.000 C 
ATOM      7  O   UNL     1       3.341   6.456  20.159  0.00  0.00    +0.000 OA
ATOM      8  C   UNL     1       3.030   3.734  19.822  0.00  0.00    +0.000 C 
ENDROOT
BRANCH   1  10
ATOM      9  N   UNL     1       5.168   3.834  17.059  0.00  0.00    +0.000 N 
ATOM     10  C   UNL     1       5.121   3.597  18.411  0.00  0.00    +0.000 C 
ATOM     11  O   UNL     1       5.992   3.992  19.180  0.00  0.00    +0.000 OA
ATOM     12  H   UNL     1       4.483   3.386  16.477  0.00  0.00    +0.000 HD
BRANCH   9  13
ATOM     13  C   UNL     1       6.264   4.497  16.376  0.00  0.00    +0.000 C 
BRANCH  13  15
ATOM     14  C   UNL     1       6.151   3.845  13.795  0.00  0.00    +0.000 C 
ATOM     15  C   UNL     1       6.193   4.128  14.956  0.00  0.00    +0.000 C 
BRANCH  14  17
ATOM     16  C   UNL     1       4.671   3.738  11.838  0.00  0.00    +0.000 C 
ATOM     17  C   UNL     1       6.095   3.503  12.360  0.00  0.00    +0.000 C 
ATOM     18  C   UNL     1       7.080   4.390  11.589  0.00  0.00    +0.000 C 
ATOM     19  C   UNL     1       6.476   2.027  12.195  0.00  0.00    +0.000 C 
ENDBRANCH  14  17
ENDBRANCH  13  15
BRANCH  13  20
ATOM     20  C   UNL     1       6.133   6.009  16.546  0.00  0.00    +0.000 C 
BRANCH  20  21
ATOM     21  C   UNL     1       7.289   6.583  17.314  0.00  0.00    +0.000 C 
ATOM     22  O   UNL     1       7.862   5.998  18.222  0.00  0.00    +0.000 OA
BRANCH  21  23
ATOM     23  O   UNL     1       7.668   7.807  16.889  0.00  0.00    +0.000 OA
ATOM     24  H   UNL     1       8.595   7.871  16.588  0.00  0.00    +0.000 HD
ENDBRANCH  21  23
ENDBRANCH  20  21
ENDBRANCH  13  20
ENDBRANCH   9  13
ENDBRANCH   1  10
BRANCH   6  25
ATOM     25  C   UNL     1       2.072   7.094  18.262  0.00  0.00    +0.000 C 
BRANCH  25  26
ATOM     26  C   UNL     1       1.876   8.474  18.860  0.00  0.00    +0.000 C 
BRANCH  26  27
ATOM     27  C   UNL     1       1.282   9.504  17.877  0.00  0.00    +0.000 C 
ATOM     28  C   UNL     1       1.911  10.880  18.152  0.00  0.00    +0.000 C 
ATOM     29  C   UNL     1       1.327  11.546  19.403  0.00  0.00    +0.000 C 
ATOM     30  N   UNL     1      -0.131  11.662  19.339  0.00  0.00    +0.000 NA
ATOM     31  C   UNL     1      -0.771  10.363  19.145  0.00  0.00    +0.000 C 
ATOM     32  C   UNL     1      -0.251   9.655  17.894  0.00  0.00    +0.000 C 
ATOM     33  H   UNL     1      -0.376  12.269  18.556  0.00  0.00    +0.000 HD
ENDBRANCH  26  27
ENDBRANCH  25  26
ENDBRANCH   6  25
TORSDOF 10
ENDMDL
MODEL 2
REMARK VINA RESULT:      -7.5      0.712      1.101
REMARK  Name = 
REMARK  13 active torsions:
REMARK  status: ('A' for Active; 'I' for Inactive)
REMARK    1  A    between atoms: C_1  and  C_2
REMARK    2  A    between atoms: C_2  and  C_3
REMARK    3  A    between atoms: C_2  and  C_4
REMARK    4  A    between atoms: C_2  and  C_5
REMARK    5  A    between atoms: C_6  and  C_7
REMARK    6  A    between atoms: C_7  and  C_8
REMARK    7  A    between atoms: C_7  and  N_12
REMARK    8  A    between atoms: C_8  and  C_9
REMARK    9  A    between atoms: C_9  and  O_11
REMARK   10  A    between atoms: C_13  and  C_15
REMARK   11  A    between atoms: C_20  and  C_22
REMARK   12  A    between atoms: C_22  and  C_23
REMARK   13  A    between atoms: C_23  and  C_24
REMARK                            x       y       z     vdW  Elec       q    Type
REMARK                         _______ _______ _______ _____ _____    ______ ____
ROOT
ATOM      1  C   UNL     1       3.640   3.079  18.794  0.00  0.00    +0.000 C 
ATOM      2  C   UNL     1       2.773   2.447  17.691  0.00  0.00    +0.000 C 
ATOM      3  C   UNL     1       1.991   3.455  16.857  0.00  0.00    +0.000 C 
ATOM      4  C   UNL     1       1.330   4.533  17.710  0.00  0.00    +0.000 C 
ATOM      5  N   UNL     1       2.214   5.074  18.747  0.00  0.00    +0.000 N 
ATOM      6  C   UNL     1       2.568   6.406  18.940  0.00  0.00    +0.000 C 
ATOM      7  O   UNL     1       3.302   6.773  19.859  0.00  0.00    +0.000 OA
ATOM      8  C   UNL     1       2.817   4.066  19.620  0.00  0.00    +0.000 C 
ENDROOT
BRANCH   1  10
ATOM      9  N   UNL     1       5.012   3.994  16.952  0.00  0.00    +0.000 N 
ATOM     10  C   UNL     1       4.942   3.728  18.297  0.00  0.00    +0.000 C 
ATOM     11  O   UNL     1       5.846   4.019  19.075  0.00  0.00    +0.000 OA
ATOM     12  H   UNL     1       4.289   3.629  16.359  0.00  0.00    +0.000 HD
BRANCH   9  13
ATOM     13  C   UNL     1       6.167   4.568  16.284  0.00  0.00    +0.000 C 
BRANCH  13  15
ATOM     14  C   UNL     1       6.081   3.851  13.720  0.00  0.00    +0.000 C 
ATOM     15  C   UNL     1       6.115   4.162  14.874  0.00  0.00    +0.000 C 
BRANCH  14  17
ATOM     16  C   UNL     1       4.617   3.720  11.752  0.00  0.00    +0.000 C 
ATOM     17  C   UNL     1       6.032   3.474  12.293  0.00  0.00    +0.000 C 
ATOM     18  C   UNL     1       7.039   4.325  11.509  0.00  0.00    +0.000 C 
ATOM     19  C   UNL     1       6.390   1.989  12.168  0.00  0.00    +0.000 C 
ENDBRANCH  14  17
ENDBRANCH  13  15
BRANCH  13  20
ATOM     20  C   UNL     1       6.125   6.090  16.407  0.00  0.00    +0.000 C 
BRANCH  20  21
ATOM     21  C   UNL     1       7.278   6.613  17.215  0.00  0.00    +0.000 C 
ATOM     22  O   UNL     1       7.728   7.744  17.108  0.00  0.00    +0.000 OA
BRANCH  21  23
ATOM     23  O   UNL     1       7.764   5.722  18.106  0.00  0.00    +0.000 OA
ATOM     24  H   UNL     1       8.419   6.083  18.735  0.00  0.00    +0.000 HD
ENDBRANCH  21  23
ENDBRANCH  20  21
ENDBRANCH  13  20
ENDBRANCH   9  13
ENDBRANCH   1  10
BRANCH   6  25
ATOM     25  C   UNL     1       2.148   7.413  17.890  0.00  0.00    +0.000 C 
BRANCH  25  26
ATOM     26  C   UNL     1       1.953   8.814  18.439  0.00  0.00    +0.000 C 
BRANCH  26  27
ATOM     27  C   UNL     1       0.571   9.048  19.082  0.00  0.00    +0.000 C 
ATOM     28  C   UNL     1      -0.131  10.205  18.352  0.00  0.00    +0.000 C 
ATOM     29  C   UNL     1       0.430  11.572  18.756  0.00  0.00    +0.000 C 
ATOM     30  N   UNL     1       0.381  11.786  20.203  0.00  0.00    +0.000 NA
ATOM     31  C   UNL     1       1.097  10.740  20.931  0.00  0.00    +0.000 C 
ATOM     32  C   UNL     1       0.566   9.347  20.593  0.00  0.00    +0.000 C 
ATOM     33  H   UNL     1      -0.596  11.782  20.501  0.00  0.00    +0.000 HD
ENDBRANCH  26  27
ENDBRANCH  25  26
ENDBRANCH   6  25
TORSDOF 10
ENDMDL
MODEL 3
REMARK VINA RESULT:      -7.2      1.623      2.034
REMARK  Name = 
REMARK  13 active torsions:
REMARK  status: ('A' for Active; 'I' for Inactive)
REMARK    1  A    between atoms: C_1  and  C_2
REMARK    2  A    between atoms: C_2  and  C_3
REMARK    3  A    between atoms: C_2  and  C_4
REMARK    4  A    between atoms: C_2  and  C_5
REMARK    5  A    between atoms: C_6  and  C_7
REMARK    6  A    between atoms: C_7  and  C_8
REMARK    7  A    between atoms: C_7  and  N_12
REMARK    8  A    between atoms: C_8  and  C_9
REMARK    9  A    between atoms: C_9  and  O_11
REMARK   10  A    between atoms: C_13  and  C_15
REMARK   11  A    between atoms: C_20  and  C_22
REMARK   12  A    between atoms: C_22  and  C_23
REMARK   13  A    between atoms: C_23  and  C_24
REMARK                            x       y       z     vdW  Elec       q    Type
REMARK                         _______ _______ _______ _____ _____    ______ ____
ROOT
ATOM      1  C   UNL     1       3.904   2.825  18.056  0.00  0.00    +0.000 C 
ATOM      2  C   UNL     1       2.534   2.266  17.635  0.00  0.00    +0.000 C 
ATOM      3  C   UNL     1       1.382   3.253  17.791  0.00  0.00    +0.000 C 
ATOM      4  C   UNL     1       1.432   4.006  19.116  0.00  0.00    +0.000 C 
ATOM      5  N   UNL     1       2.774   4.493  19.455  0.00  0.00    +0.000 N 
ATOM      6  C   UNL     1       3.148   5.805  19.726  0.00  0.00    +0.000 C 
ATOM      7  O   UNL     1       4.300   6.121  20.027  0.00  0.00    +0.000 OA
ATOM      8  C   UNL     1       3.816   3.467  19.441  0.00  0.00    +0.000 C 
ENDROOT
BRANCH   1  10
ATOM      9  N   UNL     1       5.910   3.706  16.909  0.00  0.00    +0.000 N 
ATOM     10  C   UNL     1       4.546   3.788  17.044  0.00  0.00    +0.000 C 
ATOM     11  O   UNL     1       3.863   4.558  16.375  0.00  0.00    +0.000 OA
ATOM     12  H   UNL     1       6.416   3.138  17.565  0.00  0.00    +0.000 HD
BRANCH   9  13
ATOM     13  C   UNL     1       6.705   4.552  16.037  0.00  0.00    +0.000 C 
BRANCH  13  15
ATOM     14  C   UNL     1       6.239   3.765  13.535  0.00  0.00    +0.000 C 
ATOM     15  C   UNL     1       6.459   4.123  14.654  0.00  0.00    +0.000 C 
BRANCH  14  17
ATOM     16  C   UNL     1       6.913   4.040  11.189  0.00  0.00    +0.000 C 
ATOM     17  C   UNL     1       5.967   3.314  12.155  0.00  0.00    +0.000 C 
ATOM     18  C   UNL     1       6.195   1.801  12.063  0.00  0.00    +0.000 C 
ATOM     19  C   UNL     1       4.510   3.648  11.812  0.00  0.00    +0.000 C 
ENDBRANCH  14  17
ENDBRANCH  13  15
BRANCH  13  20
ATOM     20  C   UNL     1       6.297   6.011  16.229  0.00  0.00    +0.000 C 
BRANCH  20  21
ATOM     21  C   UNL     1       7.075   6.664  17.335  0.00  0.00    +0.000 C 
ATOM     22  O   UNL     1       7.747   7.675  17.191  0.00  0.00    +0.000 OA
BRANCH  21  23
ATOM     23  O   UNL     1       6.944   6.046  18.528  0.00  0.00    +0.000 OA
ATOM     24  H   UNL     1       7.525   5.272  18.659  0.00  0.00    +0.000 HD
ENDBRANCH  21  23
ENDBRANCH  20  21
ENDBRANCH  13  20
ENDBRANCH   9  13
ENDBRANCH   1  10
BRANCH   6  25
ATOM     25  C   UNL     1       2.126   6.899  19.496  0.00  0.00    +0.000 C 
BRANCH  25  26
ATOM     26  C   UNL     1       1.759   7.659  20.757  0.00  0.00    +0.000 C 
BRANCH  26  27
ATOM     27  C   UNL     1       0.355   8.296  20.718  0.00  0.00    +0.000 C 
ATOM     28  C   UNL     1       0.451   9.681  20.057  0.00  0.00    +0.000 C 
ATOM     29  C   UNL     1       1.043  10.735  20.999  0.00  0.00    +0.000 C 
ATOM     30  N   UNL     1       0.305  10.829  22.259  0.00  0.00    +0.000 NA
ATOM     31  C   UNL     1       0.249   9.544  22.952  0.00  0.00    +0.000 C 
ATOM     32  C   UNL     1      -0.359   8.450  22.075  0.00  0.00    +0.000 C 
ATOM     33  H   UNL     1      -0.649  11.134  22.058  0.00  0.00    +0.000 HD
ENDBRANCH  26  27
ENDBRANCH  25  26
ENDBRANCH   6  25
TORSDOF 10
ENDMDL
MODEL 4
REMARK VINA RESULT:      -7.1      1.436      1.619
REMARK  Name = 
REMARK  13 active torsions:
REMARK  status: ('A' for Active; 'I' for Inactive)
REMARK    1  A    between atoms: C_1  and  C_2
REMARK    2  A    between atoms: C_2  and  C_3
REMARK    3  A    between atoms: C_2  and  C_4
REMARK    4  A    between atoms: C_2  and  C_5
REMARK    5  A    between atoms: C_6  and  C_7
REMARK    6  A    between atoms: C_7  and  C_8
REMARK    7  A    between atoms: C_7  and  N_12
REMARK    8  A    between atoms: C_8  and  C_9
REMARK    9  A    between atoms: C_9  and  O_11
REMARK   10  A    between atoms: C_13  and  C_15
REMARK   11  A    between atoms: C_20  and  C_22
REMARK   12  A    between atoms: C_22  and  C_23
REMARK   13  A    between atoms: C_23  and  C_24
REMARK                            x       y       z     vdW  Elec       q    Type
REMARK                         _______ _______ _______ _____ _____    ______ ____
ROOT
ATOM      1  C   UNL     1       3.531   2.465  18.683  0.00  0.00    +0.000 C 
ATOM      2  C   UNL     1       2.477   2.236  17.586  0.00  0.00    +0.000 C 
ATOM      3  C   UNL     1       1.581   3.440  17.320  0.00  0.00    +0.000 C 
ATOM      4  C   UNL     1       1.094   4.101  18.606  0.00  0.00    +0.000 C 
ATOM      5  N   UNL     1       2.152   4.270  19.607  0.00  0.00    +0.000 N 
ATOM      6  C   UNL     1       2.555   5.456  20.213  0.00  0.00    +0.000 C 
ATOM      7  O   UNL     1       3.442   5.499  21.067  0.00  0.00    +0.000 OA
ATOM      8  C   UNL     1       2.878   3.044  19.938  0.00  0.00    +0.000 C 
ENDROOT
BRANCH   1  10
ATOM      9  N   UNL     1       4.892   3.506  16.900  0.00  0.00    +0.000 N 
ATOM     10  C   UNL     1       4.739   3.312  18.251  0.00  0.00    +0.000 C 
ATOM     11  O   UNL     1       5.497   3.809  19.078  0.00  0.00    +0.000 OA
ATOM     12  H   UNL     1       4.305   2.979  16.278  0.00  0.00    +0.000 HD
BRANCH   9  13
ATOM     13  C   UNL     1       5.986   4.241  16.291  0.00  0.00    +0.000 C 
BRANCH  13  15
ATOM     14  C   UNL     1       5.990   3.710  13.681  0.00  0.00    +0.000 C 
ATOM     15  C   UNL     1       5.975   3.946  14.853  0.00  0.00    +0.000 C 
BRANCH  14  17
ATOM     16  C   UNL     1       4.605   3.649  11.653  0.00  0.00    +0.000 C 
ATOM     17  C   UNL     1       6.010   3.429  12.231  0.00  0.00    +0.000 C 
ATOM     18  C   UNL     1       7.005   4.372  11.545  0.00  0.00    +0.000 C 
ATOM     19  C   UNL     1       6.439   1.971  12.024  0.00  0.00    +0.000 C 
ENDBRANCH  14  17
ENDBRANCH  13  15
BRANCH  13  20
ATOM     20  C   UNL     1       5.795   5.737  16.535  0.00  0.00    +0.000 C 
BRANCH  20  21
ATOM     21  C   UNL     1       7.000   6.351  17.187  0.00  0.00    +0.000 C 
ATOM     22  O   UNL     1       7.883   5.705  17.733  0.00  0.00    +0.000 OA
BRANCH  21  23
ATOM     23  O   UNL     1       7.043   7.696  17.091  0.00  0.00    +0.000 OA
ATOM     24  H   UNL     1       7.158   8.168  17.939  0.00  0.00    +0.000 HD
ENDBRANCH  21  23
ENDBRANCH  20  21
ENDBRANCH  13  20
ENDBRANCH   9  13
ENDBRANCH   1  10
BRANCH   6  25
ATOM     25  C   UNL     1       1.978   6.755  19.689  0.00  0.00    +0.000 C 
BRANCH  25  26
ATOM     26  C   UNL     1       1.689   7.771  20.779  0.00  0.00    +0.000 C 
BRANCH  26  27
ATOM     27  C   UNL     1       0.277   8.385  20.703  0.00  0.00    +0.000 C 
ATOM     28  C   UNL     1       0.371   9.777  20.057  0.00  0.00    +0.000 C 
ATOM     29  C   UNL     1       0.916  10.832  21.026  0.00  0.00    +0.000 C 
ATOM     30  N   UNL     1       0.139  10.902  22.264  0.00  0.00    +0.000 NA
ATOM     31  C   UNL     1       0.082   9.610  22.944  0.00  0.00    +0.000 C 
ATOM     32  C   UNL     1      -0.481   8.515  22.038  0.00  0.00    +0.000 C 
ATOM     33  H   UNL     1      -0.813  11.194  22.036  0.00  0.00    +0.000 HD
ENDBRANCH  26  27
ENDBRANCH  25  26
ENDBRANCH   6  25
TORSDOF 10
ENDMDL
MODEL 5
REMARK VINA RESULT:      -7.1      2.838      8.008
REMARK  Name = 
REMARK  13 active torsions:
REMARK  status: ('A' for Active; 'I' for Inactive)
REMARK    1  A    between atoms: C_1  and  C_2
REMARK    2  A    between atoms: C_2  and  C_3
REMARK    3  A    between atoms: C_2  and  C_4
REMARK    4  A    between atoms: C_2  and  C_5
REMARK    5  A    between atoms: C_6  and  C_7
REMARK    6  A    between atoms: C_7  and  C_8
REMARK    7  A    between atoms: C_7  and  N_12
REMARK    8  A    between atoms: C_8  and  C_9
REMARK    9  A    between atoms: C_9  and  O_11
REMARK   10  A    between atoms: C_13  and  C_15
REMARK   11  A    between atoms: C_20  and  C_22
REMARK   12  A    between atoms: C_22  and  C_23
REMARK   13  A    between atoms: C_23  and  C_24
REMARK                            x       y       z     vdW  Elec       q    Type
REMARK                         _______ _______ _______ _____ _____    ______ ____
ROOT
ATOM      1  C   UNL     1       1.048   4.782  20.175  0.00  0.00    +0.000 C 
ATOM      2  C   UNL     1       1.187   3.802  21.352  0.00  0.00    +0.000 C 
ATOM      3  C   UNL     1       2.538   3.100  21.424  0.00  0.00    +0.000 C 
ATOM      4  C   UNL     1       3.011   2.600  20.063  0.00  0.00    +0.000 C 
ATOM      5  N   UNL     1       2.830   3.585  18.990  0.00  0.00    +0.000 N 
ATOM      6  C   UNL     1       3.809   4.091  18.141  0.00  0.00    +0.000 C 
ATOM      7  O   UNL     1       3.560   4.901  17.246  0.00  0.00    +0.000 OA
ATOM      8  C   UNL     1       1.471   4.110  18.868  0.00  0.00    +0.000 C 
ENDROOT
BRANCH   1  10
ATOM      9  N   UNL     1       0.984   7.201  20.684  0.00  0.00    +0.000 N 
ATOM     10  C   UNL     1       1.774   6.125  20.363  0.00  0.00    +0.000 C 
ATOM     11  O   UNL     1       2.994   6.208  20.265  0.00  0.00    +0.000 OA
ATOM     12  H   UNL     1      -0.012   7.088  20.636  0.00  0.00    +0.000 HD
BRANCH   9  13
ATOM     13  C   UNL     1       1.473   8.557  20.865  0.00  0.00    +0.000 C 
BRANCH  13  15
ATOM     14  C   UNL     1      -0.106  10.165  19.444  0.00  0.00    +0.000 C 
ATOM     15  C   UNL     1       0.603   9.451  20.091  0.00  0.00    +0.000 C 
BRANCH  14  17
ATOM     16  C   UNL     1      -1.530  10.259  17.445  0.00  0.00    +0.000 C 
ATOM     17  C   UNL     1      -0.974  11.047  18.638  0.00  0.00    +0.000 C 
ATOM     18  C   UNL     1      -2.132  11.551  19.508  0.00  0.00    +0.000 C 
ATOM     19  C   UNL     1      -0.137  12.231  18.140  0.00  0.00    +0.000 C 
ENDBRANCH  14  17
ENDBRANCH  13  15
BRANCH  13  20
ATOM     20  C   UNL     1       1.435   8.920  22.348  0.00  0.00    +0.000 C 
BRANCH  20  21
ATOM     21  C   UNL     1       0.038   9.217  22.811  0.00  0.00    +0.000 C 
ATOM     22  O   UNL     1      -0.897   8.437  22.701  0.00  0.00    +0.000 OA
BRANCH  21  23
ATOM     23  O   UNL     1      -0.094  10.427  23.395  0.00  0.00    +0.000 OA
ATOM     24  H   UNL     1      -0.910  10.911  23.162  0.00  0.00    +0.000 HD
ENDBRANCH  21  23
ENDBRANCH  20  21
ENDBRANCH  13  20
ENDBRANCH   9  13
ENDBRANCH   1  10
BRANCH   6  25
ATOM     25  C   UNL     1       5.254   3.739  18.428  0.00  0.00    +0.000 C 
BRANCH  25  26
ATOM     26  C   UNL     1       6.031   4.862  19.089  0.00  0.00    +0.000 C 
BRANCH  26  27
ATOM     27  C   UNL     1       7.468   5.026  18.558  0.00  0.00    +0.000 C 
ATOM     28  C   UNL     1       7.868   6.509  18.642  0.00  0.00    +0.000 C 
ATOM     29  C   UNL     1       7.226   7.347  17.531  0.00  0.00    +0.000 C 
ATOM     30  N   UNL     1       7.521   6.821  16.198  0.00  0.00    +0.000 NA
ATOM     31  C   UNL     1       7.095   5.431  16.056  0.00  0.00    +0.000 C 
ATOM     32  C   UNL     1       7.723   4.532  17.121  0.00  0.00    +0.000 C 
ATOM     33  H   UNL     1       8.529   6.872  16.043  0.00  0.00    +0.000 HD
ENDBRANCH  26  27
ENDBRANCH  25  26
ENDBRANCH   6  25
TORSDOF 10
ENDMDL
MODEL 6
REMARK VINA RESULT:      -7.0      4.824      8.835
REMARK  Name = 
REMARK  13 active torsions:
REMARK  status: ('A' for Active; 'I' for Inactive)
REMARK    1  A    between atoms: C_1  and  C_2
REMARK    2  A    between atoms: C_2  and  C_3
REMARK    3  A    between atoms: C_2  and  C_4
REMARK    4  A    between atoms: C_2  and  C_5
REMARK    5  A    between atoms: C_6  and  C_7
REMARK    6  A    between atoms: C_7  and  C_8
REMARK    7  A    between atoms: C_7  and  N_12
REMARK    8  A    between atoms: C_8  and  C_9
REMARK    9  A    between atoms: C_9  and  O_11
REMARK   10  A    between atoms: C_13  and  C_15
REMARK   11  A    between atoms: C_20  and  C_22
REMARK   12  A    between atoms: C_22  and  C_23
REMARK   13  A    between atoms: C_23  and  C_24
REMARK                            x       y       z     vdW  Elec       q    Type
REMARK                         _______ _______ _______ _____ _____    ______ ____
ROOT
ATOM      1  C   UNL     1       0.452  11.955  18.462  0.00  0.00    +0.000 C 
ATOM      2  C   UNL     1       1.722  12.603  19.042  0.00  0.00    +0.000 C 
ATOM      3  C   UNL     1       1.531  13.228  20.419  0.00  0.00    +0.000 C 
ATOM      4  C   UNL     1       0.244  14.042  20.519  0.00  0.00    +0.000 C 
ATOM      5  N   UNL     1      -0.916  13.365  19.930  0.00  0.00    +0.000 N 
ATOM      6  C   UNL     1      -2.121  13.063  20.558  0.00  0.00    +0.000 C 
ATOM      7  O   UNL     1      -3.055  12.511  19.975  0.00  0.00    +0.000 OA
ATOM      8  C   UNL     1      -0.728  12.923  18.549  0.00  0.00    +0.000 C 
ENDROOT
BRANCH   1  10
ATOM      9  N   UNL     1       1.048  10.003  19.859  0.00  0.00    +0.000 N 
ATOM     10  C   UNL     1       0.090  10.590  19.070  0.00  0.00    +0.000 C 
ATOM     11  O   UNL     1      -1.011  10.080  18.881  0.00  0.00    +0.000 OA
ATOM     12  H   UNL     1       1.963  10.417  19.879  0.00  0.00    +0.000 HD
BRANCH   9  13
ATOM     13  C   UNL     1       0.914   8.702  20.490  0.00  0.00    +0.000 C 
BRANCH  13  15
ATOM     14  C   UNL     1       2.519   7.017  19.194  0.00  0.00    +0.000 C 
ATOM     15  C   UNL     1       1.789   7.766  19.773  0.00  0.00    +0.000 C 
BRANCH  14  17
ATOM     16  C   UNL     1       4.402   5.464  19.470  0.00  0.00    +0.000 C 
ATOM     17  C   UNL     1       3.423   6.099  18.473  0.00  0.00    +0.000 C 
ATOM     18  C   UNL     1       2.595   5.002  17.793  0.00  0.00    +0.000 C 
ATOM     19  C   UNL     1       4.196   6.903  17.420  0.00  0.00    +0.000 C 
ENDBRANCH  14  17
ENDBRANCH  13  15
BRANCH  13  20
ATOM     20  C   UNL     1       1.320   8.802  21.959  0.00  0.00    +0.000 C 
BRANCH  20  21
ATOM     21  C   UNL     1       0.289   9.531  22.772  0.00  0.00    +0.000 C 
ATOM     22  O   UNL     1      -0.725  10.025  22.301  0.00  0.00    +0.000 OA
BRANCH  21  23
ATOM     23  O   UNL     1       0.567   9.570  24.092  0.00  0.00    +0.000 OA
ATOM     24  H   UNL     1       1.477   9.305  24.330  0.00  0.00    +0.000 HD
ENDBRANCH  21  23
ENDBRANCH  20  21
ENDBRANCH  13  20
ENDBRANCH   9  13
ENDBRANCH   1  10
BRANCH   6  25
ATOM     25  C   UNL     1      -2.223  13.293  22.051  0.00  0.00    +0.000 C 
BRANCH  25  26
ATOM     26  C   UNL     1      -3.451  12.659  22.679  0.00  0.00    +0.000 C 
BRANCH  26  27
ATOM     27  C   UNL     1      -3.753  13.157  24.106  0.00  0.00    +0.000 C 
ATOM     28  C   UNL     1      -4.928  12.348  24.681  0.00  0.00    +0.000 C 
ATOM     29  C   UNL     1      -6.276  12.793  24.103  0.00  0.00    +0.000 C 
ATOM     30  N   UNL     1      -6.513  14.225  24.286  0.00  0.00    +0.000 NA
ATOM     31  C   UNL     1      -5.448  15.032  23.694  0.00  0.00    +0.000 C 
ATOM     32  C   UNL     1      -4.074  14.657  24.249  0.00  0.00    +0.000 C 
ATOM     33  H   UNL     1      -6.555  14.424  25.287  0.00  0.00    +0.000 HD
ENDBRANCH  26  27
ENDBRANCH  25  26
ENDBRANCH   6  25
TORSDOF 10
ENDMDL
MODEL 7
REMARK VINA RESULT:      -7.0      0.913      1.330
REMARK  Name = 
REMARK  13 active torsions:
REMARK  status: ('A' for Active; 'I' for Inactive)
REMARK    1  A    between atoms: C_1  and  C_2
REMARK    2  A    between atoms: C_2  and  C_3
REMARK    3  A    between atoms: C_2  and  C_4
REMARK    4  A    between atoms: C_2  and  C_5
REMARK    5  A    between atoms: C_6  and  C_7
REMARK    6  A    between atoms: C_7  and  C_8
REMARK    7  A    between atoms: C_7  and  N_12
REMARK    8  A    between atoms: C_8  and  C_9
REMARK    9  A    between atoms: C_9  and  O_11
REMARK   10  A    between atoms: C_13  and  C_15
REMARK   11  A    between atoms: C_20  and  C_22
REMARK   12  A    between atoms: C_22  and  C_23
REMARK   13  A    between atoms: C_23  and  C_24
REMARK                            x       y       z     vdW  Elec       q    Type
REMARK                         _______ _______ _______ _____ _____    ______ ____
ROOT
ATOM      1  C   UNL     1       4.037   2.879  18.909  0.00  0.00    +0.000 C 
ATOM      2  C   UNL     1       3.173   2.208  17.827  0.00  0.00    +0.000 C 
ATOM      3  C   UNL     1       2.235   3.162  17.097  0.00  0.00    +0.000 C 
ATOM      4  C   UNL     1       1.517   4.117  18.046  0.00  0.00    +0.000 C 
ATOM      5  N   UNL     1       2.404   4.703  19.057  0.00  0.00    +0.000 N 
ATOM      6  C   UNL     1       2.623   6.055  19.302  0.00  0.00    +0.000 C 
ATOM      7  O   UNL     1       3.370   6.458  20.194  0.00  0.00    +0.000 OA
ATOM      8  C   UNL     1       3.167   3.728  19.836  0.00  0.00    +0.000 C 
ENDROOT
BRANCH   1  10
ATOM      9  N   UNL     1       5.434   3.641  17.016  0.00  0.00    +0.000 N 
ATOM     10  C   UNL     1       5.226   3.693  18.372  0.00  0.00    +0.000 C 
ATOM     11  O   UNL     1       5.920   4.375  19.120  0.00  0.00    +0.000 OA
ATOM     12  H   UNL     1       4.903   2.978  16.481  0.00  0.00    +0.000 HD
BRANCH   9  13
ATOM     13  C   UNL     1       6.523   4.306  16.323  0.00  0.00    +0.000 C 
BRANCH  13  15
ATOM     14  C   UNL     1       6.253   3.767  13.728  0.00  0.00    +0.000 C 
ATOM     15  C   UNL     1       6.385   4.014  14.891  0.00  0.00    +0.000 C 
BRANCH  14  17
ATOM     16  C   UNL     1       6.460   1.982  12.054  0.00  0.00    +0.000 C 
ATOM     17  C   UNL     1       6.089   3.451  12.295  0.00  0.00    +0.000 C 
ATOM     18  C   UNL     1       4.629   3.689  11.888  0.00  0.00    +0.000 C 
ATOM     19  C   UNL     1       7.016   4.366  11.486  0.00  0.00    +0.000 C 
ENDBRANCH  14  17
ENDBRANCH  13  15
BRANCH  13  20
ATOM     20  C   UNL     1       6.445   5.811  16.575  0.00  0.00    +0.000 C 
BRANCH  20  21
ATOM     21  C   UNL     1       5.144   6.387  16.095  0.00  0.00    +0.000 C 
ATOM     22  O   UNL     1       4.097   6.321  16.722  0.00  0.00    +0.000 OA
BRANCH  21  23
ATOM     23  O   UNL     1       5.237   7.020  14.906  0.00  0.00    +0.000 OA
ATOM     24  H   UNL     1       5.312   7.993  14.961  0.00  0.00    +0.000 HD
ENDBRANCH  21  23
ENDBRANCH  20  21
ENDBRANCH  13  20
ENDBRANCH   9  13
ENDBRANCH   1  10
BRANCH   6  25
ATOM     25  C   UNL     1       2.029   7.059  18.335  0.00  0.00    +0.000 C 
BRANCH  25  26
ATOM     26  C   UNL     1       1.779   8.421  18.956  0.00  0.00    +0.000 C 
BRANCH  26  27
ATOM     27  C   UNL     1       1.256   9.476  17.961  0.00  0.00    +0.000 C 
ATOM     28  C   UNL     1       1.911  10.831  18.278  0.00  0.00    +0.000 C 
ATOM     29  C   UNL     1       1.292  11.501  19.509  0.00  0.00    +0.000 C 
ATOM     30  N   UNL     1      -0.158  11.658  19.385  0.00  0.00    +0.000 NA
ATOM     31  C   UNL     1      -0.825  10.380  19.149  0.00  0.00    +0.000 C 
ATOM     32  C   UNL     1      -0.271   9.669  17.914  0.00  0.00    +0.000 C 
ATOM     33  H   UNL     1      -0.353  12.279  18.598  0.00  0.00    +0.000 HD
ENDBRANCH  26  27
ENDBRANCH  25  26
ENDBRANCH   6  25
TORSDOF 10
ENDMDL
MODEL 8
REMARK VINA RESULT:      -7.0      2.769      7.700
REMARK  Name = 
REMARK  13 active torsions:
REMARK  status: ('A' for Active; 'I' for Inactive)
REMARK    1  A    between atoms: C_1  and  C_2
REMARK    2  A    between atoms: C_2  and  C_3
REMARK    3  A    between atoms: C_2  and  C_4
REMARK    4  A    between atoms: C_2  and  C_5
REMARK    5  A    between atoms: C_6  and  C_7
REMARK    6  A    between atoms: C_7  and  C_8
REMARK    7  A    between atoms: C_7  and  N_12
REMARK    8  A    between atoms: C_8  and  C_9
REMARK    9  A    between atoms: C_9  and  O_11
REMARK   10  A    between atoms: C_13  and  C_15
REMARK   11  A    between atoms: C_20  and  C_22
REMARK   12  A    between atoms: C_22  and  C_23
REMARK   13  A    between atoms: C_23  and  C_24
REMARK                            x       y       z     vdW  Elec       q    Type
REMARK                         _______ _______ _______ _____ _____    ______ ____
ROOT
ATOM      1  C   UNL     1       1.092   4.479  20.874  0.00  0.00    +0.000 C 
ATOM      2  C   UNL     1       1.900   3.465  21.701  0.00  0.00    +0.000 C 
ATOM      3  C   UNL     1       3.025   2.784  20.930  0.00  0.00    +0.000 C 
ATOM      4  C   UNL     1       2.591   2.335  19.538  0.00  0.00    +0.000 C 
ATOM      5  N   UNL     1       1.812   3.349  18.819  0.00  0.00    +0.000 N 
ATOM      6  C   UNL     1       2.094   3.898  17.572  0.00  0.00    +0.000 C 
ATOM      7  O   UNL     1       1.365   4.731  17.031  0.00  0.00    +0.000 OA
ATOM      8  C   UNL     1       0.650   3.855  19.550  0.00  0.00    +0.000 C 
ENDROOT
BRANCH   1  10
ATOM      9  N   UNL     1       1.150   6.938  21.124  0.00  0.00    +0.000 N 
ATOM     10  C   UNL     1       1.794   5.827  20.640  0.00  0.00    +0.000 C 
ATOM     11  O   UNL     1       2.885   5.887  20.081  0.00  0.00    +0.000 OA
ATOM     12  H   UNL     1       0.212   6.829  21.467  0.00  0.00    +0.000 HD
BRANCH   9  13
ATOM     13  C   UNL     1       1.629   8.300  20.971  0.00  0.00    +0.000 C 
BRANCH  13  15
ATOM     14  C   UNL     1      -0.057   9.597  19.367  0.00  0.00    +0.000 C 
ATOM     15  C   UNL     1       0.696   9.004  20.082  0.00  0.00    +0.000 C 
BRANCH  14  17
ATOM     16  C   UNL     1      -2.374  10.387  19.159  0.00  0.00    +0.000 C 
ATOM     17  C   UNL     1      -0.993  10.332  18.492  0.00  0.00    +0.000 C 
ATOM     18  C   UNL     1      -0.468  11.757  18.273  0.00  0.00    +0.000 C 
ATOM     19  C   UNL     1      -1.087   9.595  17.151  0.00  0.00    +0.000 C 
ENDBRANCH  14  17
ENDBRANCH  13  15
BRANCH  13  20
ATOM     20  C   UNL     1       1.684   8.979  22.338  0.00  0.00    +0.000 C 
BRANCH  20  21
ATOM     21  C   UNL     1       0.339   9.504  22.752  0.00  0.00    +0.000 C 
ATOM     22  O   UNL     1       0.082  10.692  22.881  0.00  0.00    +0.000 OA
BRANCH  21  23
ATOM     23  O   UNL     1      -0.584   8.538  22.943  0.00  0.00    +0.000 OA
ATOM     24  H   UNL     1      -0.342   7.860  23.603  0.00  0.00    +0.000 HD
ENDBRANCH  21  23
ENDBRANCH  20  21
ENDBRANCH  13  20
ENDBRANCH   9  13
ENDBRANCH   1  10
BRANCH   6  25
ATOM     25  C   UNL     1       3.424   3.561  16.930  0.00  0.00    +0.000 C 
BRANCH  25  26
ATOM     26  C   UNL     1       4.558   4.463  17.380  0.00  0.00    +0.000 C 
BRANCH  26  27
ATOM     27  C   UNL     1       4.759   5.707  16.491  0.00  0.00    +0.000 C 
ATOM     28  C   UNL     1       5.419   5.278  15.170  0.00  0.00    +0.000 C 
ATOM     29  C   UNL     1       6.916   4.995  15.333  0.00  0.00    +0.000 C 
ATOM     30  N   UNL     1       7.635   6.132  15.909  0.00  0.00    +0.000 NA
ATOM     31  C   UNL     1       7.079   6.529  17.201  0.00  0.00    +0.000 C 
ATOM     32  C   UNL     1       5.588   6.852  17.102  0.00  0.00    +0.000 C 
ATOM     33  H   UNL     1       7.566   6.922  15.266  0.00  0.00    +0.000 HD
ENDBRANCH  26  27
ENDBRANCH  25  26
ENDBRANCH   6  25
TORSDOF 10
ENDMDL
MODEL 9
REMARK VINA RESULT:      -6.9      3.509      6.465
REMARK  Name = 
REMARK  13 active torsions:
REMARK  status: ('A' for Active; 'I' for Inactive)
REMARK    1  A    between atoms: C_1  and  C_2
REMARK    2  A    between atoms: C_2  and  C_3
REMARK    3  A    between atoms: C_2  and  C_4
REMARK    4  A    between atoms: C_2  and  C_5
REMARK    5  A    between atoms: C_6  and  C_7
REMARK    6  A    between atoms: C_7  and  C_8
REMARK    7  A    between atoms: C_7  and  N_12
REMARK    8  A    between atoms: C_8  and  C_9
REMARK    9  A    between atoms: C_9  and  O_11
REMARK   10  A    between atoms: C_13  and  C_15
REMARK   11  A    between atoms: C_20  and  C_22
REMARK   12  A    between atoms: C_22  and  C_23
REMARK   13  A    between atoms: C_23  and  C_24
REMARK                            x       y       z     vdW  Elec       q    Type
REMARK                         _______ _______ _______ _____ _____    ______ ____
ROOT
ATOM      1  C   UNL     1       1.407   9.157  22.094  0.00  0.00    +0.000 C 
ATOM      2  C   UNL     1       0.512   9.504  23.296  0.00  0.00    +0.000 C 
ATOM      3  C   UNL     1      -0.838  10.103  22.916  0.00  0.00    +0.000 C 
ATOM      4  C   UNL     1      -0.721  11.163  21.826  0.00  0.00    +0.000 C 
ATOM      5  N   UNL     1       0.162  10.765  20.724  0.00  0.00    +0.000 N 
ATOM      6  C   UNL     1      -0.159  10.698  19.372  0.00  0.00    +0.000 C 
ATOM      7  O   UNL     1       0.659  10.375  18.509  0.00  0.00    +0.000 OA
ATOM      8  C   UNL     1       1.501  10.346  21.138  0.00  0.00    +0.000 C 
ENDROOT
BRANCH   1  10
ATOM      9  N   UNL     1       2.044   7.103  20.873  0.00  0.00    +0.000 N 
ATOM     10  C   UNL     1       1.011   7.875  21.343  0.00  0.00    +0.000 C 
ATOM     11  O   UNL     1      -0.166   7.555  21.208  0.00  0.00    +0.000 OA
ATOM     12  H   UNL     1       2.974   7.480  20.918  0.00  0.00    +0.000 HD
BRANCH   9  13
ATOM     13  C   UNL     1       1.878   5.880  20.108  0.00  0.00    +0.000 C 
BRANCH  13  15
ATOM     14  C   UNL     1       3.925   5.721  18.411  0.00  0.00    +0.000 C 
ATOM     15  C   UNL     1       2.998   5.789  19.163  0.00  0.00    +0.000 C 
BRANCH  14  17
ATOM     16  C   UNL     1       4.987   6.806  16.480  0.00  0.00    +0.000 C 
ATOM     17  C   UNL     1       5.071   5.647  17.482  0.00  0.00    +0.000 C 
ATOM     18  C   UNL     1       6.377   5.747  18.279  0.00  0.00    +0.000 C 
ATOM     19  C   UNL     1       5.010   4.307  16.739  0.00  0.00    +0.000 C 
ENDBRANCH  14  17
ENDBRANCH  13  15
BRANCH  13  20
ATOM     20  C   UNL     1       1.873   4.682  21.055  0.00  0.00    +0.000 C 
BRANCH  20  21
ATOM     21  C   UNL     1       1.663   3.392  20.315  0.00  0.00    +0.000 C 
ATOM     22  O   UNL     1       0.648   3.123  19.688  0.00  0.00    +0.000 OA
BRANCH  21  23
ATOM     23  O   UNL     1       2.718   2.553  20.377  0.00  0.00    +0.000 OA
ATOM     24  H   UNL     1       2.497   1.626  20.591  0.00  0.00    +0.000 HD
ENDBRANCH  21  23
ENDBRANCH  20  21
ENDBRANCH  13  20
ENDBRANCH   9  13
ENDBRANCH   1  10
BRANCH   6  25
ATOM     25  C   UNL     1      -1.608  10.889  18.973  0.00  0.00    +0.000 C 
BRANCH  25  26
ATOM     26  C   UNL     1      -1.816  10.970  17.472  0.00  0.00    +0.000 C 
BRANCH  26  27
ATOM     27  C   UNL     1      -2.899  10.011  16.938  0.00  0.00    +0.000 C 
ATOM     28  C   UNL     1      -3.594  10.662  15.731  0.00  0.00    +0.000 C 
ATOM     29  C   UNL     1      -4.586  11.753  16.150  0.00  0.00    +0.000 C 
ATOM     30  N   UNL     1      -5.584  11.259  17.100  0.00  0.00    +0.000 NA
ATOM     31  C   UNL     1      -4.963  10.691  18.294  0.00  0.00    +0.000 C 
ATOM     32  C   UNL     1      -3.978   9.574  17.947  0.00  0.00    +0.000 C 
ATOM     33  H   UNL     1      -6.138  10.533  16.643  0.00  0.00    +0.000 HD
ENDBRANCH  26  27
ENDBRANCH  25  26
ENDBRANCH   6  25
TORSDOF 10
ENDMDL
