MODEL 1
REMARK VINA RESULT:      -8.1      0.000      0.000
REMARK  Name = 
REMARK  3 active torsions:
REMARK  status: ('A' for Active; 'I' for Inactive)
REMARK    1  A    between atoms: C_8  and  C_9
REMARK    2  A    between atoms: C_9  and  N_10
REMARK    3  A    between atoms: N_13  and  C_14
REMARK                            x       y       z     vdW  Elec       q    Type
REMARK                         _______ _______ _______ _____ _____    ______ ____
ROOT
ATOM      1  C   UNL     1       4.501   3.409  18.957  0.00  0.00    +0.000 C 
ENDROOT
BRANCH   1   9
ATOM      2  O   UNL     1       6.639   3.320  12.050  0.00  0.00    +0.000 OA
ATOM      3  C   UNL     1       6.627   3.873  13.153  0.00  0.00    +0.000 C 
ATOM      4  C   UNL     1       7.466   5.111  13.466  0.00  0.00    +0.000 C 
ATOM      5  O   UNL     1       7.828   5.362  14.815  0.00  0.00    +0.000 OA
ATOM      6  C   UNL     1       6.922   4.904  15.731  0.00  0.00    +0.000 A 
ATOM      7  C   UNL     1       7.112   5.337  17.033  0.00  0.00    +0.000 A 
ATOM      8  C   UNL     1       6.276   4.853  18.032  0.00  0.00    +0.000 A 
ATOM      9  C   UNL     1       5.236   3.930  17.751  0.00  0.00    +0.000 A 
ATOM     10  C   UNL     1       5.041   3.514  16.441  0.00  0.00    +0.000 A 
ATOM     11  C   UNL     1       5.900   3.989  15.441  0.00  0.00    +0.000 A 
ATOM     12  N   UNL     1       5.790   3.472  14.150  0.00  0.00    +0.000 N 
ATOM     13  H   UNL     1       5.172   2.693  13.956  0.00  0.00    +0.000 HD
ENDBRANCH   1   9
BRANCH   1  14
ATOM     14  N   UNL     1       3.046   3.584  19.161  0.00  0.00    +0.000 NA
ATOM     15  C   UNL     1       2.908   4.582  20.254  0.00  0.00    +0.000 C 
ATOM     16  C   UNL     1       3.462   5.941  19.800  0.00  0.00    +0.000 C 
ATOM     17  N   UNL     1       2.440   6.527  18.951  0.00  0.00    +0.000 N 
ATOM     18  C   UNL     1       2.059   5.718  17.781  0.00  0.00    +0.000 C 
ATOM     19  C   UNL     1       2.257   4.138  18.013  0.00  0.00    +0.000 C 
BRANCH  17  20
ATOM     20  C   UNL     1       1.983   7.772  19.331  0.00  0.00    +0.000 A 
ATOM     21  C   UNL     1       1.497   8.078  20.603  0.00  0.00    +0.000 A 
ATOM     22  C   UNL     1       0.870   9.315  20.853  0.00  0.00    +0.000 A 
ATOM     23  C   UNL     1       0.731  10.262  19.839  0.00  0.00    +0.000 A 
ATOM     24 CL   UNL     1      -0.092  11.746  20.121  0.00  0.00    +0.000 Cl
ATOM     25  C   UNL     1       1.255  10.009  18.584  0.00  0.00    +0.000 A 
ATOM     26  C   UNL     1       1.892   8.793  18.356  0.00  0.00    +0.000 A 
ENDBRANCH  17  20
ENDBRANCH   1  14
TORSDOF 3
ENDMDL
MODEL 2
REMARK VINA RESULT:      -7.9      4.439      8.221
REMARK  Name = 
REMARK  3 active torsions:
REMARK  status: ('A' for Active; 'I' for Inactive)
REMARK    1  A    between atoms: C_8  and  C_9
REMARK    2  A    between atoms: C_9  and  N_10
REMARK    3  A    between atoms: N_13  and  C_14
REMARK                            x       y       z     vdW  Elec       q    Type
REMARK                         _______ _______ _______ _____ _____    ______ ____
ROOT
ATOM      1  C   UNL     1       2.477   4.929  19.523  0.00  0.00    +0.000 C 
ENDROOT
BRANCH   1   9
ATOM      2  O   UNL     1      -0.201  10.696  22.968  0.00  0.00    +0.000 OA
ATOM      3  C   UNL     1       0.409  10.219  22.007  0.00  0.00    +0.000 C 
ATOM      4  C   UNL     1       0.830  11.053  20.798  0.00  0.00    +0.000 C 
ATOM      5  O   UNL     1       1.016  10.398  19.553  0.00  0.00    +0.000 OA
ATOM      6  C   UNL     1       1.431   9.100  19.662  0.00  0.00    +0.000 A 
ATOM      7  C   UNL     1       1.855   8.504  18.486  0.00  0.00    +0.000 A 
ATOM      8  C   UNL     1       2.220   7.163  18.505  0.00  0.00    +0.000 A 
ATOM      9  C   UNL     1       2.169   6.393  19.695  0.00  0.00    +0.000 A 
ATOM     10  C   UNL     1       1.758   7.002  20.873  0.00  0.00    +0.000 A 
ATOM     11  C   UNL     1       1.372   8.348  20.844  0.00  0.00    +0.000 A 
ATOM     12  N   UNL     1       0.835   8.925  21.996  0.00  0.00    +0.000 N 
ATOM     13  H   UNL     1       0.629   8.359  22.810  0.00  0.00    +0.000 HD
ENDBRANCH   1   9
BRANCH   1  14
ATOM     14  N   UNL     1       3.847   4.375  19.580  0.00  0.00    +0.000 NA
ATOM     15  C   UNL     1       3.966   3.473  18.405  0.00  0.00    +0.000 C 
ATOM     16  C   UNL     1       3.866   4.284  17.104  0.00  0.00    +0.000 C 
ATOM     17  N   UNL     1       5.163   4.914  16.924  0.00  0.00    +0.000 N 
ATOM     18  C   UNL     1       5.595   5.782  18.032  0.00  0.00    +0.000 C 
ATOM     19  C   UNL     1       4.983   5.346  19.454  0.00  0.00    +0.000 C 
BRANCH  17  20
ATOM     20  C   UNL     1       5.803   4.644  15.732  0.00  0.00    +0.000 A 
ATOM     21  C   UNL     1       7.032   5.190  15.358  0.00  0.00    +0.000 A 
ATOM     22  C   UNL     1       7.523   5.020  14.048  0.00  0.00    +0.000 A 
ATOM     23  C   UNL     1       6.798   4.295  13.103  0.00  0.00    +0.000 A 
ATOM     24 CL   UNL     1       7.362   4.141  11.485  0.00  0.00    +0.000 Cl
ATOM     25  C   UNL     1       5.606   3.695  13.462  0.00  0.00    +0.000 A 
ATOM     26  C   UNL     1       5.142   3.851  14.766  0.00  0.00    +0.000 A 
ENDBRANCH  17  20
ENDBRANCH   1  14
TORSDOF 3
ENDMDL
MODEL 3
REMARK VINA RESULT:      -7.8      0.448      1.051
REMARK  Name = 
REMARK  3 active torsions:
REMARK  status: ('A' for Active; 'I' for Inactive)
REMARK    1  A    between atoms: C_8  and  C_9
REMARK    2  A    between atoms: C_9  and  N_10
REMARK    3  A    between atoms: N_13  and  C_14
REMARK                            x       y       z     vdW  Elec       q    Type
REMARK                         _______ _______ _______ _____ _____    ______ ____
ROOT
ATOM      1  C   UNL     1       4.694   3.649  18.848  0.00  0.00    +0.000 C 
ENDROOT
BRANCH   1   9
ATOM      2  O   UNL     1       6.747   3.236  11.927  0.00  0.00    +0.000 OA
ATOM      3  C   UNL     1       6.726   3.853  12.995  0.00  0.00    +0.000 C 
ATOM      4  C   UNL     1       7.514   5.142  13.221  0.00  0.00    +0.000 C 
ATOM      5  O   UNL     1       7.882   5.488  14.547  0.00  0.00    +0.000 OA
ATOM      6  C   UNL     1       7.008   5.048  15.502  0.00  0.00    +0.000 A 
ATOM      7  C   UNL     1       7.197   5.565  16.773  0.00  0.00    +0.000 A 
ATOM      8  C   UNL     1       6.394   5.107  17.811  0.00  0.00    +0.000 A 
ATOM      9  C   UNL     1       5.391   4.127  17.602  0.00  0.00    +0.000 A 
ATOM     10  C   UNL     1       5.198   3.625  16.321  0.00  0.00    +0.000 A 
ATOM     11  C   UNL     1       6.023   4.075  15.283  0.00  0.00    +0.000 A 
ATOM     12  N   UNL     1       5.919   3.477  14.026  0.00  0.00    +0.000 N 
ATOM     13  H   UNL     1       5.333   2.663  13.888  0.00  0.00    +0.000 HD
ENDBRANCH   1   9
BRANCH   1  14
ATOM     14  N   UNL     1       3.225   3.669  19.016  0.00  0.00    +0.000 NA
ATOM     15  C   UNL     1       2.963   4.560  20.175  0.00  0.00    +0.000 C 
ATOM     16  C   UNL     1       3.395   5.997  19.844  0.00  0.00    +0.000 C 
ATOM     17  N   UNL     1       2.342   6.549  19.009  0.00  0.00    +0.000 N 
ATOM     18  C   UNL     1       2.072   5.801  17.769  0.00  0.00    +0.000 C 
ATOM     19  C   UNL     1       2.416   4.234  17.887  0.00  0.00    +0.000 C 
BRANCH  17  20
ATOM     20  C   UNL     1       1.758   7.712  19.466  0.00  0.00    +0.000 A 
ATOM     21  C   UNL     1       1.569   8.855  18.688  0.00  0.00    +0.000 A 
ATOM     22  C   UNL     1       1.145  10.063  19.280  0.00  0.00    +0.000 A 
ATOM     23  C   UNL     1       0.897  10.137  20.649  0.00  0.00    +0.000 A 
ATOM     24 CL   UNL     1       0.444  11.624  21.386  0.00  0.00    +0.000 Cl
ATOM     25  C   UNL     1       1.021   9.006  21.435  0.00  0.00    +0.000 A 
ATOM     26  C   UNL     1       1.418   7.813  20.834  0.00  0.00    +0.000 A 
ENDBRANCH  17  20
ENDBRANCH   1  14
TORSDOF 3
ENDMDL
MODEL 4
REMARK VINA RESULT:      -7.6      4.255      6.827
REMARK  Name = 
REMARK  3 active torsions:
REMARK  status: ('A' for Active; 'I' for Inactive)
REMARK    1  A    between atoms: C_8  and  C_9
REMARK    2  A    between atoms: C_9  and  N_10
REMARK    3  A    between atoms: N_13  and  C_14
REMARK                            x       y       z     vdW  Elec       q    Type
REMARK                         _______ _______ _______ _____ _____    ______ ____
ROOT
ATOM      1  C   UNL     1       1.407   9.278  19.875  0.00  0.00    +0.000 C 
ENDROOT
BRANCH   1   9
ATOM      2  O   UNL     1       2.794   2.489  21.944  0.00  0.00    +0.000 OA
ATOM      3  C   UNL     1       2.736   3.338  21.051  0.00  0.00    +0.000 C 
ATOM      4  C   UNL     1       3.221   3.074  19.626  0.00  0.00    +0.000 C 
ATOM      5  O   UNL     1       3.629   4.177  18.833  0.00  0.00    +0.000 OA
ATOM      6  C   UNL     1       2.982   5.345  19.126  0.00  0.00    +0.000 A 
ATOM      7  C   UNL     1       3.171   6.379  18.224  0.00  0.00    +0.000 A 
ATOM      8  C   UNL     1       2.606   7.620  18.495  0.00  0.00    +0.000 A 
ATOM      9  C   UNL     1       1.844   7.852  19.668  0.00  0.00    +0.000 A 
ATOM     10  C   UNL     1       1.646   6.806  20.560  0.00  0.00    +0.000 A 
ATOM     11  C   UNL     1       2.235   5.563  20.292  0.00  0.00    +0.000 A 
ATOM     12  N   UNL     1       2.147   4.551  21.248  0.00  0.00    +0.000 N 
ATOM     13  H   UNL     1       1.757   4.737  22.164  0.00  0.00    +0.000 HD
ENDBRANCH   1   9
BRANCH   1  14
ATOM     14  N   UNL     1       1.201  10.233  18.765  0.00  0.00    +0.000 NA
ATOM     15  C   UNL     1      -0.086   9.844  18.132  0.00  0.00    +0.000 C 
ATOM     16  C   UNL     1      -1.244  10.050  19.120  0.00  0.00    +0.000 C 
ATOM     17  N   UNL     1      -1.520  11.476  19.122  0.00  0.00    +0.000 N 
ATOM     18  C   UNL     1      -0.380  12.333  19.491  0.00  0.00    +0.000 C 
ATOM     19  C   UNL     1       1.045  11.680  19.129  0.00  0.00    +0.000 C 
BRANCH  17  20
ATOM     20  C   UNL     1      -2.814  11.840  18.812  0.00  0.00    +0.000 A 
ATOM     21  C   UNL     1      -3.707  12.416  19.717  0.00  0.00    +0.000 A 
ATOM     22  C   UNL     1      -5.067  12.577  19.379  0.00  0.00    +0.000 A 
ATOM     23  C   UNL     1      -5.544  12.175  18.132  0.00  0.00    +0.000 A 
ATOM     24 CL   UNL     1      -7.213  12.309  17.740  0.00  0.00    +0.000 Cl
ATOM     25  C   UNL     1      -4.670  11.655  17.196  0.00  0.00    +0.000 A 
ATOM     26  C   UNL     1      -3.326  11.522  17.533  0.00  0.00    +0.000 A 
ENDBRANCH  17  20
ENDBRANCH   1  14
TORSDOF 3
ENDMDL
MODEL 5
REMARK VINA RESULT:      -7.5      3.226      4.782
REMARK  Name = 
REMARK  3 active torsions:
REMARK  status: ('A' for Active; 'I' for Inactive)
REMARK    1  A    between atoms: C_8  and  C_9
REMARK    2  A    between atoms: C_9  and  N_10
REMARK    3  A    between atoms: N_13  and  C_14
REMARK                            x       y       z     vdW  Elec       q    Type
REMARK                         _______ _______ _______ _____ _____    ______ ____
ROOT
ATOM      1  C   UNL     1       1.947   7.677  18.687  0.00  0.00    +0.000 C 
ENDROOT
BRANCH   1   9
ATOM      2  O   UNL     1       7.629   5.309  14.893  0.00  0.00    +0.000 OA
ATOM      3  C   UNL     1       7.021   5.382  15.964  0.00  0.00    +0.000 C 
ATOM      4  C   UNL     1       7.449   4.612  17.213  0.00  0.00    +0.000 C 
ATOM      5  O   UNL     1       6.468   4.307  18.191  0.00  0.00    +0.000 OA
ATOM      6  C   UNL     1       5.454   5.221  18.270  0.00  0.00    +0.000 A 
ATOM      7  C   UNL     1       4.614   5.094  19.363  0.00  0.00    +0.000 A 
ATOM      8  C   UNL     1       3.516   5.941  19.470  0.00  0.00    +0.000 A 
ATOM      9  C   UNL     1       3.237   6.927  18.490  0.00  0.00    +0.000 A 
ATOM     10  C   UNL     1       4.094   7.059  17.405  0.00  0.00    +0.000 A 
ATOM     11  C   UNL     1       5.187   6.190  17.292  0.00  0.00    +0.000 A 
ATOM     12  N   UNL     1       5.971   6.233  16.138  0.00  0.00    +0.000 N 
ATOM     13  H   UNL     1       5.700   6.807  15.350  0.00  0.00    +0.000 HD
ENDBRANCH   1   9
BRANCH   1  14
ATOM     14  N   UNL     1       1.887   9.110  19.052  0.00  0.00    +0.000 NA
ATOM     15  C   UNL     1       1.205   9.787  17.919  0.00  0.00    +0.000 C 
ATOM     16  C   UNL     1      -0.245   9.293  17.805  0.00  0.00    +0.000 C 
ATOM     17  N   UNL     1      -0.987   9.987  18.842  0.00  0.00    +0.000 N 
ATOM     18  C   UNL     1      -0.487   9.781  20.212  0.00  0.00    +0.000 C 
ATOM     19  C   UNL     1       1.091   9.471  20.270  0.00  0.00    +0.000 C 
BRANCH  17  20
ATOM     20  C   UNL     1      -2.076  10.719  18.418  0.00  0.00    +0.000 A 
ATOM     21  C   UNL     1      -2.670  11.745  19.154  0.00  0.00    +0.000 A 
ATOM     22  C   UNL     1      -3.894  12.310  18.740  0.00  0.00    +0.000 A 
ATOM     23  C   UNL     1      -4.529  11.864  17.583  0.00  0.00    +0.000 A 
ATOM     24 CL   UNL     1      -6.054  12.504  17.109  0.00  0.00    +0.000 Cl
ATOM     25  C   UNL     1      -3.935  10.889  16.803  0.00  0.00    +0.000 A 
ATOM     26  C   UNL     1      -2.716  10.355  17.210  0.00  0.00    +0.000 A 
ENDBRANCH  17  20
ENDBRANCH   1  14
TORSDOF 3
ENDMDL
MODEL 6
REMARK VINA RESULT:      -7.5      4.172      6.620
REMARK  Name = 
REMARK  3 active torsions:
REMARK  status: ('A' for Active; 'I' for Inactive)
REMARK    1  A    between atoms: C_8  and  C_9
REMARK    2  A    between atoms: C_9  and  N_10
REMARK    3  A    between atoms: N_13  and  C_14
REMARK                            x       y       z     vdW  Elec       q    Type
REMARK                         _______ _______ _______ _____ _____    ______ ____
ROOT
ATOM      1  C   UNL     1       0.730   9.118  20.253  0.00  0.00    +0.000 C 
ENDROOT
BRANCH   1   9
ATOM      2  O   UNL     1       5.438   3.673  19.563  0.00  0.00    +0.000 OA
ATOM      3  C   UNL     1       4.752   4.558  19.045  0.00  0.00    +0.000 C 
ATOM      4  C   UNL     1       4.838   4.909  17.561  0.00  0.00    +0.000 C 
ATOM      5  O   UNL     1       4.472   6.217  17.150  0.00  0.00    +0.000 OA
ATOM      6  C   UNL     1       3.514   6.800  17.933  0.00  0.00    +0.000 A 
ATOM      7  C   UNL     1       2.957   7.965  17.433  0.00  0.00    +0.000 A 
ATOM      8  C   UNL     1       2.031   8.654  18.207  0.00  0.00    +0.000 A 
ATOM      9  C   UNL     1       1.645   8.195  19.493  0.00  0.00    +0.000 A 
ATOM     10  C   UNL     1       2.197   7.018  19.980  0.00  0.00    +0.000 A 
ATOM     11  C   UNL     1       3.144   6.338  19.204  0.00  0.00    +0.000 A 
ATOM     12  N   UNL     1       3.795   5.229  19.746  0.00  0.00    +0.000 N 
ATOM     13  H   UNL     1       3.666   4.978  20.718  0.00  0.00    +0.000 HD
ENDBRANCH   1   9
BRANCH   1  14
ATOM     14  N   UNL     1       1.154   9.880  21.448  0.00  0.00    +0.000 NA
ATOM     15  C   UNL     1       0.788  11.294  21.176  0.00  0.00    +0.000 C 
ATOM     16  C   UNL     1      -0.739  11.434  21.074  0.00  0.00    +0.000 C 
ATOM     17  N   UNL     1      -1.233  11.427  22.439  0.00  0.00    +0.000 N 
ATOM     18  C   UNL     1      -0.885  10.231  23.224  0.00  0.00    +0.000 C 
ATOM     19  C   UNL     1       0.487   9.538  22.747  0.00  0.00    +0.000 C 
BRANCH  17  20
ATOM     20  C   UNL     1      -1.988  12.520  22.813  0.00  0.00    +0.000 A 
ATOM     21  C   UNL     1      -1.606  13.847  22.606  0.00  0.00    +0.000 A 
ATOM     22  C   UNL     1      -2.337  14.902  23.190  0.00  0.00    +0.000 A 
ATOM     23  C   UNL     1      -3.460  14.643  23.974  0.00  0.00    +0.000 A 
ATOM     24 CL   UNL     1      -4.315  15.923  24.742  0.00  0.00    +0.000 Cl
ATOM     25  C   UNL     1      -3.894  13.342  24.148  0.00  0.00    +0.000 A 
ATOM     26  C   UNL     1      -3.177  12.310  23.548  0.00  0.00    +0.000 A 
ENDBRANCH  17  20
ENDBRANCH   1  14
TORSDOF 3
ENDMDL
MODEL 7
REMARK VINA RESULT:      -7.5      2.985      4.913
REMARK  Name = 
REMARK  3 active torsions:
REMARK  status: ('A' for Active; 'I' for Inactive)
REMARK    1  A    between atoms: C_8  and  C_9
REMARK    2  A    between atoms: C_9  and  N_10
REMARK    3  A    between atoms: N_13  and  C_14
REMARK                            x       y       z     vdW  Elec       q    Type
REMARK                         _______ _______ _______ _____ _____    ______ ____
ROOT
ATOM      1  C   UNL     1       2.034   8.317  18.577  0.00  0.00    +0.000 C 
ENDROOT
BRANCH   1   9
ATOM      2  O   UNL     1       7.471   5.451  14.768  0.00  0.00    +0.000 OA
ATOM      3  C   UNL     1       6.541   5.309  15.565  0.00  0.00    +0.000 C 
ATOM      4  C   UNL     1       6.080   3.940  16.064  0.00  0.00    +0.000 C 
ATOM      5  O   UNL     1       4.741   3.796  16.510  0.00  0.00    +0.000 OA
ATOM      6  C   UNL     1       4.206   4.932  17.050  0.00  0.00    +0.000 A 
ATOM      7  C   UNL     1       3.000   4.773  17.711  0.00  0.00    +0.000 A 
ATOM      8  C   UNL     1       2.359   5.896  18.221  0.00  0.00    +0.000 A 
ATOM      9  C   UNL     1       2.909   7.196  18.081  0.00  0.00    +0.000 A 
ATOM     10  C   UNL     1       4.126   7.345  17.430  0.00  0.00    +0.000 A 
ATOM     11  C   UNL     1       4.758   6.213  16.900  0.00  0.00    +0.000 A 
ATOM     12  N   UNL     1       5.912   6.376  16.134  0.00  0.00    +0.000 N 
ATOM     13  H   UNL     1       6.234   7.300  15.875  0.00  0.00    +0.000 HD
ENDBRANCH   1   9
BRANCH   1  14
ATOM     14  N   UNL     1       1.588   9.439  17.723  0.00  0.00    +0.000 NA
ATOM     15  C   UNL     1       0.153   9.649  18.049  0.00  0.00    +0.000 C 
ATOM     16  C   UNL     1       0.006  10.111  19.507  0.00  0.00    +0.000 C 
ATOM     17  N   UNL     1       0.355  11.521  19.517  0.00  0.00    +0.000 N 
ATOM     18  C   UNL     1       1.705  11.834  19.019  0.00  0.00    +0.000 C 
ATOM     19  C   UNL     1       2.245  10.768  17.942  0.00  0.00    +0.000 C 
BRANCH  17  20
ATOM     20  C   UNL     1      -0.605  12.375  20.019  0.00  0.00    +0.000 A 
ATOM     21  C   UNL     1      -0.713  13.724  19.677  0.00  0.00    +0.000 A 
ATOM     22  C   UNL     1      -1.593  14.574  20.378  0.00  0.00    +0.000 A 
ATOM     23  C   UNL     1      -2.380  14.082  21.418  0.00  0.00    +0.000 A 
ATOM     24 CL   UNL     1      -3.406  15.128  22.320  0.00  0.00    +0.000 Cl
ATOM     25  C   UNL     1      -2.336  12.738  21.741  0.00  0.00    +0.000 A 
ATOM     26  C   UNL     1      -1.479  11.905  21.026  0.00  0.00    +0.000 A 
ENDBRANCH  17  20
ENDBRANCH   1  14
TORSDOF 3
ENDMDL
MODEL 8
REMARK VINA RESULT:      -7.4      1.146      1.424
REMARK  Name = 
REMARK  3 active torsions:
REMARK  status: ('A' for Active; 'I' for Inactive)
REMARK    1  A    between atoms: C_8  and  C_9
REMARK    2  A    between atoms: C_9  and  N_10
REMARK    3  A    between atoms: N_13  and  C_14
REMARK                            x       y       z     vdW  Elec       q    Type
REMARK                         _______ _______ _______ _____ _____    ______ ____
ROOT
ATOM      1  C   UNL     1       3.870   4.554  18.799  0.00  0.00    +0.000 C 
ENDROOT
BRANCH   1   9
ATOM      2  O   UNL     1       6.585   3.332  12.210  0.00  0.00    +0.000 OA
ATOM      3  C   UNL     1       6.563   4.006  13.243  0.00  0.00    +0.000 C 
ATOM      4  C   UNL     1       7.560   5.131  13.518  0.00  0.00    +0.000 C 
ATOM      5  O   UNL     1       7.833   5.481  14.865  0.00  0.00    +0.000 OA
ATOM      6  C   UNL     1       6.785   5.276  15.719  0.00  0.00    +0.000 A 
ATOM      7  C   UNL     1       6.924   5.824  16.983  0.00  0.00    +0.000 A 
ATOM      8  C   UNL     1       5.933   5.593  17.930  0.00  0.00    +0.000 A 
ATOM      9  C   UNL     1       4.787   4.812  17.633  0.00  0.00    +0.000 A 
ATOM     10  C   UNL     1       4.647   4.279  16.358  0.00  0.00    +0.000 A 
ATOM     11  C   UNL     1       5.659   4.498  15.415  0.00  0.00    +0.000 A 
ATOM     12  N   UNL     1       5.584   3.855  14.179  0.00  0.00    +0.000 N 
ATOM     13  H   UNL     1       4.869   3.162  13.999  0.00  0.00    +0.000 HD
ENDBRANCH   1   9
BRANCH   1  14
ATOM     14  N   UNL     1       2.406   4.759  18.743  0.00  0.00    +0.000 NA
ATOM     15  C   UNL     1       2.007   5.190  20.109  0.00  0.00    +0.000 C 
ATOM     16  C   UNL     1       2.638   6.552  20.437  0.00  0.00    +0.000 C 
ATOM     17  N   UNL     1       1.835   7.543  19.743  0.00  0.00    +0.000 N 
ATOM     18  C   UNL     1       1.746   7.364  18.284  0.00  0.00    +0.000 C 
ATOM     19  C   UNL     1       1.901   5.830  17.823  0.00  0.00    +0.000 C 
BRANCH  17  20
ATOM     20  C   UNL     1       1.289   8.536  20.530  0.00  0.00    +0.000 A 
ATOM     21  C   UNL     1       1.234   8.494  21.924  0.00  0.00    +0.000 A 
ATOM     22  C   UNL     1       0.488   9.451  22.641  0.00  0.00    +0.000 A 
ATOM     23  C   UNL     1      -0.199  10.465  21.975  0.00  0.00    +0.000 A 
ATOM     24 CL   UNL     1      -1.163  11.595  22.842  0.00  0.00    +0.000 Cl
ATOM     25  C   UNL     1      -0.115  10.565  20.599  0.00  0.00    +0.000 A 
ATOM     26  C   UNL     1       0.643   9.627  19.903  0.00  0.00    +0.000 A 
ENDBRANCH  17  20
ENDBRANCH   1  14
TORSDOF 3
ENDMDL
MODEL 9
REMARK VINA RESULT:      -7.4      4.330      6.907
REMARK  Name = 
REMARK  3 active torsions:
REMARK  status: ('A' for Active; 'I' for Inactive)
REMARK    1  A    between atoms: C_8  and  C_9
REMARK    2  A    between atoms: C_9  and  N_10
REMARK    3  A    between atoms: N_13  and  C_14
REMARK                            x       y       z     vdW  Elec       q    Type
REMARK                         _______ _______ _______ _____ _____    ______ ____
ROOT
ATOM      1  C   UNL     1       1.432   9.399  19.672  0.00  0.00    +0.000 C 
ENDROOT
BRANCH   1   9
ATOM      2  O   UNL     1       2.718   2.654  21.938  0.00  0.00    +0.000 OA
ATOM      3  C   UNL     1       2.689   3.481  21.024  0.00  0.00    +0.000 C 
ATOM      4  C   UNL     1       3.207   3.179  19.619  0.00  0.00    +0.000 C 
ATOM      5  O   UNL     1       3.643   4.260  18.809  0.00  0.00    +0.000 OA
ATOM      6  C   UNL     1       2.998   5.439  19.058  0.00  0.00    +0.000 A 
ATOM      7  C   UNL     1       3.217   6.450  18.136  0.00  0.00    +0.000 A 
ATOM      8  C   UNL     1       2.654   7.700  18.363  0.00  0.00    +0.000 A 
ATOM      9  C   UNL     1       1.864   7.965  19.510  0.00  0.00    +0.000 A 
ATOM     10  C   UNL     1       1.636   6.942  20.421  0.00  0.00    +0.000 A 
ATOM     11  C   UNL     1       2.222   5.690  20.199  0.00  0.00    +0.000 A 
ATOM     12  N   UNL     1       2.104   4.702  21.177  0.00  0.00    +0.000 N 
ATOM     13  H   UNL     1       1.692   4.913  22.077  0.00  0.00    +0.000 HD
ENDBRANCH   1   9
BRANCH   1  14
ATOM     14  N   UNL     1       1.159  10.298  18.530  0.00  0.00    +0.000 NA
ATOM     15  C   UNL     1      -0.068   9.766  17.881  0.00  0.00    +0.000 C 
ATOM     16  C   UNL     1      -1.264   9.882  18.838  0.00  0.00    +0.000 C 
ATOM     17  N   UNL     1      -1.680  11.273  18.792  0.00  0.00    +0.000 N 
ATOM     18  C   UNL     1      -0.639  12.249  19.159  0.00  0.00    +0.000 C 
ATOM     19  C   UNL     1       0.852  11.731  18.847  0.00  0.00    +0.000 C 
BRANCH  17  20
ATOM     20  C   UNL     1      -2.996  11.497  18.445  0.00  0.00    +0.000 A 
ATOM     21  C   UNL     1      -3.525  11.259  17.175  0.00  0.00    +0.000 A 
ATOM     22  C   UNL     1      -4.825  11.697  16.847  0.00  0.00    +0.000 A 
ATOM     23  C   UNL     1      -5.610  12.366  17.785  0.00  0.00    +0.000 A 
ATOM     24 CL   UNL     1      -7.170  12.960  17.368  0.00  0.00    +0.000 Cl
ATOM     25  C   UNL     1      -5.133  12.565  19.067  0.00  0.00    +0.000 A 
ATOM     26  C   UNL     1      -3.856  12.108  19.386  0.00  0.00    +0.000 A 
ENDBRANCH  17  20
ENDBRANCH   1  14
TORSDOF 3
ENDMDL
