MODEL 1
REMARK VINA RESULT:      -8.1      0.000      0.000
REMARK  Name = 
REMARK  10 active torsions:
REMARK  status: ('A' for Active; 'I' for Inactive)
REMARK    1  A    between atoms: S_2  and  N_4
REMARK    2  A    between atoms: S_2  and  C_11
REMARK    3  A    between atoms: C_14  and  N_15
REMARK    4  A    between atoms: C_17  and  O_18
REMARK    5  A    between atoms: O_18  and  C_19
REMARK    6  A    between atoms: C_21  and  C_22
REMARK    7  A    between atoms: C_22  and  O_23
REMARK    8  A    between atoms: C_24  and  O_25
REMARK    9  A    between atoms: C_26  and  O_27
REMARK   10  A    between atoms: C_28  and  O_29
REMARK                            x       y       z     vdW  Elec       q    Type
REMARK                         _______ _______ _______ _____ _____    ______ ____
ROOT
ATOM      1  N   UNL     1       0.803   9.212  20.325  0.00  0.00    +0.000 N 
ATOM      2  C   UNL     1       1.467   8.085  20.763  0.00  0.00    +0.000 A 
ATOM      3  C   UNL     1       2.182   7.662  19.674  0.00  0.00    +0.000 A 
ATOM      4  N   UNL     1       1.918   8.474  18.609  0.00  0.00    +0.000 NA
ATOM      5  N   UNL     1       1.065   9.404  19.007  0.00  0.00    +0.000 NA
ENDROOT
BRANCH   1   9
ATOM      6  C   UNL     1      -1.753  11.808  22.467  0.00  0.00    +0.000 A 
ATOM      7  C   UNL     1      -1.124  10.747  23.129  0.00  0.00    +0.000 A 
ATOM      8  C   UNL     1      -0.265   9.894  22.428  0.00  0.00    +0.000 A 
ATOM      9  C   UNL     1      -0.039  10.092  21.058  0.00  0.00    +0.000 A 
ATOM     10  C   UNL     1      -0.665  11.169  20.404  0.00  0.00    +0.000 A 
ATOM     11  C   UNL     1      -1.531  12.020  21.105  0.00  0.00    +0.000 A 
BRANCH   6  13
ATOM     12  O   UNL     1      -2.235  13.869  23.971  0.00  0.00    +0.000 OA
ATOM     13  S   UNL     1      -2.964  12.785  23.343  0.00  0.00    +0.000 S 
ATOM     14  O   UNL     1      -3.784  11.890  24.133  0.00  0.00    +0.000 OA
BRANCH  13  15
ATOM     15  N   UNL     1      -3.892  13.485  22.124  0.00  0.00    +0.000 N 
ATOM     16  C   UNL     1      -5.273  13.217  22.170  0.00  0.00    +0.000 A 
ATOM     17  C   UNL     1      -6.139  13.939  22.973  0.00  0.00    +0.000 A 
ATOM     18  C   UNL     1      -7.494  13.638  22.895  0.00  0.00    +0.000 A 
ATOM     19  C   UNL     1      -7.916  12.618  22.047  0.00  0.00    +0.000 A 
ATOM     20  C   UNL     1      -6.959  11.939  21.308  0.00  0.00    +0.000 A 
ATOM     21  N   UNL     1      -5.637  12.223  21.343  0.00  0.00    +0.000 NA
ATOM     22  H   UNL     1      -3.533  13.210  21.213  0.00  0.00    +0.000 HD
ENDBRANCH  13  15
ENDBRANCH   6  13
ENDBRANCH   1   9
BRANCH   3  23
ATOM     23  O   UNL     1       3.010   6.594  19.723  0.00  0.00    +0.000 OA
BRANCH  23  24
ATOM     24  C   UNL     1       2.802   5.699  18.622  0.00  0.00    +0.000 C 
ATOM     25  O   UNL     1       2.213   4.472  19.116  0.00  0.00    +0.000 OA
ATOM     26  C   UNL     1       1.909   3.574  18.029  0.00  0.00    +0.000 C 
ATOM     27  C   UNL     1       3.238   3.097  17.421  0.00  0.00    +0.000 C 
ATOM     28  C   UNL     1       3.982   4.314  16.858  0.00  0.00    +0.000 C 
ATOM     29  C   UNL     1       4.163   5.401  17.935  0.00  0.00    +0.000 C 
BRANCH  27  30
ATOM     30  O   UNL     1       4.116   2.496  18.388  0.00  0.00    +0.000 OA
ATOM     31  H   UNL     1       3.935   1.537  18.395  0.00  0.00    +0.000 HD
ENDBRANCH  27  30
BRANCH  28  32
ATOM     32  O   UNL     1       5.257   3.899  16.354  0.00  0.00    +0.000 OA
ATOM     33  H   UNL     1       5.550   4.617  15.754  0.00  0.00    +0.000 HD
ENDBRANCH  28  32
BRANCH  29  34
ATOM     34  O   UNL     1       4.744   6.584  17.364  0.00  0.00    +0.000 OA
ATOM     35  H   UNL     1       4.498   7.351  17.910  0.00  0.00    +0.000 HD
ENDBRANCH  29  34
BRANCH  26  36
ATOM     36  C   UNL     1       1.014   2.441  18.545  0.00  0.00    +0.000 C 
BRANCH  36  37
ATOM     37  O   UNL     1       1.766   1.386  19.128  0.00  0.00    +0.000 OA
ATOM     38  H   UNL     1       2.705   1.595  18.975  0.00  0.00    +0.000 HD
ENDBRANCH  36  37
ENDBRANCH  26  36
ENDBRANCH  23  24
ENDBRANCH   3  23
TORSDOF 10
ENDMDL
MODEL 2
REMARK VINA RESULT:      -7.9      3.518      5.077
REMARK  Name = 
REMARK  10 active torsions:
REMARK  status: ('A' for Active; 'I' for Inactive)
REMARK    1  A    between atoms: S_2  and  N_4
REMARK    2  A    between atoms: S_2  and  C_11
REMARK    3  A    between atoms: C_14  and  N_15
REMARK    4  A    between atoms: C_17  and  O_18
REMARK    5  A    between atoms: O_18  and  C_19
REMARK    6  A    between atoms: C_21  and  C_22
REMARK    7  A    between atoms: C_22  and  O_23
REMARK    8  A    between atoms: C_24  and  O_25
REMARK    9  A    between atoms: C_26  and  O_27
REMARK   10  A    between atoms: C_28  and  O_29
REMARK                            x       y       z     vdW  Elec       q    Type
REMARK                         _______ _______ _______ _____ _____    ______ ____
ROOT
ATOM      1  N   UNL     1       2.761   6.071  19.094  0.00  0.00    +0.000 N 
ATOM      2  C   UNL     1       3.443   5.520  18.028  0.00  0.00    +0.000 A 
ATOM      3  C   UNL     1       3.748   4.248  18.436  0.00  0.00    +0.000 A 
ATOM      4  N   UNL     1       3.311   4.060  19.716  0.00  0.00    +0.000 NA
ATOM      5  N   UNL     1       2.727   5.177  20.115  0.00  0.00    +0.000 NA
ENDROOT
BRANCH   1   9
ATOM      6  C   UNL     1       1.013   9.902  19.448  0.00  0.00    +0.000 A 
ATOM      7  C   UNL     1       1.533   9.485  18.217  0.00  0.00    +0.000 A 
ATOM      8  C   UNL     1       2.099   8.212  18.091  0.00  0.00    +0.000 A 
ATOM      9  C   UNL     1       2.157   7.353  19.198  0.00  0.00    +0.000 A 
ATOM     10  C   UNL     1       1.619   7.775  20.428  0.00  0.00    +0.000 A 
ATOM     11  C   UNL     1       1.057   9.054  20.556  0.00  0.00    +0.000 A 
BRANCH   6  13
ATOM     12  O   UNL     1       1.625  12.419  19.617  0.00  0.00    +0.000 OA
ATOM     13  S   UNL     1       0.440  11.584  19.626  0.00  0.00    +0.000 S 
ATOM     14  O   UNL     1      -0.489  11.631  20.735  0.00  0.00    +0.000 OA
BRANCH  13  15
ATOM     15  N   UNL     1      -0.371  11.900  18.185  0.00  0.00    +0.000 N 
ATOM     16  C   UNL     1      -1.697  11.432  18.108  0.00  0.00    +0.000 A 
ATOM     17  C   UNL     1      -2.761  12.143  18.635  0.00  0.00    +0.000 A 
ATOM     18  C   UNL     1      -4.038  11.624  18.448  0.00  0.00    +0.000 A 
ATOM     19  C   UNL     1      -4.189  10.415  17.775  0.00  0.00    +0.000 A 
ATOM     20  C   UNL     1      -3.050   9.774  17.312  0.00  0.00    +0.000 A 
ATOM     21  N   UNL     1      -1.797  10.263  17.457  0.00  0.00    +0.000 NA
ATOM     22  H   UNL     1       0.157  11.527  17.400  0.00  0.00    +0.000 HD
ENDBRANCH  13  15
ENDBRANCH   6  13
ENDBRANCH   1   9
BRANCH   3  23
ATOM     23  O   UNL     1       4.384   3.366  17.634  0.00  0.00    +0.000 OA
BRANCH  23  24
ATOM     24  C   UNL     1       5.729   3.773  17.343  0.00  0.00    +0.000 C 
ATOM     25  O   UNL     1       6.106   4.838  18.247  0.00  0.00    +0.000 OA
ATOM     26  C   UNL     1       7.482   5.222  18.044  0.00  0.00    +0.000 C 
ATOM     27  C   UNL     1       7.591   5.888  16.663  0.00  0.00    +0.000 C 
ATOM     28  C   UNL     1       7.205   4.859  15.593  0.00  0.00    +0.000 C 
ATOM     29  C   UNL     1       5.811   4.264  15.871  0.00  0.00    +0.000 C 
BRANCH  27  30
ATOM     30  O   UNL     1       6.692   6.998  16.501  0.00  0.00    +0.000 OA
ATOM     31  H   UNL     1       7.033   7.550  15.772  0.00  0.00    +0.000 HD
ENDBRANCH  27  30
BRANCH  28  32
ATOM     32  O   UNL     1       7.228   5.484  14.304  0.00  0.00    +0.000 OA
ATOM     33  H   UNL     1       8.149   5.794  14.177  0.00  0.00    +0.000 HD
ENDBRANCH  28  32
BRANCH  29  34
ATOM     34  O   UNL     1       5.518   3.212  14.939  0.00  0.00    +0.000 OA
ATOM     35  H   UNL     1       4.555   3.067  14.919  0.00  0.00    +0.000 HD
ENDBRANCH  29  34
BRANCH  26  36
ATOM     36  C   UNL     1       7.934   6.112  19.207  0.00  0.00    +0.000 C 
BRANCH  36  37
ATOM     37  O   UNL     1       7.901   5.428  20.452  0.00  0.00    +0.000 OA
ATOM     38  H   UNL     1       8.817   5.414  20.786  0.00  0.00    +0.000 HD
ENDBRANCH  36  37
ENDBRANCH  26  36
ENDBRANCH  23  24
ENDBRANCH   3  23
TORSDOF 10
ENDMDL
MODEL 3
REMARK VINA RESULT:      -7.9      4.465      5.918
REMARK  Name = 
REMARK  10 active torsions:
REMARK  status: ('A' for Active; 'I' for Inactive)
REMARK    1  A    between atoms: S_2  and  N_4
REMARK    2  A    between atoms: S_2  and  C_11
REMARK    3  A    between atoms: C_14  and  N_15
REMARK    4  A    between atoms: C_17  and  O_18
REMARK    5  A    between atoms: O_18  and  C_19
REMARK    6  A    between atoms: C_21  and  C_22
REMARK    7  A    between atoms: C_22  and  O_23
REMARK    8  A    between atoms: C_24  and  O_25
REMARK    9  A    between atoms: C_26  and  O_27
REMARK   10  A    between atoms: C_28  and  O_29
REMARK                            x       y       z     vdW  Elec       q    Type
REMARK                         _______ _______ _______ _____ _____    ______ ____
ROOT
ATOM      1  N   UNL     1       2.608   6.406  19.132  0.00  0.00    +0.000 N 
ATOM      2  C   UNL     1       3.214   5.866  18.016  0.00  0.00    +0.000 A 
ATOM      3  C   UNL     1       3.547   4.590  18.389  0.00  0.00    +0.000 A 
ATOM      4  N   UNL     1       3.201   4.389  19.694  0.00  0.00    +0.000 NA
ATOM      5  N   UNL     1       2.647   5.502  20.145  0.00  0.00    +0.000 NA
ENDROOT
BRANCH   1   9
ATOM      6  C   UNL     1       0.790  10.196  19.566  0.00  0.00    +0.000 A 
ATOM      7  C   UNL     1       0.928   9.358  20.679  0.00  0.00    +0.000 A 
ATOM      8  C   UNL     1       1.543   8.108  20.543  0.00  0.00    +0.000 A 
ATOM      9  C   UNL     1       2.014   7.686  19.292  0.00  0.00    +0.000 A 
ATOM     10  C   UNL     1       1.884   8.541  18.181  0.00  0.00    +0.000 A 
ATOM     11  C   UNL     1       1.261   9.791  18.316  0.00  0.00    +0.000 A 
BRANCH   6  13
ATOM     12  O   UNL     1       0.461  12.438  20.833  0.00  0.00    +0.000 OA
ATOM     13  S   UNL     1      -0.136  11.713  19.728  0.00  0.00    +0.000 S 
ATOM     14  O   UNL     1      -1.547  11.385  19.735  0.00  0.00    +0.000 OA
BRANCH  13  15
ATOM     15  N   UNL     1       0.243  12.581  18.335  0.00  0.00    +0.000 N 
ATOM     16  C   UNL     1       1.270  13.535  18.464  0.00  0.00    +0.000 A 
ATOM     17  C   UNL     1       2.609  13.193  18.379  0.00  0.00    +0.000 A 
ATOM     18  C   UNL     1       3.543  14.222  18.454  0.00  0.00    +0.000 A 
ATOM     19  C   UNL     1       3.101  15.529  18.638  0.00  0.00    +0.000 A 
ATOM     20  C   UNL     1       1.736  15.754  18.738  0.00  0.00    +0.000 A 
ATOM     21  N   UNL     1       0.803  14.780  18.646  0.00  0.00    +0.000 NA
ATOM     22  H   UNL     1      -0.590  13.039  17.974  0.00  0.00    +0.000 HD
ENDBRANCH  13  15
ENDBRANCH   6  13
ENDBRANCH   1   9
BRANCH   3  23
ATOM     23  O   UNL     1       4.125   3.716  17.535  0.00  0.00    +0.000 OA
BRANCH  23  24
ATOM     24  C   UNL     1       5.524   3.979  17.358  0.00  0.00    +0.000 C 
ATOM     25  O   UNL     1       5.943   4.975  18.322  0.00  0.00    +0.000 OA
ATOM     26  C   UNL     1       7.364   5.209  18.235  0.00  0.00    +0.000 C 
ATOM     27  C   UNL     1       7.651   5.892  16.888  0.00  0.00    +0.000 C 
ATOM     28  C   UNL     1       7.241   4.938  15.759  0.00  0.00    +0.000 C 
ATOM     29  C   UNL     1       5.773   4.494  15.913  0.00  0.00    +0.000 C 
BRANCH  27  30
ATOM     30  O   UNL     1       6.893   7.098  16.695  0.00  0.00    +0.000 OA
ATOM     31  H   UNL     1       7.384   7.827  17.120  0.00  0.00    +0.000 HD
ENDBRANCH  27  30
BRANCH  28  32
ATOM     32  O   UNL     1       7.431   5.587  14.496  0.00  0.00    +0.000 OA
ATOM     33  H   UNL     1       8.339   5.350  14.212  0.00  0.00    +0.000 HD
ENDBRANCH  28  32
BRANCH  29  34
ATOM     34  O   UNL     1       5.441   3.503  14.928  0.00  0.00    +0.000 OA
ATOM     35  H   UNL     1       5.642   3.858  14.044  0.00  0.00    +0.000 HD
ENDBRANCH  29  34
BRANCH  26  36
ATOM     36  C   UNL     1       7.818   6.016  19.456  0.00  0.00    +0.000 C 
BRANCH  36  37
ATOM     37  O   UNL     1       8.103   5.186  20.573  0.00  0.00    +0.000 OA
ATOM     38  H   UNL     1       9.058   5.272  20.748  0.00  0.00    +0.000 HD
ENDBRANCH  36  37
ENDBRANCH  26  36
ENDBRANCH  23  24
ENDBRANCH   3  23
TORSDOF 10
ENDMDL
MODEL 4
REMARK VINA RESULT:      -7.9      4.104     10.731
REMARK  Name = 
REMARK  10 active torsions:
REMARK  status: ('A' for Active; 'I' for Inactive)
REMARK    1  A    between atoms: S_2  and  N_4
REMARK    2  A    between atoms: S_2  and  C_11
REMARK    3  A    between atoms: C_14  and  N_15
REMARK    4  A    between atoms: C_17  and  O_18
REMARK    5  A    between atoms: O_18  and  C_19
REMARK    6  A    between atoms: C_21  and  C_22
REMARK    7  A    between atoms: C_22  and  O_23
REMARK    8  A    between atoms: C_24  and  O_25
REMARK    9  A    between atoms: C_26  and  O_27
REMARK   10  A    between atoms: C_28  and  O_29
REMARK                            x       y       z     vdW  Elec       q    Type
REMARK                         _______ _______ _______ _____ _____    ______ ____
ROOT
ATOM      1  N   UNL     1       0.456  10.323  19.952  0.00  0.00    +0.000 N 
ATOM      2  C   UNL     1      -0.793  10.683  19.487  0.00  0.00    +0.000 A 
ATOM      3  C   UNL     1      -0.951  11.981  19.897  0.00  0.00    +0.000 A 
ATOM      4  N   UNL     1       0.138  12.367  20.624  0.00  0.00    +0.000 NA
ATOM      5  N   UNL     1       0.982  11.349  20.668  0.00  0.00    +0.000 NA
ENDROOT
BRANCH   1   9
ATOM      6  C   UNL     1       2.488   6.658  19.402  0.00  0.00    +0.000 A 
ATOM      7  C   UNL     1       2.408   7.576  18.347  0.00  0.00    +0.000 A 
ATOM      8  C   UNL     1       1.749   8.796  18.528  0.00  0.00    +0.000 A 
ATOM      9  C   UNL     1       1.158   9.102  19.763  0.00  0.00    +0.000 A 
ATOM     10  C   UNL     1       1.256   8.180  20.822  0.00  0.00    +0.000 A 
ATOM     11  C   UNL     1       1.911   6.954  20.638  0.00  0.00    +0.000 A 
BRANCH   6  13
ATOM     12  O   UNL     1       2.582   4.556  17.881  0.00  0.00    +0.000 OA
ATOM     13  S   UNL     1       3.193   5.046  19.101  0.00  0.00    +0.000 S 
ATOM     14  O   UNL     1       3.113   4.280  20.328  0.00  0.00    +0.000 OA
BRANCH  13  15
ATOM     15  N   UNL     1       4.805   5.362  18.728  0.00  0.00    +0.000 N 
ATOM     16  C   UNL     1       5.155   5.253  17.369  0.00  0.00    +0.000 A 
ATOM     17  C   UNL     1       4.949   6.285  16.469  0.00  0.00    +0.000 A 
ATOM     18  C   UNL     1       5.392   6.099  15.163  0.00  0.00    +0.000 A 
ATOM     19  C   UNL     1       5.988   4.892  14.812  0.00  0.00    +0.000 A 
ATOM     20  C   UNL     1       6.119   3.915  15.788  0.00  0.00    +0.000 A 
ATOM     21  N   UNL     1       5.721   4.072  17.071  0.00  0.00    +0.000 NA
ATOM     22  H   UNL     1       5.413   4.757  19.275  0.00  0.00    +0.000 HD
ENDBRANCH  13  15
ENDBRANCH   6  13
ENDBRANCH   1   9
BRANCH   3  23
ATOM     23  O   UNL     1      -2.047  12.708  19.586  0.00  0.00    +0.000 OA
BRANCH  23  24
ATOM     24  C   UNL     1      -3.120  11.888  19.104  0.00  0.00    +0.000 C 
ATOM     25  O   UNL     1      -3.080  11.861  17.657  0.00  0.00    +0.000 OA
ATOM     26  C   UNL     1      -4.093  10.978  17.132  0.00  0.00    +0.000 C 
ATOM     27  C   UNL     1      -5.467  11.602  17.427  0.00  0.00    +0.000 C 
ATOM     28  C   UNL     1      -5.643  11.699  18.947  0.00  0.00    +0.000 C 
ATOM     29  C   UNL     1      -4.474  12.471  19.593  0.00  0.00    +0.000 C 
BRANCH  27  30
ATOM     30  O   UNL     1      -5.599  12.939  16.916  0.00  0.00    +0.000 OA
ATOM     31  H   UNL     1      -5.386  13.555  17.642  0.00  0.00    +0.000 HD
ENDBRANCH  27  30
BRANCH  28  32
ATOM     32  O   UNL     1      -6.886  12.348  19.240  0.00  0.00    +0.000 OA
ATOM     33  H   UNL     1      -6.811  13.248  18.859  0.00  0.00    +0.000 HD
ENDBRANCH  28  32
BRANCH  29  34
ATOM     34  O   UNL     1      -4.584  12.444  21.024  0.00  0.00    +0.000 OA
ATOM     35  H   UNL     1      -4.769  13.344  21.344  0.00  0.00    +0.000 HD
ENDBRANCH  29  34
BRANCH  26  36
ATOM     36  C   UNL     1      -3.824  10.731  15.643  0.00  0.00    +0.000 C 
BRANCH  36  37
ATOM     37  O   UNL     1      -2.454  10.904  15.309  0.00  0.00    +0.000 OA
ATOM     38  H   UNL     1      -2.147  10.053  14.945  0.00  0.00    +0.000 HD
ENDBRANCH  36  37
ENDBRANCH  26  36
ENDBRANCH  23  24
ENDBRANCH   3  23
TORSDOF 10
ENDMDL
MODEL 5
REMARK VINA RESULT:      -7.9      4.288      5.833
REMARK  Name = 
REMARK  10 active torsions:
REMARK  status: ('A' for Active; 'I' for Inactive)
REMARK    1  A    between atoms: S_2  and  N_4
REMARK    2  A    between atoms: S_2  and  C_11
REMARK    3  A    between atoms: C_14  and  N_15
REMARK    4  A    between atoms: C_17  and  O_18
REMARK    5  A    between atoms: O_18  and  C_19
REMARK    6  A    between atoms: C_21  and  C_22
REMARK    7  A    between atoms: C_22  and  O_23
REMARK    8  A    between atoms: C_24  and  O_25
REMARK    9  A    between atoms: C_26  and  O_27
REMARK   10  A    between atoms: C_28  and  O_29
REMARK                            x       y       z     vdW  Elec       q    Type
REMARK                         _______ _______ _______ _____ _____    ______ ____
ROOT
ATOM      1  N   UNL     1       2.373   6.505  19.150  0.00  0.00    +0.000 N 
ATOM      2  C   UNL     1       2.976   6.083  17.982  0.00  0.00    +0.000 A 
ATOM      3  C   UNL     1       3.226   4.752  18.187  0.00  0.00    +0.000 A 
ATOM      4  N   UNL     1       2.836   4.401  19.447  0.00  0.00    +0.000 NA
ATOM      5  N   UNL     1       2.334   5.475  20.033  0.00  0.00    +0.000 NA
ENDROOT
BRANCH   1   9
ATOM      6  C   UNL     1       0.865  10.327  20.138  0.00  0.00    +0.000 A 
ATOM      7  C   UNL     1       1.245  10.048  18.819  0.00  0.00    +0.000 A 
ATOM      8  C   UNL     1       1.731   8.779  18.485  0.00  0.00    +0.000 A 
ATOM      9  C   UNL     1       1.849   7.787  19.468  0.00  0.00    +0.000 A 
ATOM     10  C   UNL     1       1.451   8.072  20.788  0.00  0.00    +0.000 A 
ATOM     11  C   UNL     1       0.970   9.346  21.125  0.00  0.00    +0.000 A 
BRANCH   6  13
ATOM     12  O   UNL     1       1.558  12.587  21.212  0.00  0.00    +0.000 OA
ATOM     13  S   UNL     1       0.398  11.994  20.574  0.00  0.00    +0.000 S 
ATOM     14  O   UNL     1      -0.877  11.944  21.259  0.00  0.00    +0.000 OA
BRANCH  13  15
ATOM     15  N   UNL     1       0.223  12.777  19.093  0.00  0.00    +0.000 N 
ATOM     16  C   UNL     1       1.171  13.777  18.809  0.00  0.00    +0.000 A 
ATOM     17  C   UNL     1       2.418  13.484  18.283  0.00  0.00    +0.000 A 
ATOM     18  C   UNL     1       3.255  14.552  17.977  0.00  0.00    +0.000 A 
ATOM     19  C   UNL     1       2.824  15.850  18.234  0.00  0.00    +0.000 A 
ATOM     20  C   UNL     1       1.565  16.027  18.788  0.00  0.00    +0.000 A 
ATOM     21  N   UNL     1       0.718  15.012  19.076  0.00  0.00    +0.000 NA
ATOM     22  H   UNL     1      -0.710  13.175  19.019  0.00  0.00    +0.000 HD
ENDBRANCH  13  15
ENDBRANCH   6  13
ENDBRANCH   1   9
BRANCH   3  23
ATOM     23  O   UNL     1       3.775   3.965  17.235  0.00  0.00    +0.000 OA
BRANCH  23  24
ATOM     24  C   UNL     1       5.204   4.084  17.194  0.00  0.00    +0.000 C 
ATOM     25  O   UNL     1       5.633   4.981  18.246  0.00  0.00    +0.000 OA
ATOM     26  C   UNL     1       7.073   5.064  18.295  0.00  0.00    +0.000 C 
ATOM     27  C   UNL     1       7.551   5.777  17.020  0.00  0.00    +0.000 C 
ATOM     28  C   UNL     1       7.150   4.928  15.806  0.00  0.00    +0.000 C 
ATOM     29  C   UNL     1       5.636   4.638  15.808  0.00  0.00    +0.000 C 
BRANCH  27  30
ATOM     30  O   UNL     1       6.942   7.065  16.833  0.00  0.00    +0.000 OA
ATOM     31  H   UNL     1       7.136   7.354  15.921  0.00  0.00    +0.000 HD
ENDBRANCH  27  30
BRANCH  28  32
ATOM     32  O   UNL     1       7.521   5.614  14.605  0.00  0.00    +0.000 OA
ATOM     33  H   UNL     1       8.492   5.737  14.660  0.00  0.00    +0.000 HD
ENDBRANCH  28  32
BRANCH  29  34
ATOM     34  O   UNL     1       5.295   3.738  14.742  0.00  0.00    +0.000 OA
ATOM     35  H   UNL     1       5.177   4.251  13.923  0.00  0.00    +0.000 HD
ENDBRANCH  29  34
BRANCH  26  36
ATOM     36  C   UNL     1       7.495   5.757  19.595  0.00  0.00    +0.000 C 
BRANCH  36  37
ATOM     37  O   UNL     1       8.668   5.183  20.154  0.00  0.00    +0.000 OA
ATOM     38  H   UNL     1       8.606   4.222  20.004  0.00  0.00    +0.000 HD
ENDBRANCH  36  37
ENDBRANCH  26  36
ENDBRANCH  23  24
ENDBRANCH   3  23
TORSDOF 10
ENDMDL
MODEL 6
REMARK VINA RESULT:      -7.9      2.993      4.479
REMARK  Name = 
REMARK  10 active torsions:
REMARK  status: ('A' for Active; 'I' for Inactive)
REMARK    1  A    between atoms: S_2  and  N_4
REMARK    2  A    between atoms: S_2  and  C_11
REMARK    3  A    between atoms: C_14  and  N_15
REMARK    4  A    between atoms: C_17  and  O_18
REMARK    5  A    between atoms: O_18  and  C_19
REMARK    6  A    between atoms: C_21  and  C_22
REMARK    7  A    between atoms: C_22  and  O_23
REMARK    8  A    between atoms: C_24  and  O_25
REMARK    9  A    between atoms: C_26  and  O_27
REMARK   10  A    between atoms: C_28  and  O_29
REMARK                            x       y       z     vdW  Elec       q    Type
REMARK                         _______ _______ _______ _____ _____    ______ ____
ROOT
ATOM      1  N   UNL     1       2.395   6.395  19.196  0.00  0.00    +0.000 N 
ATOM      2  C   UNL     1       2.945   6.080  17.969  0.00  0.00    +0.000 A 
ATOM      3  C   UNL     1       3.221   4.741  18.050  0.00  0.00    +0.000 A 
ATOM      4  N   UNL     1       2.897   4.281  19.294  0.00  0.00    +0.000 NA
ATOM      5  N   UNL     1       2.412   5.295  19.990  0.00  0.00    +0.000 NA
ENDROOT
BRANCH   1   9
ATOM      6  C   UNL     1       0.784  10.082  20.490  0.00  0.00    +0.000 A 
ATOM      7  C   UNL     1       0.916   9.022  21.396  0.00  0.00    +0.000 A 
ATOM      8  C   UNL     1       1.462   7.805  20.976  0.00  0.00    +0.000 A 
ATOM      9  C   UNL     1       1.871   7.637  19.645  0.00  0.00    +0.000 A 
ATOM     10  C   UNL     1       1.748   8.712  18.745  0.00  0.00    +0.000 A 
ATOM     11  C   UNL     1       1.194   9.930  19.164  0.00  0.00    +0.000 A 
BRANCH   6  13
ATOM     12  O   UNL     1       0.966  12.465  21.504  0.00  0.00    +0.000 OA
ATOM     13  S   UNL     1      -0.059  11.568  21.006  0.00  0.00    +0.000 S 
ATOM     14  O   UNL     1      -1.179  11.188  21.841  0.00  0.00    +0.000 OA
BRANCH  13  15
ATOM     15  N   UNL     1      -0.620  12.246  19.570  0.00  0.00    +0.000 N 
ATOM     16  C   UNL     1      -1.946  11.931  19.217  0.00  0.00    +0.000 A 
ATOM     17  C   UNL     1      -3.030  12.618  19.735  0.00  0.00    +0.000 A 
ATOM     18  C   UNL     1      -4.295  12.271  19.271  0.00  0.00    +0.000 A 
ATOM     19  C   UNL     1      -4.420  11.244  18.340  0.00  0.00    +0.000 A 
ATOM     20  C   UNL     1      -3.267  10.604  17.909  0.00  0.00    +0.000 A 
ATOM     21  N   UNL     1      -2.022  10.932  18.323  0.00  0.00    +0.000 NA
ATOM     22  H   UNL     1      -0.005  11.991  18.801  0.00  0.00    +0.000 HD
ENDBRANCH  13  15
ENDBRANCH   6  13
ENDBRANCH   1   9
BRANCH   3  23
ATOM     23  O   UNL     1       3.732   4.045  17.010  0.00  0.00    +0.000 OA
BRANCH  23  24
ATOM     24  C   UNL     1       5.165   4.106  16.972  0.00  0.00    +0.000 C 
ATOM     25  O   UNL     1       5.630   4.959  18.045  0.00  0.00    +0.000 OA
ATOM     26  C   UNL     1       7.071   4.982  18.096  0.00  0.00    +0.000 C 
ATOM     27  C   UNL     1       7.579   5.705  16.838  0.00  0.00    +0.000 C 
ATOM     28  C   UNL     1       7.145   4.903  15.605  0.00  0.00    +0.000 C 
ATOM     29  C   UNL     1       5.620   4.675  15.600  0.00  0.00    +0.000 C 
BRANCH  27  30
ATOM     30  O   UNL     1       7.024   7.021  16.682  0.00  0.00    +0.000 OA
ATOM     31  H   UNL     1       6.097   6.988  16.984  0.00  0.00    +0.000 HD
ENDBRANCH  27  30
BRANCH  28  32
ATOM     32  O   UNL     1       7.544   5.601  14.420  0.00  0.00    +0.000 OA
ATOM     33  H   UNL     1       6.745   6.078  14.112  0.00  0.00    +0.000 HD
ENDBRANCH  28  32
BRANCH  29  34
ATOM     34  O   UNL     1       5.243   3.816  14.512  0.00  0.00    +0.000 OA
ATOM     35  H   UNL     1       4.314   3.551  14.627  0.00  0.00    +0.000 HD
ENDBRANCH  29  34
BRANCH  26  36
ATOM     36  C   UNL     1       7.520   5.626  19.412  0.00  0.00    +0.000 C 
BRANCH  36  37
ATOM     37  O   UNL     1       8.420   6.705  19.204  0.00  0.00    +0.000 OA
ATOM     38  H   UNL     1       9.313   6.363  19.389  0.00  0.00    +0.000 HD
ENDBRANCH  36  37
ENDBRANCH  26  36
ENDBRANCH  23  24
ENDBRANCH   3  23
TORSDOF 10
ENDMDL
MODEL 7
REMARK VINA RESULT:      -7.9      0.993      1.371
REMARK  Name = 
REMARK  10 active torsions:
REMARK  status: ('A' for Active; 'I' for Inactive)
REMARK    1  A    between atoms: S_2  and  N_4
REMARK    2  A    between atoms: S_2  and  C_11
REMARK    3  A    between atoms: C_14  and  N_15
REMARK    4  A    between atoms: C_17  and  O_18
REMARK    5  A    between atoms: O_18  and  C_19
REMARK    6  A    between atoms: C_21  and  C_22
REMARK    7  A    between atoms: C_22  and  O_23
REMARK    8  A    between atoms: C_24  and  O_25
REMARK    9  A    between atoms: C_26  and  O_27
REMARK   10  A    between atoms: C_28  and  O_29
REMARK                            x       y       z     vdW  Elec       q    Type
REMARK                         _______ _______ _______ _____ _____    ______ ____
ROOT
ATOM      1  N   UNL     1       0.751   9.360  19.868  0.00  0.00    +0.000 N 
ATOM      2  C   UNL     1       1.420   8.282  20.411  0.00  0.00    +0.000 A 
ATOM      3  C   UNL     1       2.186   7.800  19.383  0.00  0.00    +0.000 A 
ATOM      4  N   UNL     1       1.948   8.528  18.253  0.00  0.00    +0.000 NA
ATOM      5  N   UNL     1       1.062   9.464  18.551  0.00  0.00    +0.000 NA
ENDROOT
BRANCH   1   9
ATOM      6  C   UNL     1      -1.837  12.096  21.786  0.00  0.00    +0.000 A 
ATOM      7  C   UNL     1      -1.756  12.076  20.388  0.00  0.00    +0.000 A 
ATOM      8  C   UNL     1      -0.911  11.163  19.748  0.00  0.00    +0.000 A 
ATOM      9  C   UNL     1      -0.137  10.270  20.503  0.00  0.00    +0.000 A 
ATOM     10  C   UNL     1      -0.235  10.287  21.907  0.00  0.00    +0.000 A 
ATOM     11  C   UNL     1      -1.077  11.207  22.549  0.00  0.00    +0.000 A 
BRANCH   6  13
ATOM     12  O   UNL     1      -2.227  14.635  22.160  0.00  0.00    +0.000 OA
ATOM     13  S   UNL     1      -2.797  13.371  22.584  0.00  0.00    +0.000 S 
ATOM     14  O   UNL     1      -2.905  13.044  23.991  0.00  0.00    +0.000 OA
BRANCH  13  15
ATOM     15  N   UNL     1      -4.312  13.268  21.854  0.00  0.00    +0.000 N 
ATOM     16  C   UNL     1      -5.417  13.501  22.694  0.00  0.00    +0.000 A 
ATOM     17  C   UNL     1      -5.864  14.777  22.989  0.00  0.00    +0.000 A 
ATOM     18  C   UNL     1      -7.005  14.895  23.776  0.00  0.00    +0.000 A 
ATOM     19  C   UNL     1      -7.625  13.743  24.251  0.00  0.00    +0.000 A 
ATOM     20  C   UNL     1      -7.076  12.515  23.916  0.00  0.00    +0.000 A 
ATOM     21  N   UNL     1      -5.982  12.366  23.135  0.00  0.00    +0.000 NA
ATOM     22  H   UNL     1      -4.421  12.361  21.408  0.00  0.00    +0.000 HD
ENDBRANCH  13  15
ENDBRANCH   6  13
ENDBRANCH   1   9
BRANCH   3  23
ATOM     23  O   UNL     1       3.033   6.758  19.540  0.00  0.00    +0.000 OA
BRANCH  23  24
ATOM     24  C   UNL     1       2.795   5.720  18.579  0.00  0.00    +0.000 C 
ATOM     25  O   UNL     1       2.084   4.635  19.222  0.00  0.00    +0.000 OA
ATOM     26  C   UNL     1       1.751   3.604  18.270  0.00  0.00    +0.000 C 
ATOM     27  C   UNL     1       3.058   2.936  17.816  0.00  0.00    +0.000 C 
ATOM     28  C   UNL     1       3.926   3.988  17.114  0.00  0.00    +0.000 C 
ATOM     29  C   UNL     1       4.154   5.213  18.021  0.00  0.00    +0.000 C 
BRANCH  27  30
ATOM     30  O   UNL     1       3.840   2.428  18.909  0.00  0.00    +0.000 OA
ATOM     31  H   UNL     1       4.676   2.083  18.540  0.00  0.00    +0.000 HD
ENDBRANCH  27  30
BRANCH  28  32
ATOM     32  O   UNL     1       5.181   3.401  16.750  0.00  0.00    +0.000 OA
ATOM     33  H   UNL     1       5.018   2.436  16.702  0.00  0.00    +0.000 HD
ENDBRANCH  28  32
BRANCH  29  34
ATOM     34  O   UNL     1       4.857   6.243  17.308  0.00  0.00    +0.000 OA
ATOM     35  H   UNL     1       5.682   6.447  17.782  0.00  0.00    +0.000 HD
ENDBRANCH  29  34
BRANCH  26  36
ATOM     36  C   UNL     1       0.741   2.639  18.904  0.00  0.00    +0.000 C 
BRANCH  36  37
ATOM     37  O   UNL     1       0.399   3.016  20.230  0.00  0.00    +0.000 OA
ATOM     38  H   UNL     1       1.235   3.076  20.727  0.00  0.00    +0.000 HD
ENDBRANCH  36  37
ENDBRANCH  26  36
ENDBRANCH  23  24
ENDBRANCH   3  23
TORSDOF 10
ENDMDL
MODEL 8
REMARK VINA RESULT:      -7.8      2.963      4.647
REMARK  Name = 
REMARK  10 active torsions:
REMARK  status: ('A' for Active; 'I' for Inactive)
REMARK    1  A    between atoms: S_2  and  N_4
REMARK    2  A    between atoms: S_2  and  C_11
REMARK    3  A    between atoms: C_14  and  N_15
REMARK    4  A    between atoms: C_17  and  O_18
REMARK    5  A    between atoms: O_18  and  C_19
REMARK    6  A    between atoms: C_21  and  C_22
REMARK    7  A    between atoms: C_22  and  O_23
REMARK    8  A    between atoms: C_24  and  O_25
REMARK    9  A    between atoms: C_26  and  O_27
REMARK   10  A    between atoms: C_28  and  O_29
REMARK                            x       y       z     vdW  Elec       q    Type
REMARK                         _______ _______ _______ _____ _____    ______ ____
ROOT
ATOM      1  N   UNL     1       2.447   6.601  19.020  0.00  0.00    +0.000 N 
ATOM      2  C   UNL     1       3.010   6.111  17.859  0.00  0.00    +0.000 A 
ATOM      3  C   UNL     1       3.266   4.793  18.130  0.00  0.00    +0.000 A 
ATOM      4  N   UNL     1       2.917   4.514  19.420  0.00  0.00    +0.000 NA
ATOM      5  N   UNL     1       2.436   5.622  19.961  0.00  0.00    +0.000 NA
ENDROOT
BRANCH   1   9
ATOM      6  C   UNL     1       0.873  10.452  19.760  0.00  0.00    +0.000 A 
ATOM      7  C   UNL     1       0.928   9.511  20.796  0.00  0.00    +0.000 A 
ATOM      8  C   UNL     1       1.462   8.240  20.559  0.00  0.00    +0.000 A 
ATOM      9  C   UNL     1       1.935   7.899  19.284  0.00  0.00    +0.000 A 
ATOM     10  C   UNL     1       1.889   8.856  18.252  0.00  0.00    +0.000 A 
ATOM     11  C   UNL     1       1.348  10.128  18.488  0.00  0.00    +0.000 A 
BRANCH   6  13
ATOM     12  O   UNL     1      -1.366  11.765  19.817  0.00  0.00    +0.000 OA
ATOM     13  S   UNL     1       0.046  12.009  20.041  0.00  0.00    +0.000 S 
ATOM     14  O   UNL     1       0.746  13.036  19.298  0.00  0.00    +0.000 OA
BRANCH  13  15
ATOM     15  N   UNL     1       0.221  12.279  21.694  0.00  0.00    +0.000 N 
ATOM     16  C   UNL     1      -0.954  12.617  22.391  0.00  0.00    +0.000 A 
ATOM     17  C   UNL     1      -1.847  11.660  22.842  0.00  0.00    +0.000 A 
ATOM     18  C   UNL     1      -2.944  12.096  23.577  0.00  0.00    +0.000 A 
ATOM     19  C   UNL     1      -3.112  13.459  23.803  0.00  0.00    +0.000 A 
ATOM     20  C   UNL     1      -2.170  14.334  23.281  0.00  0.00    +0.000 A 
ATOM     21  N   UNL     1      -1.081  13.940  22.582  0.00  0.00    +0.000 NA
ATOM     22  H   UNL     1       0.920  12.999  21.857  0.00  0.00    +0.000 HD
ENDBRANCH  13  15
ENDBRANCH   6  13
ENDBRANCH   1   9
BRANCH   3  23
ATOM     23  O   UNL     1       3.781   3.952  17.206  0.00  0.00    +0.000 OA
BRANCH  23  24
ATOM     24  C   UNL     1       5.209   4.061  17.115  0.00  0.00    +0.000 C 
ATOM     25  O   UNL     1       5.683   4.944  18.159  0.00  0.00    +0.000 OA
ATOM     26  C   UNL     1       7.124   5.016  18.157  0.00  0.00    +0.000 C 
ATOM     27  C   UNL     1       7.562   5.736  16.872  0.00  0.00    +0.000 C 
ATOM     28  C   UNL     1       7.111   4.902  15.666  0.00  0.00    +0.000 C 
ATOM     29  C   UNL     1       5.595   4.624  15.719  0.00  0.00    +0.000 C 
BRANCH  27  30
ATOM     30  O   UNL     1       6.957   7.031  16.718  0.00  0.00    +0.000 OA
ATOM     31  H   UNL     1       6.602   7.086  15.811  0.00  0.00    +0.000 HD
ENDBRANCH  27  30
BRANCH  28  32
ATOM     32  O   UNL     1       7.444   5.595  14.458  0.00  0.00    +0.000 OA
ATOM     33  H   UNL     1       6.633   5.574  13.908  0.00  0.00    +0.000 HD
ENDBRANCH  28  32
BRANCH  29  34
ATOM     34  O   UNL     1       5.209   3.736  14.659  0.00  0.00    +0.000 OA
ATOM     35  H   UNL     1       5.078   4.255  13.846  0.00  0.00    +0.000 HD
ENDBRANCH  29  34
BRANCH  26  36
ATOM     36  C   UNL     1       7.597   5.694  19.448  0.00  0.00    +0.000 C 
BRANCH  36  37
ATOM     37  O   UNL     1       8.445   6.805  19.191  0.00  0.00    +0.000 OA
ATOM     38  H   UNL     1       7.887   7.602  19.257  0.00  0.00    +0.000 HD
ENDBRANCH  36  37
ENDBRANCH  26  36
ENDBRANCH  23  24
ENDBRANCH   3  23
TORSDOF 10
ENDMDL
MODEL 9
REMARK VINA RESULT:      -7.8      3.630     10.856
REMARK  Name = 
REMARK  10 active torsions:
REMARK  status: ('A' for Active; 'I' for Inactive)
REMARK    1  A    between atoms: S_2  and  N_4
REMARK    2  A    between atoms: S_2  and  C_11
REMARK    3  A    between atoms: C_14  and  N_15
REMARK    4  A    between atoms: C_17  and  O_18
REMARK    5  A    between atoms: O_18  and  C_19
REMARK    6  A    between atoms: C_21  and  C_22
REMARK    7  A    between atoms: C_22  and  O_23
REMARK    8  A    between atoms: C_24  and  O_25
REMARK    9  A    between atoms: C_26  and  O_27
REMARK   10  A    between atoms: C_28  and  O_29
REMARK                            x       y       z     vdW  Elec       q    Type
REMARK                         _______ _______ _______ _____ _____    ______ ____
ROOT
ATOM      1  N   UNL     1       0.259   9.944  19.674  0.00  0.00    +0.000 N 
ATOM      2  C   UNL     1      -0.454  10.836  18.899  0.00  0.00    +0.000 A 
ATOM      3  C   UNL     1      -1.180  11.570  19.800  0.00  0.00    +0.000 A 
ATOM      4  N   UNL     1      -0.950  11.104  21.062  0.00  0.00    +0.000 NA
ATOM      5  N   UNL     1      -0.087  10.104  20.977  0.00  0.00    +0.000 NA
ENDROOT
BRANCH   1   9
ATOM      6  C   UNL     1       3.163   7.126  18.457  0.00  0.00    +0.000 A 
ATOM      7  C   UNL     1       2.596   7.035  19.734  0.00  0.00    +0.000 A 
ATOM      8  C   UNL     1       1.624   7.957  20.136  0.00  0.00    +0.000 A 
ATOM      9  C   UNL     1       1.220   8.980  19.266  0.00  0.00    +0.000 A 
ATOM     10  C   UNL     1       1.785   9.056  17.980  0.00  0.00    +0.000 A 
ATOM     11  C   UNL     1       2.765   8.136  17.579  0.00  0.00    +0.000 A 
BRANCH   6  13
ATOM     12  O   UNL     1       4.903   5.369  19.248  0.00  0.00    +0.000 OA
ATOM     13  S   UNL     1       4.512   6.039  18.024  0.00  0.00    +0.000 S 
ATOM     14  O   UNL     1       5.478   6.799  17.256  0.00  0.00    +0.000 OA
BRANCH  13  15
ATOM     15  N   UNL     1       3.801   4.865  17.048  0.00  0.00    +0.000 N 
ATOM     16  C   UNL     1       3.057   3.876  17.719  0.00  0.00    +0.000 A 
ATOM     17  C   UNL     1       1.741   4.074  18.100  0.00  0.00    +0.000 A 
ATOM     18  C   UNL     1       1.075   3.009  18.698  0.00  0.00    +0.000 A 
ATOM     19  C   UNL     1       1.757   1.815  18.911  0.00  0.00    +0.000 A 
ATOM     20  C   UNL     1       3.083   1.735  18.514  0.00  0.00    +0.000 A 
ATOM     21  N   UNL     1       3.752   2.743  17.909  0.00  0.00    +0.000 NA
ATOM     22  H   UNL     1       4.510   4.413  16.476  0.00  0.00    +0.000 HD
ENDBRANCH  13  15
ENDBRANCH   6  13
ENDBRANCH   1   9
BRANCH   3  23
ATOM     23  O   UNL     1      -1.979  12.593  19.422  0.00  0.00    +0.000 OA
BRANCH  23  24
ATOM     24  C   UNL     1      -3.321  12.434  19.902  0.00  0.00    +0.000 C 
ATOM     25  O   UNL     1      -4.186  12.110  18.786  0.00  0.00    +0.000 OA
ATOM     26  C   UNL     1      -5.533  11.859  19.237  0.00  0.00    +0.000 C 
ATOM     27  C   UNL     1      -6.117  13.185  19.750  0.00  0.00    +0.000 C 
ATOM     28  C   UNL     1      -5.281  13.657  20.946  0.00  0.00    +0.000 C 
ATOM     29  C   UNL     1      -3.788  13.755  20.575  0.00  0.00    +0.000 C 
BRANCH  27  30
ATOM     30  O   UNL     1      -6.062  14.239  18.774  0.00  0.00    +0.000 OA
ATOM     31  H   UNL     1      -6.357  15.061  19.210  0.00  0.00    +0.000 HD
ENDBRANCH  27  30
BRANCH  28  32
ATOM     32  O   UNL     1      -5.764  14.930  21.390  0.00  0.00    +0.000 OA
ATOM     33  H   UNL     1      -5.710  15.520  20.609  0.00  0.00    +0.000 HD
ENDBRANCH  28  32
BRANCH  29  34
ATOM     34  O   UNL     1      -3.001  14.072  21.734  0.00  0.00    +0.000 OA
ATOM     35  H   UNL     1      -3.499  13.819  22.531  0.00  0.00    +0.000 HD
ENDBRANCH  29  34
BRANCH  26  36
ATOM     36  C   UNL     1      -6.335  11.220  18.097  0.00  0.00    +0.000 C 
BRANCH  36  37
ATOM     37  O   UNL     1      -6.431  12.071  16.964  0.00  0.00    +0.000 OA
ATOM     38  H   UNL     1      -7.323  12.463  16.985  0.00  0.00    +0.000 HD
ENDBRANCH  36  37
ENDBRANCH  26  36
ENDBRANCH  23  24
ENDBRANCH   3  23
TORSDOF 10
ENDMDL
