MODEL 1
REMARK VINA RESULT:      -9.0      0.000      0.000
REMARK  Name = 
REMARK  4 active torsions:
REMARK  status: ('A' for Active; 'I' for Inactive)
REMARK    1  A    between atoms: C_2  and  C_3
REMARK    2  A    between atoms: C_3  and  N_4
REMARK    3  A    between atoms: C_6  and  C_7
REMARK    4  A    between atoms: C_22  and  C_23
REMARK                            x       y       z     vdW  Elec       q    Type
REMARK                         _______ _______ _______ _____ _____    ______ ____
ROOT
ATOM      1  C   UNL     1       1.470   9.168  19.331  0.00  0.00    +0.000 C 
ENDROOT
BRANCH   1   3
ATOM      2  O   UNL     1       0.831   9.350  21.636  0.00  0.00    +0.000 OA
ATOM      3  C   UNL     1       1.296   8.614  20.753  0.00  0.00    +0.000 C 
ATOM      4  N   UNL     1       1.512   7.310  21.071  0.00  0.00    +0.000 N 
ATOM      5  C   UNL     1       2.115   6.391  20.272  0.00  0.00    +0.000 A 
ATOM      6  N   UNL     1       2.787   6.608  19.178  0.00  0.00    +0.000 NA
ATOM      7  C   UNL     1       3.207   5.400  18.645  0.00  0.00    +0.000 A 
ATOM      8  C   UNL     1       2.780   4.284  19.342  0.00  0.00    +0.000 A 
ATOM      9  S   UNL     1       1.947   4.774  20.767  0.00  0.00    +0.000 S 
ATOM     10  H   UNL     1       1.219   7.009  21.992  0.00  0.00    +0.000 HD
BRANCH   7  11
ATOM     11  C   UNL     1       4.032   5.367  17.446  0.00  0.00    +0.000 A 
ATOM     12  C   UNL     1       4.458   6.573  16.869  0.00  0.00    +0.000 A 
ATOM     13  C   UNL     1       5.258   6.571  15.724  0.00  0.00    +0.000 A 
ATOM     14  C   UNL     1       5.634   5.362  15.142  0.00  0.00    +0.000 A 
ATOM     15  C   UNL     1       5.207   4.159  15.700  0.00  0.00    +0.000 A 
ATOM     16  C   UNL     1       4.411   4.159  16.848  0.00  0.00    +0.000 A 
ENDBRANCH   7  11
ENDBRANCH   1   3
BRANCH   1  17
ATOM     17  N   UNL     1       0.467  10.217  19.047  0.00  0.00    +0.000 N 
ATOM     18  C   UNL     1      -0.906  10.019  18.875  0.00  0.00    +0.000 A 
ATOM     19  C   UNL     1      -1.488  11.229  18.523  0.00  0.00    +0.000 A 
ATOM     20  N   UNL     1      -0.426  12.116  18.547  0.00  0.00    +0.000 N 
ATOM     21  C   UNL     1       0.711  11.517  18.892  0.00  0.00    +0.000 A 
ATOM     22  C   UNL     1       1.848  12.456  19.016  0.00  0.00    +0.000 C 
ATOM     23  C   UNL     1       1.208  13.830  18.731  0.00  0.00    +0.000 C 
ATOM     24  C   UNL     1      -0.288  13.560  18.434  0.00  0.00    +0.000 C 
BRANCH  19  25
ATOM     25  C   UNL     1      -2.926  11.488  18.205  0.00  0.00    +0.000 A 
ATOM     26  C   UNL     1      -3.427  11.207  16.926  0.00  0.00    +0.000 A 
ATOM     27  C   UNL     1      -4.779  11.424  16.646  0.00  0.00    +0.000 A 
ATOM     28  C   UNL     1      -5.613  11.946  17.627  0.00  0.00    +0.000 A 
ATOM     29  F   UNL     1      -6.905  12.158  17.352  0.00  0.00    +0.000 F 
ATOM     30  C   UNL     1      -5.122  12.255  18.889  0.00  0.00    +0.000 A 
ATOM     31  C   UNL     1      -3.777  12.018  19.184  0.00  0.00    +0.000 A 
ENDBRANCH  19  25
ENDBRANCH   1  17
TORSDOF 4
ENDMDL
MODEL 2
REMARK VINA RESULT:      -9.0      0.043      1.249
REMARK  Name = 
REMARK  4 active torsions:
REMARK  status: ('A' for Active; 'I' for Inactive)
REMARK    1  A    between atoms: C_2  and  C_3
REMARK    2  A    between atoms: C_3  and  N_4
REMARK    3  A    between atoms: C_6  and  C_7
REMARK    4  A    between atoms: C_22  and  C_23
REMARK                            x       y       z     vdW  Elec       q    Type
REMARK                         _______ _______ _______ _____ _____    ______ ____
ROOT
ATOM      1  C   UNL     1       1.448   9.188  19.343  0.00  0.00    +0.000 C 
ENDROOT
BRANCH   1   3
ATOM      2  O   UNL     1       0.796   9.350  21.645  0.00  0.00    +0.000 OA
ATOM      3  C   UNL     1       1.269   8.623  20.760  0.00  0.00    +0.000 C 
ATOM      4  N   UNL     1       1.489   7.318  21.069  0.00  0.00    +0.000 N 
ATOM      5  C   UNL     1       2.100   6.407  20.267  0.00  0.00    +0.000 A 
ATOM      6  N   UNL     1       2.778   6.635  19.178  0.00  0.00    +0.000 NA
ATOM      7  C   UNL     1       3.205   5.433  18.639  0.00  0.00    +0.000 A 
ATOM      8  C   UNL     1       2.780   4.310  19.325  0.00  0.00    +0.000 A 
ATOM      9  S   UNL     1       1.937   4.785  20.748  0.00  0.00    +0.000 S 
ATOM     10  H   UNL     1       1.192   7.009  21.986  0.00  0.00    +0.000 HD
BRANCH   7  11
ATOM     11  C   UNL     1       4.037   5.412  17.443  0.00  0.00    +0.000 A 
ATOM     12  C   UNL     1       4.414   4.180  16.887  0.00  0.00    +0.000 A 
ATOM     13  C   UNL     1       5.203   4.129  15.736  0.00  0.00    +0.000 A 
ATOM     14  C   UNL     1       5.628   5.312  15.134  0.00  0.00    +0.000 A 
ATOM     15  C   UNL     1       5.270   6.541  15.684  0.00  0.00    +0.000 A 
ATOM     16  C   UNL     1       4.476   6.593  16.833  0.00  0.00    +0.000 A 
ENDBRANCH   7  11
ENDBRANCH   1   3
BRANCH   1  17
ATOM     17  N   UNL     1       0.442  10.234  19.061  0.00  0.00    +0.000 N 
ATOM     18  C   UNL     1      -0.932  10.033  18.897  0.00  0.00    +0.000 A 
ATOM     19  C   UNL     1      -1.517  11.242  18.544  0.00  0.00    +0.000 A 
ATOM     20  N   UNL     1      -0.457  12.130  18.560  0.00  0.00    +0.000 N 
ATOM     21  C   UNL     1       0.683  11.534  18.900  0.00  0.00    +0.000 A 
ATOM     22  C   UNL     1       1.819  12.476  19.015  0.00  0.00    +0.000 C 
ATOM     23  C   UNL     1       1.175  13.848  18.730  0.00  0.00    +0.000 C 
ATOM     24  C   UNL     1      -0.322  13.574  18.441  0.00  0.00    +0.000 C 
BRANCH  19  25
ATOM     25  C   UNL     1      -2.958  11.497  18.234  0.00  0.00    +0.000 A 
ATOM     26  C   UNL     1      -3.802  12.047  19.208  0.00  0.00    +0.000 A 
ATOM     27  C   UNL     1      -5.140  12.310  18.901  0.00  0.00    +0.000 A 
ATOM     28  C   UNL     1      -5.634  11.997  17.641  0.00  0.00    +0.000 A 
ATOM     29  F   UNL     1      -6.917  12.244  17.353  0.00  0.00    +0.000 F 
ATOM     30  C   UNL     1      -4.814  11.427  16.676  0.00  0.00    +0.000 A 
ATOM     31  C   UNL     1      -3.470  11.183  16.968  0.00  0.00    +0.000 A 
ENDBRANCH  19  25
ENDBRANCH   1  17
TORSDOF 4
ENDMDL
MODEL 3
REMARK VINA RESULT:      -8.3      2.222      3.929
REMARK  Name = 
REMARK  4 active torsions:
REMARK  status: ('A' for Active; 'I' for Inactive)
REMARK    1  A    between atoms: C_2  and  C_3
REMARK    2  A    between atoms: C_3  and  N_4
REMARK    3  A    between atoms: C_6  and  C_7
REMARK    4  A    between atoms: C_22  and  C_23
REMARK                            x       y       z     vdW  Elec       q    Type
REMARK                         _______ _______ _______ _____ _____    ______ ____
ROOT
ATOM      1  C   UNL     1       1.537   8.987  19.006  0.00  0.00    +0.000 C 
ENDROOT
BRANCH   1   3
ATOM      2  O   UNL     1       0.886   9.320  21.290  0.00  0.00    +0.000 OA
ATOM      3  C   UNL     1       1.375   8.535  20.465  0.00  0.00    +0.000 C 
ATOM      4  N   UNL     1       1.629   7.265  20.879  0.00  0.00    +0.000 N 
ATOM      5  C   UNL     1       2.261   6.308  20.151  0.00  0.00    +0.000 A 
ATOM      6  N   UNL     1       2.930   6.463  19.044  0.00  0.00    +0.000 NA
ATOM      7  C   UNL     1       3.387   5.231  18.603  0.00  0.00    +0.000 A 
ATOM      8  C   UNL     1       2.992   4.158  19.381  0.00  0.00    +0.000 A 
ATOM      9  S   UNL     1       2.141   4.727  20.764  0.00  0.00    +0.000 S 
ATOM     10  H   UNL     1       1.342   7.025  21.819  0.00  0.00    +0.000 HD
BRANCH   7  11
ATOM     11  C   UNL     1       4.216   5.134  17.410  0.00  0.00    +0.000 A 
ATOM     12  C   UNL     1       4.585   6.304  16.729  0.00  0.00    +0.000 A 
ATOM     13  C   UNL     1       5.388   6.241  15.588  0.00  0.00    +0.000 A 
ATOM     14  C   UNL     1       5.823   5.006  15.113  0.00  0.00    +0.000 A 
ATOM     15  C   UNL     1       5.455   3.837  15.775  0.00  0.00    +0.000 A 
ATOM     16  C   UNL     1       4.655   3.898  16.919  0.00  0.00    +0.000 A 
ENDBRANCH   7  11
ENDBRANCH   1   3
BRANCH   1  17
ATOM     17  N   UNL     1       0.919  10.313  18.792  0.00  0.00    +0.000 N 
ATOM     18  C   UNL     1       1.577  11.545  18.836  0.00  0.00    +0.000 A 
ATOM     19  C   UNL     1       0.636  12.556  18.689  0.00  0.00    +0.000 A 
ATOM     20  N   UNL     1      -0.551  11.867  18.514  0.00  0.00    +0.000 N 
ATOM     21  C   UNL     1      -0.367  10.549  18.540  0.00  0.00    +0.000 A 
ATOM     22  C   UNL     1      -1.604   9.785  18.265  0.00  0.00    +0.000 C 
ATOM     23  C   UNL     1      -2.650  10.885  17.992  0.00  0.00    +0.000 C 
ATOM     24  C   UNL     1      -1.913  12.237  18.161  0.00  0.00    +0.000 C 
BRANCH  19  25
ATOM     25  C   UNL     1       0.876  14.032  18.709  0.00  0.00    +0.000 A 
ATOM     26  C   UNL     1      -0.189  14.916  18.929  0.00  0.00    +0.000 A 
ATOM     27  C   UNL     1       0.049  16.293  18.976  0.00  0.00    +0.000 A 
ATOM     28  C   UNL     1       1.335  16.779  18.775  0.00  0.00    +0.000 A 
ATOM     29  F   UNL     1       1.556  18.098  18.814  0.00  0.00    +0.000 F 
ATOM     30  C   UNL     1       2.394  15.914  18.530  0.00  0.00    +0.000 A 
ATOM     31  C   UNL     1       2.167  14.536  18.504  0.00  0.00    +0.000 A 
ENDBRANCH  19  25
ENDBRANCH   1  17
TORSDOF 4
ENDMDL
MODEL 4
REMARK VINA RESULT:      -8.2      2.310      4.087
REMARK  Name = 
REMARK  4 active torsions:
REMARK  status: ('A' for Active; 'I' for Inactive)
REMARK    1  A    between atoms: C_2  and  C_3
REMARK    2  A    between atoms: C_3  and  N_4
REMARK    3  A    between atoms: C_6  and  C_7
REMARK    4  A    between atoms: C_22  and  C_23
REMARK                            x       y       z     vdW  Elec       q    Type
REMARK                         _______ _______ _______ _____ _____    ______ ____
ROOT
ATOM      1  C   UNL     1       1.566   8.883  18.951  0.00  0.00    +0.000 C 
ENDROOT
BRANCH   1   3
ATOM      2  O   UNL     1       0.913   9.182  21.239  0.00  0.00    +0.000 OA
ATOM      3  C   UNL     1       1.418   8.415  20.407  0.00  0.00    +0.000 C 
ATOM      4  N   UNL     1       1.702   7.149  20.809  0.00  0.00    +0.000 N 
ATOM      5  C   UNL     1       2.353   6.212  20.073  0.00  0.00    +0.000 A 
ATOM      6  N   UNL     1       3.016   6.391  18.965  0.00  0.00    +0.000 NA
ATOM      7  C   UNL     1       3.499   5.174  18.513  0.00  0.00    +0.000 A 
ATOM      8  C   UNL     1       3.131   4.086  19.282  0.00  0.00    +0.000 A 
ATOM      9  S   UNL     1       2.270   4.624  20.673  0.00  0.00    +0.000 S 
ATOM     10  H   UNL     1       1.422   6.894  21.749  0.00  0.00    +0.000 HD
BRANCH   7  11
ATOM     11  C   UNL     1       4.328   5.105  17.317  0.00  0.00    +0.000 A 
ATOM     12  C   UNL     1       4.795   3.858  16.873  0.00  0.00    +0.000 A 
ATOM     13  C   UNL     1       5.583   3.761  15.724  0.00  0.00    +0.000 A 
ATOM     14  C   UNL     1       5.917   4.911  15.013  0.00  0.00    +0.000 A 
ATOM     15  C   UNL     1       5.468   6.155  15.450  0.00  0.00    +0.000 A 
ATOM     16  C   UNL     1       4.675   6.254  16.597  0.00  0.00    +0.000 A 
ENDBRANCH   7  11
ENDBRANCH   1   3
BRANCH   1  17
ATOM     17  N   UNL     1       1.019  10.246  18.776  0.00  0.00    +0.000 N 
ATOM     18  C   UNL     1       1.728  11.442  18.913  0.00  0.00    +0.000 A 
ATOM     19  C   UNL     1       0.842  12.501  18.773  0.00  0.00    +0.000 A 
ATOM     20  N   UNL     1      -0.365  11.879  18.509  0.00  0.00    +0.000 N 
ATOM     21  C   UNL     1      -0.242  10.554  18.477  0.00  0.00    +0.000 A 
ATOM     22  C   UNL     1      -1.497   9.863  18.107  0.00  0.00    +0.000 C 
ATOM     23  C   UNL     1      -2.478  11.023  17.841  0.00  0.00    +0.000 C 
ATOM     24  C   UNL     1      -1.690  12.329  18.112  0.00  0.00    +0.000 C 
BRANCH  19  25
ATOM     25  C   UNL     1       1.147  13.962  18.879  0.00  0.00    +0.000 A 
ATOM     26  C   UNL     1       2.325  14.478  18.321  0.00  0.00    +0.000 A 
ATOM     27  C   UNL     1       2.589  15.848  18.398  0.00  0.00    +0.000 A 
ATOM     28  C   UNL     1       1.697  16.688  19.054  0.00  0.00    +0.000 A 
ATOM     29  F   UNL     1       1.956  17.998  19.132  0.00  0.00    +0.000 F 
ATOM     30  C   UNL     1       0.540  16.184  19.635  0.00  0.00    +0.000 A 
ATOM     31  C   UNL     1       0.258  14.819  19.541  0.00  0.00    +0.000 A 
ENDBRANCH  19  25
ENDBRANCH   1  17
TORSDOF 4
ENDMDL
MODEL 5
REMARK VINA RESULT:      -8.1      3.281      4.689
REMARK  Name = 
REMARK  4 active torsions:
REMARK  status: ('A' for Active; 'I' for Inactive)
REMARK    1  A    between atoms: C_2  and  C_3
REMARK    2  A    between atoms: C_3  and  N_4
REMARK    3  A    between atoms: C_6  and  C_7
REMARK    4  A    between atoms: C_22  and  C_23
REMARK                            x       y       z     vdW  Elec       q    Type
REMARK                         _______ _______ _______ _____ _____    ______ ____
ROOT
ATOM      1  C   UNL     1       1.111   9.292  19.518  0.00  0.00    +0.000 C 
ENDROOT
BRANCH   1   3
ATOM      2  O   UNL     1       1.766  10.986  17.953  0.00  0.00    +0.000 OA
ATOM      3  C   UNL     1       1.895   9.804  18.301  0.00  0.00    +0.000 C 
ATOM      4  N   UNL     1       2.825   9.055  17.652  0.00  0.00    +0.000 N 
ATOM      5  C   UNL     1       3.027   7.722  17.822  0.00  0.00    +0.000 A 
ATOM      6  N   UNL     1       2.256   6.875  18.442  0.00  0.00    +0.000 NA
ATOM      7  C   UNL     1       2.840   5.618  18.422  0.00  0.00    +0.000 A 
ATOM      8  C   UNL     1       4.084   5.571  17.820  0.00  0.00    +0.000 A 
ATOM      9  S   UNL     1       4.465   7.111  17.154  0.00  0.00    +0.000 S 
ATOM     10  H   UNL     1       3.399   9.531  16.967  0.00  0.00    +0.000 HD
BRANCH   7  11
ATOM     11  C   UNL     1       2.151   4.473  19.000  0.00  0.00    +0.000 A 
ATOM     12  C   UNL     1       2.120   4.319  20.394  0.00  0.00    +0.000 A 
ATOM     13  C   UNL     1       1.459   3.236  20.978  0.00  0.00    +0.000 A 
ATOM     14  C   UNL     1       0.827   2.293  20.170  0.00  0.00    +0.000 A 
ATOM     15  C   UNL     1       0.860   2.429  18.784  0.00  0.00    +0.000 A 
ATOM     16  C   UNL     1       1.517   3.515  18.199  0.00  0.00    +0.000 A 
ENDBRANCH   7  11
ENDBRANCH   1   3
BRANCH   1  17
ATOM     17  N   UNL     1       0.054  10.251  19.907  0.00  0.00    +0.000 N 
ATOM     18  C   UNL     1      -0.015  10.957  21.111  0.00  0.00    +0.000 A 
ATOM     19  C   UNL     1      -1.205  11.672  21.138  0.00  0.00    +0.000 A 
ATOM     20  N   UNL     1      -1.777  11.390  19.911  0.00  0.00    +0.000 N 
ATOM     21  C   UNL     1      -1.011  10.583  19.180  0.00  0.00    +0.000 A 
ATOM     22  C   UNL     1      -1.552  10.337  17.826  0.00  0.00    +0.000 C 
ATOM     23  C   UNL     1      -2.827  11.204  17.787  0.00  0.00    +0.000 C 
ATOM     24  C   UNL     1      -2.933  11.882  19.176  0.00  0.00    +0.000 C 
BRANCH  19  25
ATOM     25  C   UNL     1      -1.720  12.539  22.242  0.00  0.00    +0.000 A 
ATOM     26  C   UNL     1      -2.956  12.259  22.841  0.00  0.00    +0.000 A 
ATOM     27  C   UNL     1      -3.416  13.057  23.892  0.00  0.00    +0.000 A 
ATOM     28  C   UNL     1      -2.660  14.142  24.318  0.00  0.00    +0.000 A 
ATOM     29  F   UNL     1      -3.108  14.907  25.320  0.00  0.00    +0.000 F 
ATOM     30  C   UNL     1      -1.447  14.446  23.714  0.00  0.00    +0.000 A 
ATOM     31  C   UNL     1      -0.969  13.639  22.679  0.00  0.00    +0.000 A 
ENDBRANCH  19  25
ENDBRANCH   1  17
TORSDOF 4
ENDMDL
MODEL 6
REMARK VINA RESULT:      -8.1      3.720      8.930
REMARK  Name = 
REMARK  4 active torsions:
REMARK  status: ('A' for Active; 'I' for Inactive)
REMARK    1  A    between atoms: C_2  and  C_3
REMARK    2  A    between atoms: C_3  and  N_4
REMARK    3  A    between atoms: C_6  and  C_7
REMARK    4  A    between atoms: C_22  and  C_23
REMARK                            x       y       z     vdW  Elec       q    Type
REMARK                         _______ _______ _______ _____ _____    ______ ____
ROOT
ATOM      1  C   UNL     1      -0.983  12.293  19.711  0.00  0.00    +0.000 C 
ENDROOT
BRANCH   1   3
ATOM      2  O   UNL     1       0.396  13.338  18.051  0.00  0.00    +0.000 OA
ATOM      3  C   UNL     1      -0.662  12.733  18.275  0.00  0.00    +0.000 C 
ATOM      4  N   UNL     1      -1.426  12.385  17.207  0.00  0.00    +0.000 N 
ATOM      5  C   UNL     1      -2.660  11.821  17.267  0.00  0.00    +0.000 A 
ATOM      6  N   UNL     1      -3.434  11.711  18.309  0.00  0.00    +0.000 NA
ATOM      7  C   UNL     1      -4.593  11.039  17.956  0.00  0.00    +0.000 A 
ATOM      8  C   UNL     1      -4.632  10.608  16.643  0.00  0.00    +0.000 A 
ATOM      9  S   UNL     1      -3.239  11.174  15.805  0.00  0.00    +0.000 S 
ATOM     10  H   UNL     1      -1.048  12.586  16.289  0.00  0.00    +0.000 HD
BRANCH   7  11
ATOM     11  C   UNL     1      -5.656  10.835  18.931  0.00  0.00    +0.000 A 
ATOM     12  C   UNL     1      -6.349   9.615  18.949  0.00  0.00    +0.000 A 
ATOM     13  C   UNL     1      -7.366   9.387  19.879  0.00  0.00    +0.000 A 
ATOM     14  C   UNL     1      -7.704  10.381  20.795  0.00  0.00    +0.000 A 
ATOM     15  C   UNL     1      -7.029  11.600  20.780  0.00  0.00    +0.000 A 
ATOM     16  C   UNL     1      -6.008  11.828  19.853  0.00  0.00    +0.000 A 
ENDBRANCH   7  11
ENDBRANCH   1   3
BRANCH   1  17
ATOM     17  N   UNL     1      -0.221  11.079  20.074  0.00  0.00    +0.000 N 
ATOM     18  C   UNL     1       0.584  10.324  19.216  0.00  0.00    +0.000 A 
ATOM     19  C   UNL     1       1.042   9.209  19.904  0.00  0.00    +0.000 A 
ATOM     20  N   UNL     1       0.520   9.377  21.174  0.00  0.00    +0.000 N 
ATOM     21  C   UNL     1      -0.191  10.498  21.272  0.00  0.00    +0.000 A 
ATOM     22  C   UNL     1      -0.688  10.752  22.642  0.00  0.00    +0.000 C 
ATOM     23  C   UNL     1      -0.105   9.580  23.457  0.00  0.00    +0.000 C 
ATOM     24  C   UNL     1       0.685   8.704  22.453  0.00  0.00    +0.000 C 
BRANCH  19  25
ATOM     25  C   UNL     1       1.903   8.106  19.377  0.00  0.00    +0.000 A 
ATOM     26  C   UNL     1       2.547   8.244  18.139  0.00  0.00    +0.000 A 
ATOM     27  C   UNL     1       3.374   7.221  17.666  0.00  0.00    +0.000 A 
ATOM     28  C   UNL     1       3.529   6.059  18.412  0.00  0.00    +0.000 A 
ATOM     29  F   UNL     1       4.316   5.079  17.952  0.00  0.00    +0.000 F 
ATOM     30  C   UNL     1       2.875   5.898  19.627  0.00  0.00    +0.000 A 
ATOM     31  C   UNL     1       2.066   6.927  20.116  0.00  0.00    +0.000 A 
ENDBRANCH  19  25
ENDBRANCH   1  17
TORSDOF 4
ENDMDL
MODEL 7
REMARK VINA RESULT:      -8.0      2.143      3.557
REMARK  Name = 
REMARK  4 active torsions:
REMARK  status: ('A' for Active; 'I' for Inactive)
REMARK    1  A    between atoms: C_2  and  C_3
REMARK    2  A    between atoms: C_3  and  N_4
REMARK    3  A    between atoms: C_6  and  C_7
REMARK    4  A    between atoms: C_22  and  C_23
REMARK                            x       y       z     vdW  Elec       q    Type
REMARK                         _______ _______ _______ _____ _____    ______ ____
ROOT
ATOM      1  C   UNL     1       1.524   9.099  19.323  0.00  0.00    +0.000 C 
ENDROOT
BRANCH   1   3
ATOM      2  O   UNL     1       0.850   9.246  21.620  0.00  0.00    +0.000 OA
ATOM      3  C   UNL     1       1.318   8.521  20.731  0.00  0.00    +0.000 C 
ATOM      4  N   UNL     1       1.509   7.208  21.026  0.00  0.00    +0.000 N 
ATOM      5  C   UNL     1       2.110   6.295  20.219  0.00  0.00    +0.000 A 
ATOM      6  N   UNL     1       2.804   6.522  19.140  0.00  0.00    +0.000 NA
ATOM      7  C   UNL     1       3.213   5.318  18.591  0.00  0.00    +0.000 A 
ATOM      8  C   UNL     1       2.758   4.196  19.259  0.00  0.00    +0.000 A 
ATOM      9  S   UNL     1       1.910   4.671  20.679  0.00  0.00    +0.000 S 
ATOM     10  H   UNL     1       1.196   6.894  21.936  0.00  0.00    +0.000 HD
BRANCH   7  11
ATOM     11  C   UNL     1       4.057   5.295  17.404  0.00  0.00    +0.000 A 
ATOM     12  C   UNL     1       4.490   6.506  16.843  0.00  0.00    +0.000 A 
ATOM     13  C   UNL     1       5.309   6.514  15.711  0.00  0.00    +0.000 A 
ATOM     14  C   UNL     1       5.695   5.310  15.126  0.00  0.00    +0.000 A 
ATOM     15  C   UNL     1       5.263   4.102  15.669  0.00  0.00    +0.000 A 
ATOM     16  C   UNL     1       4.448   4.092  16.804  0.00  0.00    +0.000 A 
ENDBRANCH   7  11
ENDBRANCH   1   3
BRANCH   1  17
ATOM     17  N   UNL     1       0.718  10.325  19.132  0.00  0.00    +0.000 N 
ATOM     18  C   UNL     1       1.007  11.589  19.653  0.00  0.00    +0.000 A 
ATOM     19  C   UNL     1      -0.040  12.447  19.339  0.00  0.00    +0.000 A 
ATOM     20  N   UNL     1      -0.894  11.653  18.595  0.00  0.00    +0.000 N 
ATOM     21  C   UNL     1      -0.422  10.418  18.449  0.00  0.00    +0.000 A 
ATOM     22  C   UNL     1      -1.269   9.570  17.581  0.00  0.00    +0.000 C 
ATOM     23  C   UNL     1      -2.389  10.529  17.130  0.00  0.00    +0.000 C 
ATOM     24  C   UNL     1      -2.100  11.888  17.816  0.00  0.00    +0.000 C 
BRANCH  19  25
ATOM     25  C   UNL     1      -0.181  13.886  19.720  0.00  0.00    +0.000 A 
ATOM     26  C   UNL     1      -0.358  14.244  21.064  0.00  0.00    +0.000 A 
ATOM     27  C   UNL     1      -0.460  15.593  21.416  0.00  0.00    +0.000 A 
ATOM     28  C   UNL     1      -0.415  16.570  20.429  0.00  0.00    +0.000 A 
ATOM     29  F   UNL     1      -0.520  17.860  20.770  0.00  0.00    +0.000 F 
ATOM     30  C   UNL     1      -0.267  16.226  19.092  0.00  0.00    +0.000 A 
ATOM     31  C   UNL     1      -0.142  14.881  18.735  0.00  0.00    +0.000 A 
ENDBRANCH  19  25
ENDBRANCH   1  17
TORSDOF 4
ENDMDL
MODEL 8
REMARK VINA RESULT:      -8.0      3.278      4.713
REMARK  Name = 
REMARK  4 active torsions:
REMARK  status: ('A' for Active; 'I' for Inactive)
REMARK    1  A    between atoms: C_2  and  C_3
REMARK    2  A    between atoms: C_3  and  N_4
REMARK    3  A    between atoms: C_6  and  C_7
REMARK    4  A    between atoms: C_22  and  C_23
REMARK                            x       y       z     vdW  Elec       q    Type
REMARK                         _______ _______ _______ _____ _____    ______ ____
ROOT
ATOM      1  C   UNL     1       1.168   9.233  19.471  0.00  0.00    +0.000 C 
ENDROOT
BRANCH   1   3
ATOM      2  O   UNL     1       1.823  10.909  17.886  0.00  0.00    +0.000 OA
ATOM      3  C   UNL     1       1.958   9.733  18.252  0.00  0.00    +0.000 C 
ATOM      4  N   UNL     1       2.898   8.982  17.621  0.00  0.00    +0.000 N 
ATOM      5  C   UNL     1       3.108   7.653  17.812  0.00  0.00    +0.000 A 
ATOM      6  N   UNL     1       2.339   6.809  18.439  0.00  0.00    +0.000 NA
ATOM      7  C   UNL     1       2.932   5.557  18.441  0.00  0.00    +0.000 A 
ATOM      8  C   UNL     1       4.181   5.509  17.850  0.00  0.00    +0.000 A 
ATOM      9  S   UNL     1       4.556   7.043  17.163  0.00  0.00    +0.000 S 
ATOM     10  H   UNL     1       3.474   9.452  16.934  0.00  0.00    +0.000 HD
BRANCH   7  11
ATOM     11  C   UNL     1       2.247   4.415  19.031  0.00  0.00    +0.000 A 
ATOM     12  C   UNL     1       1.459   3.588  18.216  0.00  0.00    +0.000 A 
ATOM     13  C   UNL     1       0.798   2.480  18.752  0.00  0.00    +0.000 A 
ATOM     14  C   UNL     1       0.914   2.194  20.110  0.00  0.00    +0.000 A 
ATOM     15  C   UNL     1       1.686   3.014  20.931  0.00  0.00    +0.000 A 
ATOM     16  C   UNL     1       2.351   4.120  20.395  0.00  0.00    +0.000 A 
ENDBRANCH   7  11
ENDBRANCH   1   3
BRANCH   1  17
ATOM     17  N   UNL     1       0.137  10.215  19.871  0.00  0.00    +0.000 N 
ATOM     18  C   UNL     1       0.099  10.925  21.075  0.00  0.00    +0.000 A 
ATOM     19  C   UNL     1      -1.076  11.664  21.115  0.00  0.00    +0.000 A 
ATOM     20  N   UNL     1      -1.670  11.393  19.896  0.00  0.00    +0.000 N 
ATOM     21  C   UNL     1      -0.930  10.568  19.158  0.00  0.00    +0.000 A 
ATOM     22  C   UNL     1      -1.494  10.331  17.811  0.00  0.00    +0.000 C 
ATOM     23  C   UNL     1      -2.751  11.225  17.787  0.00  0.00    +0.000 C 
ATOM     24  C   UNL     1      -2.824  11.908  19.176  0.00  0.00    +0.000 C 
BRANCH  19  25
ATOM     25  C   UNL     1      -1.557  12.545  22.224  0.00  0.00    +0.000 A 
ATOM     26  C   UNL     1      -0.779  13.630  22.651  0.00  0.00    +0.000 A 
ATOM     27  C   UNL     1      -1.249  14.466  23.668  0.00  0.00    +0.000 A 
ATOM     28  C   UNL     1      -2.472  14.199  24.272  0.00  0.00    +0.000 A 
ATOM     29  F   UNL     1      -2.915  14.997  25.249  0.00  0.00    +0.000 F 
ATOM     30  C   UNL     1      -3.239  13.110  23.876  0.00  0.00    +0.000 A 
ATOM     31  C   UNL     1      -2.786  12.284  22.844  0.00  0.00    +0.000 A 
ENDBRANCH  19  25
ENDBRANCH   1  17
TORSDOF 4
ENDMDL
MODEL 9
REMARK VINA RESULT:      -8.0      3.827      8.765
REMARK  Name = 
REMARK  4 active torsions:
REMARK  status: ('A' for Active; 'I' for Inactive)
REMARK    1  A    between atoms: C_2  and  C_3
REMARK    2  A    between atoms: C_3  and  N_4
REMARK    3  A    between atoms: C_6  and  C_7
REMARK    4  A    between atoms: C_22  and  C_23
REMARK                            x       y       z     vdW  Elec       q    Type
REMARK                         _______ _______ _______ _____ _____    ______ ____
ROOT
ATOM      1  C   UNL     1      -0.110   8.849  21.432  0.00  0.00    +0.000 C 
ENDROOT
BRANCH   1   3
ATOM      2  O   UNL     1       1.289   9.625  23.219  0.00  0.00    +0.000 OA
ATOM      3  C   UNL     1       0.640   9.940  22.211  0.00  0.00    +0.000 C 
ATOM      4  N   UNL     1       0.731  11.226  21.780  0.00  0.00    +0.000 N 
ATOM      5  C   UNL     1       0.010  11.774  20.768  0.00  0.00    +0.000 A 
ATOM      6  N   UNL     1      -1.035  11.273  20.175  0.00  0.00    +0.000 NA
ATOM      7  C   UNL     1      -1.452  12.129  19.169  0.00  0.00    +0.000 A 
ATOM      8  C   UNL     1      -0.656  13.247  18.997  0.00  0.00    +0.000 A 
ATOM      9  S   UNL     1       0.562  13.283  20.213  0.00  0.00    +0.000 S 
ATOM     10  H   UNL     1       1.376  11.829  22.275  0.00  0.00    +0.000 HD
BRANCH   7  11
ATOM     11  C   UNL     1      -2.643  11.828  18.386  0.00  0.00    +0.000 A 
ATOM     12  C   UNL     1      -2.503  11.297  17.095  0.00  0.00    +0.000 A 
ATOM     13  C   UNL     1      -3.628  10.990  16.326  0.00  0.00    +0.000 A 
ATOM     14  C   UNL     1      -4.903  11.218  16.839  0.00  0.00    +0.000 A 
ATOM     15  C   UNL     1      -5.054  11.755  18.116  0.00  0.00    +0.000 A 
ATOM     16  C   UNL     1      -3.930  12.058  18.889  0.00  0.00    +0.000 A 
ENDBRANCH   7  11
ENDBRANCH   1   3
BRANCH   1  17
ATOM     17  N   UNL     1       0.832   8.004  20.667  0.00  0.00    +0.000 N 
ATOM     18  C   UNL     1       1.215   6.699  20.987  0.00  0.00    +0.000 A 
ATOM     19  C   UNL     1       2.188   6.289  20.086  0.00  0.00    +0.000 A 
ATOM     20  N   UNL     1       2.309   7.368  19.229  0.00  0.00    +0.000 N 
ATOM     21  C   UNL     1       1.480   8.357  19.558  0.00  0.00    +0.000 A 
ATOM     22  C   UNL     1       1.520   9.489  18.606  0.00  0.00    +0.000 C 
ATOM     23  C   UNL     1       2.520   9.017  17.531  0.00  0.00    +0.000 C 
ATOM     24  C   UNL     1       3.009   7.616  17.978  0.00  0.00    +0.000 C 
BRANCH  19  25
ATOM     25  C   UNL     1       2.914   4.982  20.064  0.00  0.00    +0.000 A 
ATOM     26  C   UNL     1       4.092   4.842  19.318  0.00  0.00    +0.000 A 
ATOM     27  C   UNL     1       4.781   3.625  19.326  0.00  0.00    +0.000 A 
ATOM     28  C   UNL     1       4.277   2.551  20.050  0.00  0.00    +0.000 A 
ATOM     29  F   UNL     1       4.936   1.387  20.049  0.00  0.00    +0.000 F 
ATOM     30  C   UNL     1       3.096   2.670  20.771  0.00  0.00    +0.000 A 
ATOM     31  C   UNL     1       2.415   3.889  20.786  0.00  0.00    +0.000 A 
ENDBRANCH  19  25
ENDBRANCH   1  17
TORSDOF 4
ENDMDL
