MODEL 1
REMARK VINA RESULT:      -9.2      0.000      0.000
REMARK  Name = 
REMARK  6 active torsions:
REMARK  status: ('A' for Active; 'I' for Inactive)
REMARK    1  A    between atoms: C_1  and  C_2
REMARK    2  A    between atoms: C_2  and  C_3
REMARK    3  A    between atoms: C_2  and  C_4
REMARK    4  A    between atoms: C_2  and  C_5
REMARK    5  A    between atoms: N_7  and  C_8
REMARK    6  A    between atoms: C_9  and  C_10
REMARK                            x       y       z     vdW  Elec       q    Type
REMARK                         _______ _______ _______ _____ _____    ______ ____
ROOT
ATOM      1  C   UNL     1       2.998   5.470  18.264  0.00  0.00    +0.000 A 
ATOM      2  C   UNL     1       4.239   4.923  17.903  0.00  0.00    +0.000 A 
ATOM      3  O   UNL     1       4.332   3.674  18.480  0.00  0.00    +0.000 OA
ATOM      4  C   UNL     1       3.206   3.443  19.197  0.00  0.00    +0.000 A 
ATOM      5  C   UNL     1       2.949   2.293  19.938  0.00  0.00    +0.000 A 
ATOM      6  C   UNL     1       1.716   2.236  20.593  0.00  0.00    +0.000 A 
ATOM      7  C   UNL     1       0.802   3.288  20.502  0.00  0.00    +0.000 A 
ATOM      8  C   UNL     1       1.101   4.443  19.766  0.00  0.00    +0.000 A 
ATOM      9  C   UNL     1       2.341   4.524  19.106  0.00  0.00    +0.000 A 
ENDROOT
BRANCH   2  10
ATOM     10  C   UNL     1       5.362   5.525  17.250  0.00  0.00    +0.000 A 
ATOM     11  C   UNL     1       6.097   6.410  17.937  0.00  0.00    +0.000 A 
ATOM     12  C   UNL     1       7.337   7.000  17.418  0.00  0.00    +0.000 A 
ATOM     13  O   UNL     1       7.962   7.833  18.066  0.00  0.00    +0.000 OA
ATOM     14  O   UNL     1       7.785   6.548  16.185  0.00  0.00    +0.000 OA
ATOM     15  C   UNL     1       7.007   5.672  15.407  0.00  0.00    +0.000 A 
ATOM     16  C   UNL     1       7.515   5.313  14.155  0.00  0.00    +0.000 A 
ATOM     17  C   UNL     1       6.750   4.470  13.368  0.00  0.00    +0.000 A 
ATOM     18  C   UNL     1       5.487   4.049  13.789  0.00  0.00    +0.000 A 
ATOM     19  C   UNL     1       4.985   4.410  15.030  0.00  0.00    +0.000 A 
ATOM     20  C   UNL     1       5.775   5.201  15.876  0.00  0.00    +0.000 A 
ATOM     21  C   UNL     1       4.805   3.236  12.736  0.00  0.00    +0.000 C 
ATOM     22  C   UNL     1       5.983   2.856  11.830  0.00  0.00    +0.000 C 
ATOM     23  C   UNL     1       7.075   3.923  12.015  0.00  0.00    +0.000 C 
ENDBRANCH   2  10
BRANCH   1  26
ATOM     24  C   UNL     1       2.202   7.657  18.951  0.00  0.00    +0.000 C 
ATOM     25  O   UNL     1       2.406   7.444  20.141  0.00  0.00    +0.000 OA
ATOM     26  N   UNL     1       2.500   6.741  17.956  0.00  0.00    +0.000 N 
ATOM     27  H   UNL     1       2.814   7.122  17.076  0.00  0.00    +0.000 HD
BRANCH  24  29
ATOM     28  C   UNL     1       1.001   9.722  19.696  0.00  0.00    +0.000 C 
ATOM     29  C   UNL     1       1.587   8.990  18.473  0.00  0.00    +0.000 C 
ATOM     30  C   UNL     1       0.452   8.699  17.482  0.00  0.00    +0.000 C 
ATOM     31  C   UNL     1       2.630   9.906  17.819  0.00  0.00    +0.000 C 
ENDBRANCH  24  29
ENDBRANCH   1  26
TORSDOF 3
ENDMDL
MODEL 2
REMARK VINA RESULT:      -7.6      8.129     11.225
REMARK  Name = 
REMARK  6 active torsions:
REMARK  status: ('A' for Active; 'I' for Inactive)
REMARK    1  A    between atoms: C_1  and  C_2
REMARK    2  A    between atoms: C_2  and  C_3
REMARK    3  A    between atoms: C_2  and  C_4
REMARK    4  A    between atoms: C_2  and  C_5
REMARK    5  A    between atoms: N_7  and  C_8
REMARK    6  A    between atoms: C_9  and  C_10
REMARK                            x       y       z     vdW  Elec       q    Type
REMARK                         _______ _______ _______ _____ _____    ______ ____
ROOT
ATOM      1  C   UNL     1      -3.528  14.279  21.105  0.00  0.00    +0.000 A 
ATOM      2  C   UNL     1      -3.217  12.915  21.209  0.00  0.00    +0.000 A 
ATOM      3  O   UNL     1      -4.063  12.362  22.146  0.00  0.00    +0.000 OA
ATOM      4  C   UNL     1      -4.865  13.337  22.637  0.00  0.00    +0.000 A 
ATOM      5  C   UNL     1      -5.834  13.160  23.621  0.00  0.00    +0.000 A 
ATOM      6  C   UNL     1      -6.575  14.291  23.977  0.00  0.00    +0.000 A 
ATOM      7  C   UNL     1      -6.340  15.527  23.371  0.00  0.00    +0.000 A 
ATOM      8  C   UNL     1      -5.340  15.677  22.399  0.00  0.00    +0.000 A 
ATOM      9  C   UNL     1      -4.577  14.553  22.033  0.00  0.00    +0.000 A 
ENDROOT
BRANCH   2  10
ATOM     10  C   UNL     1      -2.123  12.169  20.663  0.00  0.00    +0.000 A 
ATOM     11  C   UNL     1      -1.045  11.968  21.434  0.00  0.00    +0.000 A 
ATOM     12  C   UNL     1       0.083  11.121  21.030  0.00  0.00    +0.000 A 
ATOM     13  O   UNL     1       1.066  10.991  21.752  0.00  0.00    +0.000 OA
ATOM     14  O   UNL     1      -0.029  10.450  19.821  0.00  0.00    +0.000 OA
ATOM     15  C   UNL     1      -1.114  10.689  18.957  0.00  0.00    +0.000 A 
ATOM     16  C   UNL     1      -1.114  10.009  17.737  0.00  0.00    +0.000 A 
ATOM     17  C   UNL     1      -2.163  10.251  16.866  0.00  0.00    +0.000 A 
ATOM     18  C   UNL     1      -3.146  11.192  17.175  0.00  0.00    +0.000 A 
ATOM     19  C   UNL     1      -3.140  11.868  18.385  0.00  0.00    +0.000 A 
ATOM     20  C   UNL     1      -2.130  11.583  19.315  0.00  0.00    +0.000 A 
ATOM     21  C   UNL     1      -4.112  11.361  16.047  0.00  0.00    +0.000 C 
ATOM     22  C   UNL     1      -3.845  10.096  15.221  0.00  0.00    +0.000 C 
ATOM     23  C   UNL     1      -2.408   9.639  15.524  0.00  0.00    +0.000 C 
ENDBRANCH   2  10
BRANCH   1  26
ATOM     24  C   UNL     1      -1.790  15.945  20.797  0.00  0.00    +0.000 C 
ATOM     25  O   UNL     1      -1.278  15.728  21.889  0.00  0.00    +0.000 OA
ATOM     26  N   UNL     1      -2.887  15.246  20.322  0.00  0.00    +0.000 N 
ATOM     27  H   UNL     1      -2.916  15.078  19.327  0.00  0.00    +0.000 HD
BRANCH  24  29
ATOM     28  C   UNL     1      -0.414  16.350  18.745  0.00  0.00    +0.000 C 
ATOM     29  C   UNL     1      -1.232  17.036  19.857  0.00  0.00    +0.000 C 
ATOM     30  C   UNL     1      -0.304  17.965  20.652  0.00  0.00    +0.000 C 
ATOM     31  C   UNL     1      -2.349  17.855  19.195  0.00  0.00    +0.000 C 
ENDBRANCH  24  29
ENDBRANCH   1  26
TORSDOF 3
ENDMDL
MODEL 3
REMARK VINA RESULT:      -7.5      6.686     11.008
REMARK  Name = 
REMARK  6 active torsions:
REMARK  status: ('A' for Active; 'I' for Inactive)
REMARK    1  A    between atoms: C_1  and  C_2
REMARK    2  A    between atoms: C_2  and  C_3
REMARK    3  A    between atoms: C_2  and  C_4
REMARK    4  A    between atoms: C_2  and  C_5
REMARK    5  A    between atoms: N_7  and  C_8
REMARK    6  A    between atoms: C_9  and  C_10
REMARK                            x       y       z     vdW  Elec       q    Type
REMARK                         _______ _______ _______ _____ _____    ______ ____
ROOT
ATOM      1  C   UNL     1      -0.118  13.180  21.463  0.00  0.00    +0.000 A 
ATOM      2  C   UNL     1       0.709  14.257  21.816  0.00  0.00    +0.000 A 
ATOM      3  O   UNL     1       0.143  14.880  22.908  0.00  0.00    +0.000 OA
ATOM      4  C   UNL     1      -1.009  14.242  23.224  0.00  0.00    +0.000 A 
ATOM      5  C   UNL     1      -1.868  14.601  24.258  0.00  0.00    +0.000 A 
ATOM      6  C   UNL     1      -2.999  13.800  24.437  0.00  0.00    +0.000 A 
ATOM      7  C   UNL     1      -3.242  12.701  23.610  0.00  0.00    +0.000 A 
ATOM      8  C   UNL     1      -2.368  12.379  22.561  0.00  0.00    +0.000 A 
ATOM      9  C   UNL     1      -1.228  13.179  22.359  0.00  0.00    +0.000 A 
ENDROOT
BRANCH   2  10
ATOM     10  C   UNL     1       1.829  14.829  21.131  0.00  0.00    +0.000 A 
ATOM     11  C   UNL     1       3.059  14.436  21.489  0.00  0.00    +0.000 A 
ATOM     12  C   UNL     1       4.274  14.858  20.782  0.00  0.00    +0.000 A 
ATOM     13  O   UNL     1       5.384  14.502  21.163  0.00  0.00    +0.000 OA
ATOM     14  O   UNL     1       4.108  15.642  19.650  0.00  0.00    +0.000 OA
ATOM     15  C   UNL     1       2.839  16.129  19.284  0.00  0.00    +0.000 A 
ATOM     16  C   UNL     1       2.777  16.956  18.160  0.00  0.00    +0.000 A 
ATOM     17  C   UNL     1       1.539  17.461  17.802  0.00  0.00    +0.000 A 
ATOM     18  C   UNL     1       0.408  17.203  18.578  0.00  0.00    +0.000 A 
ATOM     19  C   UNL     1       0.475  16.384  19.696  0.00  0.00    +0.000 A 
ATOM     20  C   UNL     1       1.704  15.799  20.034  0.00  0.00    +0.000 A 
ATOM     21  C   UNL     1      -0.788  17.934  18.061  0.00  0.00    +0.000 C 
ATOM     22  C   UNL     1      -0.336  18.297  16.640  0.00  0.00    +0.000 C 
ATOM     23  C   UNL     1       1.201  18.339  16.639  0.00  0.00    +0.000 C 
ENDBRANCH   2  10
BRANCH   1  26
ATOM     24  C   UNL     1       0.724  11.112  20.512  0.00  0.00    +0.000 C 
ATOM     25  O   UNL     1       1.193  10.722  21.575  0.00  0.00    +0.000 OA
ATOM     26  N   UNL     1       0.031  12.304  20.381  0.00  0.00    +0.000 N 
ATOM     27  H   UNL     1      -0.729  12.311  19.718  0.00  0.00    +0.000 HD
BRANCH  24  29
ATOM     28  C   UNL     1       1.883  10.998  18.296  0.00  0.00    +0.000 C 
ATOM     29  C   UNL     1       0.878  10.281  19.219  0.00  0.00    +0.000 C 
ATOM     30  C   UNL     1      -0.477  10.199  18.504  0.00  0.00    +0.000 C 
ATOM     31  C   UNL     1       1.408   8.869  19.500  0.00  0.00    +0.000 C 
ENDBRANCH  24  29
ENDBRANCH   1  26
TORSDOF 3
ENDMDL
MODEL 4
REMARK VINA RESULT:      -7.5      7.272     10.745
REMARK  Name = 
REMARK  6 active torsions:
REMARK  status: ('A' for Active; 'I' for Inactive)
REMARK    1  A    between atoms: C_1  and  C_2
REMARK    2  A    between atoms: C_2  and  C_3
REMARK    3  A    between atoms: C_2  and  C_4
REMARK    4  A    between atoms: C_2  and  C_5
REMARK    5  A    between atoms: N_7  and  C_8
REMARK    6  A    between atoms: C_9  and  C_10
REMARK                            x       y       z     vdW  Elec       q    Type
REMARK                         _______ _______ _______ _____ _____    ______ ____
ROOT
ATOM      1  C   UNL     1      -3.226  12.473  20.023  0.00  0.00    +0.000 A 
ATOM      2  C   UNL     1      -2.382  12.051  18.985  0.00  0.00    +0.000 A 
ATOM      3  O   UNL     1      -3.177  11.629  17.941  0.00  0.00    +0.000 OA
ATOM      4  C   UNL     1      -4.475  11.755  18.306  0.00  0.00    +0.000 A 
ATOM      5  C   UNL     1      -5.568  11.406  17.519  0.00  0.00    +0.000 A 
ATOM      6  C   UNL     1      -6.833  11.634  18.069  0.00  0.00    +0.000 A 
ATOM      7  C   UNL     1      -6.975  12.180  19.347  0.00  0.00    +0.000 A 
ATOM      8  C   UNL     1      -5.853  12.499  20.125  0.00  0.00    +0.000 A 
ATOM      9  C   UNL     1      -4.571  12.270  19.592  0.00  0.00    +0.000 A 
ENDROOT
BRANCH   2  10
ATOM     10  C   UNL     1      -0.964  11.849  18.968  0.00  0.00    +0.000 A 
ATOM     11  C   UNL     1      -0.502  10.591  19.002  0.00  0.00    +0.000 A 
ATOM     12  C   UNL     1       0.920  10.254  18.867  0.00  0.00    +0.000 A 
ATOM     13  O   UNL     1       1.304   9.092  18.938  0.00  0.00    +0.000 OA
ATOM     14  O   UNL     1       1.798  11.300  18.622  0.00  0.00    +0.000 OA
ATOM     15  C   UNL     1       1.359  12.637  18.647  0.00  0.00    +0.000 A 
ATOM     16  C   UNL     1       2.326  13.625  18.443  0.00  0.00    +0.000 A 
ATOM     17  C   UNL     1       1.913  14.946  18.488  0.00  0.00    +0.000 A 
ATOM     18  C   UNL     1       0.590  15.273  18.792  0.00  0.00    +0.000 A 
ATOM     19  C   UNL     1      -0.364  14.289  18.998  0.00  0.00    +0.000 A 
ATOM     20  C   UNL     1       0.014  12.943  18.882  0.00  0.00    +0.000 A 
ATOM     21  C   UNL     1       0.403  16.752  18.888  0.00  0.00    +0.000 C 
ATOM     22  C   UNL     1       1.658  17.269  18.172  0.00  0.00    +0.000 C 
ATOM     23  C   UNL     1       2.736  16.178  18.279  0.00  0.00    +0.000 C 
ENDBRANCH   2  10
BRANCH   1  26
ATOM     24  C   UNL     1      -2.891  14.271  21.618  0.00  0.00    +0.000 C 
ATOM     25  O   UNL     1      -3.291  15.135  20.846  0.00  0.00    +0.000 OA
ATOM     26  N   UNL     1      -2.859  12.924  21.296  0.00  0.00    +0.000 N 
ATOM     27  H   UNL     1      -3.045  12.279  22.049  0.00  0.00    +0.000 HD
BRANCH  24  29
ATOM     28  C   UNL     1      -1.203  13.709  23.379  0.00  0.00    +0.000 C 
ATOM     29  C   UNL     1      -2.385  14.635  23.031  0.00  0.00    +0.000 C 
ATOM     30  C   UNL     1      -3.511  14.401  24.048  0.00  0.00    +0.000 C 
ATOM     31  C   UNL     1      -1.898  16.087  23.114  0.00  0.00    +0.000 C 
ENDBRANCH  24  29
ENDBRANCH   1  26
TORSDOF 3
ENDMDL
MODEL 5
REMARK VINA RESULT:      -7.3      7.847     12.217
REMARK  Name = 
REMARK  6 active torsions:
REMARK  status: ('A' for Active; 'I' for Inactive)
REMARK    1  A    between atoms: C_1  and  C_2
REMARK    2  A    between atoms: C_2  and  C_3
REMARK    3  A    between atoms: C_2  and  C_4
REMARK    4  A    between atoms: C_2  and  C_5
REMARK    5  A    between atoms: N_7  and  C_8
REMARK    6  A    between atoms: C_9  and  C_10
REMARK                            x       y       z     vdW  Elec       q    Type
REMARK                         _______ _______ _______ _____ _____    ______ ____
ROOT
ATOM      1  C   UNL     1      -0.030  13.049  20.821  0.00  0.00    +0.000 A 
ATOM      2  C   UNL     1      -1.209  13.810  20.850  0.00  0.00    +0.000 A 
ATOM      3  O   UNL     1      -1.001  14.936  20.083  0.00  0.00    +0.000 OA
ATOM      4  C   UNL     1       0.265  14.907  19.603  0.00  0.00    +0.000 A 
ATOM      5  C   UNL     1       0.844  15.890  18.805  0.00  0.00    +0.000 A 
ATOM      6  C   UNL     1       2.160  15.664  18.392  0.00  0.00    +0.000 A 
ATOM      7  C   UNL     1       2.846  14.508  18.773  0.00  0.00    +0.000 A 
ATOM      8  C   UNL     1       2.243  13.548  19.598  0.00  0.00    +0.000 A 
ATOM      9  C   UNL     1       0.921  13.761  20.031  0.00  0.00    +0.000 A 
ENDROOT
BRANCH   2  10
ATOM     10  C   UNL     1      -2.387  13.662  21.651  0.00  0.00    +0.000 A 
ATOM     11  C   UNL     1      -2.348  14.086  22.921  0.00  0.00    +0.000 A 
ATOM     12  C   UNL     1      -3.525  14.100  23.799  0.00  0.00    +0.000 A 
ATOM     13  O   UNL     1      -3.438  14.465  24.967  0.00  0.00    +0.000 OA
ATOM     14  O   UNL     1      -4.736  13.718  23.241  0.00  0.00    +0.000 OA
ATOM     15  C   UNL     1      -4.802  13.204  21.933  0.00  0.00    +0.000 A 
ATOM     16  C   UNL     1      -6.057  12.795  21.476  0.00  0.00    +0.000 A 
ATOM     17  C   UNL     1      -6.134  12.265  20.199  0.00  0.00    +0.000 A 
ATOM     18  C   UNL     1      -4.985  12.088  19.426  0.00  0.00    +0.000 A 
ATOM     19  C   UNL     1      -3.741  12.492  19.886  0.00  0.00    +0.000 A 
ATOM     20  C   UNL     1      -3.649  13.102  21.146  0.00  0.00    +0.000 A 
ATOM     21  C   UNL     1      -5.296  11.406  18.134  0.00  0.00    +0.000 C 
ATOM     22  C   UNL     1      -6.815  11.602  18.040  0.00  0.00    +0.000 C 
ATOM     23  C   UNL     1      -7.349  11.782  19.471  0.00  0.00    +0.000 C 
ENDBRANCH   2  10
BRANCH   1  26
ATOM     24  C   UNL     1      -0.196  10.636  21.015  0.00  0.00    +0.000 C 
ATOM     25  O   UNL     1      -0.778  10.511  19.943  0.00  0.00    +0.000 OA
ATOM     26  N   UNL     1       0.237  11.857  21.504  0.00  0.00    +0.000 N 
ATOM     27  H   UNL     1       1.098  11.849  22.030  0.00  0.00    +0.000 HD
BRANCH  24  29
ATOM     28  C   UNL     1      -0.454   9.694  23.319  0.00  0.00    +0.000 C 
ATOM     29  C   UNL     1       0.101   9.412  21.909  0.00  0.00    +0.000 C 
ATOM     30  C   UNL     1       1.619   9.211  22.007  0.00  0.00    +0.000 C 
ATOM     31  C   UNL     1      -0.563   8.135  21.379  0.00  0.00    +0.000 C 
ENDBRANCH  24  29
ENDBRANCH   1  26
TORSDOF 3
ENDMDL
MODEL 6
REMARK VINA RESULT:      -7.3      7.831     12.724
REMARK  Name = 
REMARK  6 active torsions:
REMARK  status: ('A' for Active; 'I' for Inactive)
REMARK    1  A    between atoms: C_1  and  C_2
REMARK    2  A    between atoms: C_2  and  C_3
REMARK    3  A    between atoms: C_2  and  C_4
REMARK    4  A    between atoms: C_2  and  C_5
REMARK    5  A    between atoms: N_7  and  C_8
REMARK    6  A    between atoms: C_9  and  C_10
REMARK                            x       y       z     vdW  Elec       q    Type
REMARK                         _______ _______ _______ _____ _____    ______ ____
ROOT
ATOM      1  C   UNL     1      -0.498  12.696  21.803  0.00  0.00    +0.000 A 
ATOM      2  C   UNL     1      -1.274  12.659  22.971  0.00  0.00    +0.000 A 
ATOM      3  O   UNL     1      -1.295  11.356  23.421  0.00  0.00    +0.000 OA
ATOM      4  C   UNL     1      -0.581  10.589  22.563  0.00  0.00    +0.000 A 
ATOM      5  C   UNL     1      -0.398   9.214  22.678  0.00  0.00    +0.000 A 
ATOM      6  C   UNL     1       0.392   8.606  21.699  0.00  0.00    +0.000 A 
ATOM      7  C   UNL     1       0.958   9.352  20.663  0.00  0.00    +0.000 A 
ATOM      8  C   UNL     1       0.734  10.733  20.562  0.00  0.00    +0.000 A 
ATOM      9  C   UNL     1      -0.065  11.363  21.533  0.00  0.00    +0.000 A 
ENDROOT
BRANCH   2  10
ATOM     10  C   UNL     1      -2.106  13.664  23.563  0.00  0.00    +0.000 A 
ATOM     11  C   UNL     1      -1.547  14.521  24.428  0.00  0.00    +0.000 A 
ATOM     12  C   UNL     1      -2.267  15.664  25.003  0.00  0.00    +0.000 A 
ATOM     13  O   UNL     1      -1.728  16.406  25.818  0.00  0.00    +0.000 OA
ATOM     14  O   UNL     1      -3.563  15.885  24.559  0.00  0.00    +0.000 OA
ATOM     15  C   UNL     1      -4.203  14.968  23.705  0.00  0.00    +0.000 A 
ATOM     16  C   UNL     1      -5.527  15.247  23.354  0.00  0.00    +0.000 A 
ATOM     17  C   UNL     1      -6.178  14.342  22.533  0.00  0.00    +0.000 A 
ATOM     18  C   UNL     1      -5.550  13.163  22.127  0.00  0.00    +0.000 A 
ATOM     19  C   UNL     1      -4.237  12.889  22.481  0.00  0.00    +0.000 A 
ATOM     20  C   UNL     1      -3.533  13.827  23.249  0.00  0.00    +0.000 A 
ATOM     21  C   UNL     1      -6.476  12.296  21.339  0.00  0.00    +0.000 C 
ATOM     22  C   UNL     1      -7.576  13.293  20.950  0.00  0.00    +0.000 C 
ATOM     23  C   UNL     1      -7.572  14.419  21.997  0.00  0.00    +0.000 C 
ENDBRANCH   2  10
BRANCH   1  26
ATOM     24  C   UNL     1       0.796  14.665  21.225  0.00  0.00    +0.000 C 
ATOM     25  O   UNL     1       1.598  14.502  22.138  0.00  0.00    +0.000 OA
ATOM     26  N   UNL     1      -0.251  13.795  20.972  0.00  0.00    +0.000 N 
ATOM     27  H   UNL     1      -0.502  13.664  20.004  0.00  0.00    +0.000 HD
BRANCH  24  29
ATOM     28  C   UNL     1      -0.295  15.847  19.307  0.00  0.00    +0.000 C 
ATOM     29  C   UNL     1       0.905  15.877  20.274  0.00  0.00    +0.000 C 
ATOM     30  C   UNL     1       2.200  15.768  19.458  0.00  0.00    +0.000 C 
ATOM     31  C   UNL     1       0.875  17.211  21.033  0.00  0.00    +0.000 C 
ENDBRANCH  24  29
ENDBRANCH   1  26
TORSDOF 3
ENDMDL
MODEL 7
REMARK VINA RESULT:      -7.3      7.993     11.686
REMARK  Name = 
REMARK  6 active torsions:
REMARK  status: ('A' for Active; 'I' for Inactive)
REMARK    1  A    between atoms: C_1  and  C_2
REMARK    2  A    between atoms: C_2  and  C_3
REMARK    3  A    between atoms: C_2  and  C_4
REMARK    4  A    between atoms: C_2  and  C_5
REMARK    5  A    between atoms: N_7  and  C_8
REMARK    6  A    between atoms: C_9  and  C_10
REMARK                            x       y       z     vdW  Elec       q    Type
REMARK                         _______ _______ _______ _____ _____    ______ ____
ROOT
ATOM      1  C   UNL     1       0.300  12.179  19.508  0.00  0.00    +0.000 A 
ATOM      2  C   UNL     1      -0.707  12.685  18.672  0.00  0.00    +0.000 A 
ATOM      3  O   UNL     1      -0.340  13.960  18.296  0.00  0.00    +0.000 OA
ATOM      4  C   UNL     1       0.841  14.263  18.887  0.00  0.00    +0.000 A 
ATOM      5  C   UNL     1       1.513  15.475  18.760  0.00  0.00    +0.000 A 
ATOM      6  C   UNL     1       2.734  15.585  19.433  0.00  0.00    +0.000 A 
ATOM      7  C   UNL     1       3.236  14.526  20.193  0.00  0.00    +0.000 A 
ATOM      8  C   UNL     1       2.521  13.326  20.320  0.00  0.00    +0.000 A 
ATOM      9  C   UNL     1       1.287  13.198  19.657  0.00  0.00    +0.000 A 
ENDROOT
BRANCH   2  10
ATOM     10  C   UNL     1      -2.005  12.165  18.365  0.00  0.00    +0.000 A 
ATOM     11  C   UNL     1      -2.150  11.441  17.246  0.00  0.00    +0.000 A 
ATOM     12  C   UNL     1      -3.399  10.757  16.890  0.00  0.00    +0.000 A 
ATOM     13  O   UNL     1      -3.500  10.132  15.839  0.00  0.00    +0.000 OA
ATOM     14  O   UNL     1      -4.439  10.819  17.805  0.00  0.00    +0.000 OA
ATOM     15  C   UNL     1      -4.346  11.623  18.956  0.00  0.00    +0.000 A 
ATOM     16  C   UNL     1      -5.464  11.665  19.792  0.00  0.00    +0.000 A 
ATOM     17  C   UNL     1      -5.396  12.471  20.916  0.00  0.00    +0.000 A 
ATOM     18  C   UNL     1      -4.272  13.261  21.164  0.00  0.00    +0.000 A 
ATOM     19  C   UNL     1      -3.166  13.219  20.328  0.00  0.00    +0.000 A 
ATOM     20  C   UNL     1      -3.182  12.353  19.226  0.00  0.00    +0.000 A 
ATOM     21  C   UNL     1      -4.466  14.122  22.369  0.00  0.00    +0.000 C 
ATOM     22  C   UNL     1      -5.649  13.429  23.057  0.00  0.00    +0.000 C 
ATOM     23  C   UNL     1      -6.435  12.670  21.974  0.00  0.00    +0.000 C 
ENDBRANCH   2  10
BRANCH   1  26
ATOM     24  C   UNL     1       0.095  10.859  21.534  0.00  0.00    +0.000 C 
ATOM     25  O   UNL     1      -0.197  11.826  22.228  0.00  0.00    +0.000 OA
ATOM     26  N   UNL     1       0.323  10.947  20.171  0.00  0.00    +0.000 N 
ATOM     27  H   UNL     1       0.031  10.157  19.615  0.00  0.00    +0.000 HD
BRANCH  24  29
ATOM     28  C   UNL     1      -0.279   9.498  23.601  0.00  0.00    +0.000 C 
ATOM     29  C   UNL     1       0.229   9.448  22.146  0.00  0.00    +0.000 C 
ATOM     30  C   UNL     1       1.707   9.036  22.154  0.00  0.00    +0.000 C 
ATOM     31  C   UNL     1      -0.601   8.406  21.384  0.00  0.00    +0.000 C 
ENDBRANCH  24  29
ENDBRANCH   1  26
TORSDOF 3
ENDMDL
MODEL 8
REMARK VINA RESULT:      -7.3      7.686     10.866
REMARK  Name = 
REMARK  6 active torsions:
REMARK  status: ('A' for Active; 'I' for Inactive)
REMARK    1  A    between atoms: C_1  and  C_2
REMARK    2  A    between atoms: C_2  and  C_3
REMARK    3  A    between atoms: C_2  and  C_4
REMARK    4  A    between atoms: C_2  and  C_5
REMARK    5  A    between atoms: N_7  and  C_8
REMARK    6  A    between atoms: C_9  and  C_10
REMARK                            x       y       z     vdW  Elec       q    Type
REMARK                         _______ _______ _______ _____ _____    ______ ____
ROOT
ATOM      1  C   UNL     1      -3.481  12.882  20.097  0.00  0.00    +0.000 A 
ATOM      2  C   UNL     1      -2.611  12.126  19.298  0.00  0.00    +0.000 A 
ATOM      3  O   UNL     1      -3.376  11.413  18.401  0.00  0.00    +0.000 OA
ATOM      4  C   UNL     1      -4.682  11.684  18.632  0.00  0.00    +0.000 A 
ATOM      5  C   UNL     1      -5.753  11.129  17.937  0.00  0.00    +0.000 A 
ATOM      6  C   UNL     1      -7.030  11.556  18.313  0.00  0.00    +0.000 A 
ATOM      7  C   UNL     1      -7.205  12.488  19.338  0.00  0.00    +0.000 A 
ATOM      8  C   UNL     1      -6.106  13.010  20.036  0.00  0.00    +0.000 A 
ATOM      9  C   UNL     1      -4.813  12.587  19.678  0.00  0.00    +0.000 A 
ENDROOT
BRANCH   2  10
ATOM     10  C   UNL     1      -1.204  11.890  19.428  0.00  0.00    +0.000 A 
ATOM     11  C   UNL     1      -0.791  10.644  19.697  0.00  0.00    +0.000 A 
ATOM     12  C   UNL     1       0.624  10.258  19.732  0.00  0.00    +0.000 A 
ATOM     13  O   UNL     1       0.961   9.113  20.017  0.00  0.00    +0.000 OA
ATOM     14  O   UNL     1       1.555  11.230  19.396  0.00  0.00    +0.000 OA
ATOM     15  C   UNL     1       1.164  12.563  19.174  0.00  0.00    +0.000 A 
ATOM     16  C   UNL     1       2.177  13.483  18.894  0.00  0.00    +0.000 A 
ATOM     17  C   UNL     1       1.810  14.803  18.695  0.00  0.00    +0.000 A 
ATOM     18  C   UNL     1       0.481  15.205  18.837  0.00  0.00    +0.000 A 
ATOM     19  C   UNL     1      -0.521  14.289  19.118  0.00  0.00    +0.000 A 
ATOM     20  C   UNL     1      -0.184  12.934  19.248  0.00  0.00    +0.000 A 
ATOM     21  C   UNL     1       0.340  16.684  18.682  0.00  0.00    +0.000 C 
ATOM     22  C   UNL     1       1.663  17.050  17.996  0.00  0.00    +0.000 C 
ATOM     23  C   UNL     1       2.690  15.966  18.361  0.00  0.00    +0.000 C 
ENDBRANCH   2  10
BRANCH   1  26
ATOM     24  C   UNL     1      -3.163  13.231  22.477  0.00  0.00    +0.000 C 
ATOM     25  O   UNL     1      -3.396  12.062  22.760  0.00  0.00    +0.000 OA
ATOM     26  N   UNL     1      -3.153  13.709  21.178  0.00  0.00    +0.000 N 
ATOM     27  H   UNL     1      -2.484  14.435  20.972  0.00  0.00    +0.000 HD
BRANCH  24  29
ATOM     28  C   UNL     1      -3.594  13.853  24.863  0.00  0.00    +0.000 C 
ATOM     29  C   UNL     1      -2.856  14.272  23.576  0.00  0.00    +0.000 C 
ATOM     30  C   UNL     1      -3.377  15.646  23.133  0.00  0.00    +0.000 C 
ATOM     31  C   UNL     1      -1.356  14.357  23.890  0.00  0.00    +0.000 C 
ENDBRANCH  24  29
ENDBRANCH   1  26
TORSDOF 3
ENDMDL
MODEL 9
REMARK VINA RESULT:      -7.2      8.957     11.379
REMARK  Name = 
REMARK  6 active torsions:
REMARK  status: ('A' for Active; 'I' for Inactive)
REMARK    1  A    between atoms: C_1  and  C_2
REMARK    2  A    between atoms: C_2  and  C_3
REMARK    3  A    between atoms: C_2  and  C_4
REMARK    4  A    between atoms: C_2  and  C_5
REMARK    5  A    between atoms: N_7  and  C_8
REMARK    6  A    between atoms: C_9  and  C_10
REMARK                            x       y       z     vdW  Elec       q    Type
REMARK                         _______ _______ _______ _____ _____    ______ ____
ROOT
ATOM      1  C   UNL     1      -3.733  13.165  20.356  0.00  0.00    +0.000 A 
ATOM      2  C   UNL     1      -2.629  12.479  19.828  0.00  0.00    +0.000 A 
ATOM      3  O   UNL     1      -3.095  11.611  18.865  0.00  0.00    +0.000 OA
ATOM      4  C   UNL     1      -4.443  11.721  18.797  0.00  0.00    +0.000 A 
ATOM      5  C   UNL     1      -5.267  10.982  17.953  0.00  0.00    +0.000 A 
ATOM      6  C   UNL     1      -6.636  11.259  18.017  0.00  0.00    +0.000 A 
ATOM      7  C   UNL     1      -7.135  12.227  18.891  0.00  0.00    +0.000 A 
ATOM      8  C   UNL     1      -6.280  12.938  19.746  0.00  0.00    +0.000 A 
ATOM      9  C   UNL     1      -4.900  12.667  19.703  0.00  0.00    +0.000 A 
ENDROOT
BRANCH   2  10
ATOM     10  C   UNL     1      -1.265  12.443  20.265  0.00  0.00    +0.000 A 
ATOM     11  C   UNL     1      -0.851  11.378  20.964  0.00  0.00    +0.000 A 
ATOM     12  C   UNL     1       0.547  11.171  21.359  0.00  0.00    +0.000 A 
ATOM     13  O   UNL     1       0.878  10.198  22.029  0.00  0.00    +0.000 OA
ATOM     14  O   UNL     1       1.475  12.101  20.914  0.00  0.00    +0.000 OA
ATOM     15  C   UNL     1       1.068  13.265  20.237  0.00  0.00    +0.000 A 
ATOM     16  C   UNL     1       2.068  14.170  19.874  0.00  0.00    +0.000 A 
ATOM     17  C   UNL     1       1.681  15.332  19.227  0.00  0.00    +0.000 A 
ATOM     18  C   UNL     1       0.331  15.612  19.007  0.00  0.00    +0.000 A 
ATOM     19  C   UNL     1      -0.659  14.712  19.372  0.00  0.00    +0.000 A 
ATOM     20  C   UNL     1      -0.285  13.495  19.960  0.00  0.00    +0.000 A 
ATOM     21  C   UNL     1       0.148  16.962  18.393  0.00  0.00    +0.000 C 
ATOM     22  C   UNL     1       1.560  17.256  17.869  0.00  0.00    +0.000 C 
ATOM     23  C   UNL     1       2.549  16.438  18.717  0.00  0.00    +0.000 C 
ENDBRANCH   2  10
BRANCH   1  26
ATOM     24  C   UNL     1      -3.942  13.711  22.712  0.00  0.00    +0.000 C 
ATOM     25  O   UNL     1      -4.061  12.539  23.053  0.00  0.00    +0.000 OA
ATOM     26  N   UNL     1      -3.743  14.100  21.398  0.00  0.00    +0.000 N 
ATOM     27  H   UNL     1      -3.155  14.907  21.253  0.00  0.00    +0.000 HD
BRANCH  24  29
ATOM     28  C   UNL     1      -3.182  16.042  23.214  0.00  0.00    +0.000 C 
ATOM     29  C   UNL     1      -4.007  14.854  23.747  0.00  0.00    +0.000 C 
ATOM     30  C   UNL     1      -3.389  14.378  25.069  0.00  0.00    +0.000 C 
ATOM     31  C   UNL     1      -5.444  15.337  23.986  0.00  0.00    +0.000 C 
ENDBRANCH  24  29
ENDBRANCH   1  26
TORSDOF 3
ENDMDL
