MODEL 1
REMARK VINA RESULT:      -7.5      0.000      0.000
REMARK  Name = 
REMARK  7 active torsions:
REMARK  status: ('A' for Active; 'I' for Inactive)
REMARK    1  A    between atoms: C_1  and  C_2
REMARK    2  A    between atoms: C_2  and  C_3
REMARK    3  A    between atoms: C_3  and  N_4
REMARK    4  A    between atoms: C_5  and  C_7
REMARK    5  A    between atoms: C_8  and  N_9
REMARK    6  A    between atoms: N_9  and  O_10
REMARK    7  A    between atoms: C_12  and  C_13
REMARK                            x       y       z     vdW  Elec       q    Type
REMARK                         _______ _______ _______ _____ _____    ______ ____
ROOT
ATOM      1  C   UNL     1       4.378   4.191  18.229  0.00  0.00    +0.000 A 
ATOM      2  C   UNL     1       5.696   4.496  18.150  0.00  0.00    +0.000 A 
ATOM      3  C   UNL     1       6.318   4.516  16.845  0.00  0.00    +0.000 A 
ATOM      4  C   UNL     1       5.615   4.295  15.733  0.00  0.00    +0.000 A 
ATOM      5  O   UNL     1       4.250   3.965  15.793  0.00  0.00    +0.000 OA
ATOM      6  C   UNL     1       3.621   3.850  17.000  0.00  0.00    +0.000 A 
ATOM      7  O   UNL     1       2.456   3.460  17.058  0.00  0.00    +0.000 OA
ENDROOT
BRANCH   4   8
ATOM      8  C   UNL     1       6.211   4.326  14.384  0.00  0.00    +0.000 A 
ATOM      9  C   UNL     1       5.704   3.512  13.364  0.00  0.00    +0.000 A 
ATOM     10  C   UNL     1       6.284   3.508  12.095  0.00  0.00    +0.000 A 
ATOM     11  C   UNL     1       7.381   4.318  11.824  0.00  0.00    +0.000 A 
ATOM     12  C   UNL     1       7.893   5.151  12.815  0.00  0.00    +0.000 A 
ATOM     13  C   UNL     1       7.305   5.159  14.082  0.00  0.00    +0.000 A 
ENDBRANCH   4   8
BRANCH   1  15
ATOM     14  N   UNL     1       3.371   2.910  20.042  0.00  0.00    +0.000 N 
ATOM     15  C   UNL     1       3.735   4.154  19.583  0.00  0.00    +0.000 C 
ATOM     16  O   UNL     1       3.564   5.178  20.240  0.00  0.00    +0.000 OA
ATOM     17  H   UNL     1       3.403   2.121  19.399  0.00  0.00    +0.000 HD
BRANCH  14  18
ATOM     18  C   UNL     1       2.736   2.708  21.329  0.00  0.00    +0.000 C 
BRANCH  18  20
ATOM     19  C   UNL     1       0.680   2.834  19.849  0.00  0.00    +0.000 C 
ATOM     20  C   UNL     1       1.221   2.882  21.272  0.00  0.00    +0.000 C 
ENDBRANCH  18  20
ENDBRANCH  14  18
ENDBRANCH   1  15
BRANCH   2  21
ATOM     21  N   UNL     1       6.519   4.774  19.235  0.00  0.00    +0.000 N 
ATOM     22  H   UNL     1       6.019   5.152  20.054  0.00  0.00    +0.000 HD
BRANCH  21  23
ATOM     23  O   UNL     1       7.819   5.241  19.067  0.00  0.00    +0.000 OA
ATOM     24  H   UNL     1       8.141   4.714  18.309  0.00  0.00    +0.000 HD
ENDBRANCH  21  23
ENDBRANCH   2  21
TORSDOF 6
ENDMDL
MODEL 2
REMARK VINA RESULT:      -7.4      3.359      7.091
REMARK  Name = 
REMARK  7 active torsions:
REMARK  status: ('A' for Active; 'I' for Inactive)
REMARK    1  A    between atoms: C_1  and  C_2
REMARK    2  A    between atoms: C_2  and  C_3
REMARK    3  A    between atoms: C_3  and  N_4
REMARK    4  A    between atoms: C_5  and  C_7
REMARK    5  A    between atoms: C_8  and  N_9
REMARK    6  A    between atoms: N_9  and  O_10
REMARK    7  A    between atoms: C_12  and  C_13
REMARK                            x       y       z     vdW  Elec       q    Type
REMARK                         _______ _______ _______ _____ _____    ______ ____
ROOT
ATOM      1  C   UNL     1       6.138   6.324  17.826  0.00  0.00    +0.000 A 
ATOM      2  C   UNL     1       5.080   6.197  16.991  0.00  0.00    +0.000 A 
ATOM      3  C   UNL     1       3.959   5.392  17.422  0.00  0.00    +0.000 A 
ATOM      4  C   UNL     1       3.929   4.825  18.629  0.00  0.00    +0.000 A 
ATOM      5  O   UNL     1       5.023   4.934  19.507  0.00  0.00    +0.000 OA
ATOM      6  C   UNL     1       6.145   5.613  19.128  0.00  0.00    +0.000 A 
ATOM      7  O   UNL     1       7.140   5.620  19.852  0.00  0.00    +0.000 OA
ENDROOT
BRANCH   4   8
ATOM      8  C   UNL     1       2.796   4.013  19.111  0.00  0.00    +0.000 A 
ATOM      9  C   UNL     1       2.029   3.261  18.214  0.00  0.00    +0.000 A 
ATOM     10  C   UNL     1       0.933   2.519  18.656  0.00  0.00    +0.000 A 
ATOM     11  C   UNL     1       0.586   2.516  20.003  0.00  0.00    +0.000 A 
ATOM     12  C   UNL     1       1.344   3.241  20.919  0.00  0.00    +0.000 A 
ATOM     13  C   UNL     1       2.445   3.976  20.474  0.00  0.00    +0.000 A 
ENDBRANCH   4   8
BRANCH   1  15
ATOM     14  N   UNL     1       7.596   8.253  18.134  0.00  0.00    +0.000 N 
ATOM     15  C   UNL     1       7.309   7.144  17.374  0.00  0.00    +0.000 C 
ATOM     16  O   UNL     1       7.975   6.825  16.391  0.00  0.00    +0.000 OA
ATOM     17  H   UNL     1       6.928   8.548  18.844  0.00  0.00    +0.000 HD
BRANCH  14  18
ATOM     18  C   UNL     1       8.694   9.148  17.826  0.00  0.00    +0.000 C 
BRANCH  18  20
ATOM     19  C   UNL     1      10.018  11.163  18.616  0.00  0.00    +0.000 C 
ATOM     20  C   UNL     1       9.089  10.024  19.013  0.00  0.00    +0.000 C 
ENDBRANCH  18  20
ENDBRANCH  14  18
ENDBRANCH   1  15
BRANCH   2  21
ATOM     21  N   UNL     1       4.986   6.764  15.725  0.00  0.00    +0.000 N 
ATOM     22  H   UNL     1       4.084   7.232  15.542  0.00  0.00    +0.000 HD
BRANCH  21  23
ATOM     23  O   UNL     1       5.586   6.181  14.614  0.00  0.00    +0.000 OA
ATOM     24  H   UNL     1       5.762   6.950  14.036  0.00  0.00    +0.000 HD
ENDBRANCH  21  23
ENDBRANCH   2  21
TORSDOF 6
ENDMDL
MODEL 3
REMARK VINA RESULT:      -7.4      3.306      6.855
REMARK  Name = 
REMARK  7 active torsions:
REMARK  status: ('A' for Active; 'I' for Inactive)
REMARK    1  A    between atoms: C_1  and  C_2
REMARK    2  A    between atoms: C_2  and  C_3
REMARK    3  A    between atoms: C_3  and  N_4
REMARK    4  A    between atoms: C_5  and  C_7
REMARK    5  A    between atoms: C_8  and  N_9
REMARK    6  A    between atoms: N_9  and  O_10
REMARK    7  A    between atoms: C_12  and  C_13
REMARK                            x       y       z     vdW  Elec       q    Type
REMARK                         _______ _______ _______ _____ _____    ______ ____
ROOT
ATOM      1  C   UNL     1       6.013   6.335  17.800  0.00  0.00    +0.000 A 
ATOM      2  C   UNL     1       6.274   5.350  18.692  0.00  0.00    +0.000 A 
ATOM      3  C   UNL     1       5.169   4.557  19.182  0.00  0.00    +0.000 A 
ATOM      4  C   UNL     1       3.925   4.743  18.737  0.00  0.00    +0.000 A 
ATOM      5  O   UNL     1       3.629   5.767  17.820  0.00  0.00    +0.000 OA
ATOM      6  C   UNL     1       4.616   6.603  17.380  0.00  0.00    +0.000 A 
ATOM      7  O   UNL     1       4.340   7.563  16.661  0.00  0.00    +0.000 OA
ENDROOT
BRANCH   4   8
ATOM      8  C   UNL     1       2.776   3.941  19.199  0.00  0.00    +0.000 A 
ATOM      9  C   UNL     1       2.008   3.209  18.287  0.00  0.00    +0.000 A 
ATOM     10  C   UNL     1       0.897   2.478  18.710  0.00  0.00    +0.000 A 
ATOM     11  C   UNL     1       0.537   2.464  20.053  0.00  0.00    +0.000 A 
ATOM     12  C   UNL     1       1.297   3.168  20.984  0.00  0.00    +0.000 A 
ATOM     13  C   UNL     1       2.412   3.893  20.558  0.00  0.00    +0.000 A 
ENDBRANCH   4   8
BRANCH   1  15
ATOM     14  N   UNL     1       7.331   8.381  17.928  0.00  0.00    +0.000 N 
ATOM     15  C   UNL     1       7.155   7.169  17.303  0.00  0.00    +0.000 C 
ATOM     16  O   UNL     1       7.893   6.775  16.403  0.00  0.00    +0.000 OA
ATOM     17  H   UNL     1       6.608   8.717  18.561  0.00  0.00    +0.000 HD
BRANCH  14  18
ATOM     18  C   UNL     1       8.389   9.302  17.561  0.00  0.00    +0.000 C 
BRANCH  18  20
ATOM     19  C   UNL     1       9.524  11.384  18.463  0.00  0.00    +0.000 C 
ATOM     20  C   UNL     1       9.026   9.979  18.772  0.00  0.00    +0.000 C 
ENDBRANCH  18  20
ENDBRANCH  14  18
ENDBRANCH   1  15
BRANCH   2  21
ATOM     21  N   UNL     1       7.531   5.046  19.203  0.00  0.00    +0.000 N 
ATOM     22  H   UNL     1       7.877   4.112  18.933  0.00  0.00    +0.000 HD
BRANCH  21  23
ATOM     23  O   UNL     1       7.939   5.488  20.457  0.00  0.00    +0.000 OA
ATOM     24  H   UNL     1       8.914   5.441  20.395  0.00  0.00    +0.000 HD
ENDBRANCH  21  23
ENDBRANCH   2  21
TORSDOF 6
ENDMDL
MODEL 4
REMARK VINA RESULT:      -7.4      3.354      7.127
REMARK  Name = 
REMARK  7 active torsions:
REMARK  status: ('A' for Active; 'I' for Inactive)
REMARK    1  A    between atoms: C_1  and  C_2
REMARK    2  A    between atoms: C_2  and  C_3
REMARK    3  A    between atoms: C_3  and  N_4
REMARK    4  A    between atoms: C_5  and  C_7
REMARK    5  A    between atoms: C_8  and  N_9
REMARK    6  A    between atoms: N_9  and  O_10
REMARK    7  A    between atoms: C_12  and  C_13
REMARK                            x       y       z     vdW  Elec       q    Type
REMARK                         _______ _______ _______ _____ _____    ______ ____
ROOT
ATOM      1  C   UNL     1       6.104   6.313  17.812  0.00  0.00    +0.000 A 
ATOM      2  C   UNL     1       5.047   6.199  16.973  0.00  0.00    +0.000 A 
ATOM      3  C   UNL     1       3.915   5.408  17.400  0.00  0.00    +0.000 A 
ATOM      4  C   UNL     1       3.873   4.843  18.608  0.00  0.00    +0.000 A 
ATOM      5  O   UNL     1       4.964   4.939  19.490  0.00  0.00    +0.000 OA
ATOM      6  C   UNL     1       6.096   5.604  19.115  0.00  0.00    +0.000 A 
ATOM      7  O   UNL     1       7.088   5.599  19.843  0.00  0.00    +0.000 OA
ENDROOT
BRANCH   4   8
ATOM      8  C   UNL     1       2.728   4.045  19.086  0.00  0.00    +0.000 A 
ATOM      9  C   UNL     1       2.371   4.055  20.439  0.00  0.00    +0.000 A 
ATOM     10  C   UNL     1       1.311   3.275  20.906  0.00  0.00    +0.000 A 
ATOM     11  C   UNL     1       0.591   2.474  20.027  0.00  0.00    +0.000 A 
ATOM     12  C   UNL     1       0.913   2.461  18.672  0.00  0.00    +0.000 A 
ATOM     13  C   UNL     1       1.969   3.249  18.207  0.00  0.00    +0.000 A 
ENDBRANCH   4   8
BRANCH   1  15
ATOM     14  N   UNL     1       7.579   8.229  18.121  0.00  0.00    +0.000 N 
ATOM     15  C   UNL     1       7.286   7.120  17.364  0.00  0.00    +0.000 C 
ATOM     16  O   UNL     1       7.956   6.788  16.389  0.00  0.00    +0.000 OA
ATOM     17  H   UNL     1       6.910   8.534  18.825  0.00  0.00    +0.000 HD
BRANCH  14  18
ATOM     18  C   UNL     1       8.689   9.111  17.817  0.00  0.00    +0.000 C 
BRANCH  18  20
ATOM     19  C   UNL     1       9.730  11.291  18.591  0.00  0.00    +0.000 C 
ATOM     20  C   UNL     1       9.103   9.969  19.010  0.00  0.00    +0.000 C 
ENDBRANCH  18  20
ENDBRANCH  14  18
ENDBRANCH   1  15
BRANCH   2  21
ATOM     21  N   UNL     1       4.965   6.767  15.707  0.00  0.00    +0.000 N 
ATOM     22  H   UNL     1       4.077   7.261  15.527  0.00  0.00    +0.000 HD
BRANCH  21  23
ATOM     23  O   UNL     1       5.542   6.162  14.594  0.00  0.00    +0.000 OA
ATOM     24  H   UNL     1       5.344   6.798  13.877  0.00  0.00    +0.000 HD
ENDBRANCH  21  23
ENDBRANCH   2  21
TORSDOF 6
ENDMDL
MODEL 5
REMARK VINA RESULT:      -7.3      3.332      6.918
REMARK  Name = 
REMARK  7 active torsions:
REMARK  status: ('A' for Active; 'I' for Inactive)
REMARK    1  A    between atoms: C_1  and  C_2
REMARK    2  A    between atoms: C_2  and  C_3
REMARK    3  A    between atoms: C_3  and  N_4
REMARK    4  A    between atoms: C_5  and  C_7
REMARK    5  A    between atoms: C_8  and  N_9
REMARK    6  A    between atoms: N_9  and  O_10
REMARK    7  A    between atoms: C_12  and  C_13
REMARK                            x       y       z     vdW  Elec       q    Type
REMARK                         _______ _______ _______ _____ _____    ______ ____
ROOT
ATOM      1  C   UNL     1       5.998   6.389  17.796  0.00  0.00    +0.000 A 
ATOM      2  C   UNL     1       6.241   5.392  18.680  0.00  0.00    +0.000 A 
ATOM      3  C   UNL     1       5.123   4.608  19.155  0.00  0.00    +0.000 A 
ATOM      4  C   UNL     1       3.884   4.813  18.703  0.00  0.00    +0.000 A 
ATOM      5  O   UNL     1       3.607   5.850  17.794  0.00  0.00    +0.000 OA
ATOM      6  C   UNL     1       4.607   6.678  17.369  0.00  0.00    +0.000 A 
ATOM      7  O   UNL     1       4.348   7.648  16.658  0.00  0.00    +0.000 OA
ENDROOT
BRANCH   4   8
ATOM      8  C   UNL     1       2.722   4.021  19.149  0.00  0.00    +0.000 A 
ATOM      9  C   UNL     1       2.283   4.091  20.476  0.00  0.00    +0.000 A 
ATOM     10  C   UNL     1       1.207   3.317  20.916  0.00  0.00    +0.000 A 
ATOM     11  C   UNL     1       0.552   2.464  20.036  0.00  0.00    +0.000 A 
ATOM     12  C   UNL     1       0.957   2.391  18.705  0.00  0.00    +0.000 A 
ATOM     13  C   UNL     1       2.029   3.172  18.266  0.00  0.00    +0.000 A 
ENDBRANCH   4   8
BRANCH   1  15
ATOM     14  N   UNL     1       7.324   8.429  17.934  0.00  0.00    +0.000 N 
ATOM     15  C   UNL     1       7.154   7.214  17.315  0.00  0.00    +0.000 C 
ATOM     16  O   UNL     1       7.907   6.809  16.432  0.00  0.00    +0.000 OA
ATOM     17  H   UNL     1       6.590   8.773  18.551  0.00  0.00    +0.000 HD
BRANCH  14  18
ATOM     18  C   UNL     1       8.392   9.343  17.581  0.00  0.00    +0.000 C 
BRANCH  18  20
ATOM     19  C   UNL     1       9.872  11.219  18.433  0.00  0.00    +0.000 C 
ATOM     20  C   UNL     1       9.023  10.010  18.801  0.00  0.00    +0.000 C 
ENDBRANCH  18  20
ENDBRANCH  14  18
ENDBRANCH   1  15
BRANCH   2  21
ATOM     21  N   UNL     1       7.490   5.068  19.196  0.00  0.00    +0.000 N 
ATOM     22  H   UNL     1       7.821   4.127  18.930  0.00  0.00    +0.000 HD
BRANCH  21  23
ATOM     23  O   UNL     1       7.901   5.506  20.451  0.00  0.00    +0.000 OA
ATOM     24  H   UNL     1       7.932   4.677  20.969  0.00  0.00    +0.000 HD
ENDBRANCH  21  23
ENDBRANCH   2  21
TORSDOF 6
ENDMDL
MODEL 6
REMARK VINA RESULT:      -7.3      3.481      6.957
REMARK  Name = 
REMARK  7 active torsions:
REMARK  status: ('A' for Active; 'I' for Inactive)
REMARK    1  A    between atoms: C_1  and  C_2
REMARK    2  A    between atoms: C_2  and  C_3
REMARK    3  A    between atoms: C_3  and  N_4
REMARK    4  A    between atoms: C_5  and  C_7
REMARK    5  A    between atoms: C_8  and  N_9
REMARK    6  A    between atoms: N_9  and  O_10
REMARK    7  A    between atoms: C_12  and  C_13
REMARK                            x       y       z     vdW  Elec       q    Type
REMARK                         _______ _______ _______ _____ _____    ______ ____
ROOT
ATOM      1  C   UNL     1       4.909   5.248  16.632  0.00  0.00    +0.000 A 
ATOM      2  C   UNL     1       4.323   4.722  17.734  0.00  0.00    +0.000 A 
ATOM      3  C   UNL     1       3.462   5.572  18.525  0.00  0.00    +0.000 A 
ATOM      4  C   UNL     1       3.201   6.830  18.164  0.00  0.00    +0.000 A 
ATOM      5  O   UNL     1       3.808   7.400  17.031  0.00  0.00    +0.000 OA
ATOM      6  C   UNL     1       4.694   6.674  16.287  0.00  0.00    +0.000 A 
ATOM      7  O   UNL     1       5.304   7.204  15.359  0.00  0.00    +0.000 OA
ENDROOT
BRANCH   4   8
ATOM      8  C   UNL     1       2.313   7.721  18.936  0.00  0.00    +0.000 A 
ATOM      9  C   UNL     1       1.961   7.406  20.253  0.00  0.00    +0.000 A 
ATOM     10  C   UNL     1       1.093   8.225  20.977  0.00  0.00    +0.000 A 
ATOM     11  C   UNL     1       0.565   9.373  20.397  0.00  0.00    +0.000 A 
ATOM     12  C   UNL     1       0.916   9.719  19.095  0.00  0.00    +0.000 A 
ATOM     13  C   UNL     1       1.790   8.902  18.375  0.00  0.00    +0.000 A 
ENDBRANCH   4   8
BRANCH   1  15
ATOM     14  N   UNL     1       5.491   4.241  14.490  0.00  0.00    +0.000 N 
ATOM     15  C   UNL     1       5.815   4.372  15.819  0.00  0.00    +0.000 C 
ATOM     16  O   UNL     1       6.795   3.824  16.319  0.00  0.00    +0.000 OA
ATOM     17  H   UNL     1       4.594   4.596  14.166  0.00  0.00    +0.000 HD
BRANCH  14  18
ATOM     18  C   UNL     1       6.267   3.428  13.573  0.00  0.00    +0.000 C 
BRANCH  18  20
ATOM     19  C   UNL     1       4.589   3.180  11.687  0.00  0.00    +0.000 C 
ATOM     20  C   UNL     1       5.946   3.723  12.110  0.00  0.00    +0.000 C 
ENDBRANCH  18  20
ENDBRANCH  14  18
ENDBRANCH   1  15
BRANCH   2  21
ATOM     21  N   UNL     1       4.497   3.420  18.189  0.00  0.00    +0.000 N 
ATOM     22  H   UNL     1       3.617   2.892  18.293  0.00  0.00    +0.000 HD
BRANCH  21  23
ATOM     23  O   UNL     1       5.496   3.090  19.100  0.00  0.00    +0.000 OA
ATOM     24  H   UNL     1       5.859   2.261  18.730  0.00  0.00    +0.000 HD
ENDBRANCH  21  23
ENDBRANCH   2  21
TORSDOF 6
ENDMDL
MODEL 7
REMARK VINA RESULT:      -7.3      3.448      7.107
REMARK  Name = 
REMARK  7 active torsions:
REMARK  status: ('A' for Active; 'I' for Inactive)
REMARK    1  A    between atoms: C_1  and  C_2
REMARK    2  A    between atoms: C_2  and  C_3
REMARK    3  A    between atoms: C_3  and  N_4
REMARK    4  A    between atoms: C_5  and  C_7
REMARK    5  A    between atoms: C_8  and  N_9
REMARK    6  A    between atoms: N_9  and  O_10
REMARK    7  A    between atoms: C_12  and  C_13
REMARK                            x       y       z     vdW  Elec       q    Type
REMARK                         _______ _______ _______ _____ _____    ______ ____
ROOT
ATOM      1  C   UNL     1       4.767   5.148  16.512  0.00  0.00    +0.000 A 
ATOM      2  C   UNL     1       3.796   4.557  17.249  0.00  0.00    +0.000 A 
ATOM      3  C   UNL     1       2.965   5.394  18.086  0.00  0.00    +0.000 A 
ATOM      4  C   UNL     1       3.103   6.721  18.102  0.00  0.00    +0.000 A 
ATOM      5  O   UNL     1       4.111   7.354  17.353  0.00  0.00    +0.000 OA
ATOM      6  C   UNL     1       4.981   6.613  16.606  0.00  0.00    +0.000 A 
ATOM      7  O   UNL     1       5.926   7.156  16.035  0.00  0.00    +0.000 OA
ENDROOT
BRANCH   4   8
ATOM      8  C   UNL     1       2.261   7.609  18.927  0.00  0.00    +0.000 A 
ATOM      9  C   UNL     1       1.730   8.786  18.389  0.00  0.00    +0.000 A 
ATOM     10  C   UNL     1       0.963   9.650  19.173  0.00  0.00    +0.000 A 
ATOM     11  C   UNL     1       0.713   9.349  20.507  0.00  0.00    +0.000 A 
ATOM     12  C   UNL     1       1.214   8.174  21.061  0.00  0.00    +0.000 A 
ATOM     13  C   UNL     1       1.974   7.308  20.272  0.00  0.00    +0.000 A 
ENDBRANCH   4   8
BRANCH   1  15
ATOM     14  N   UNL     1       5.478   4.416  14.298  0.00  0.00    +0.000 N 
ATOM     15  C   UNL     1       5.641   4.280  15.656  0.00  0.00    +0.000 C 
ATOM     16  O   UNL     1       6.461   3.511  16.151  0.00  0.00    +0.000 OA
ATOM     17  H   UNL     1       4.689   4.957  13.949  0.00  0.00    +0.000 HD
BRANCH  14  18
ATOM     18  C   UNL     1       6.246   3.647  13.339  0.00  0.00    +0.000 C 
BRANCH  18  20
ATOM     19  C   UNL     1       5.724   1.993  11.487  0.00  0.00    +0.000 C 
ATOM     20  C   UNL     1       5.480   3.389  12.044  0.00  0.00    +0.000 C 
ENDBRANCH  18  20
ENDBRANCH  14  18
ENDBRANCH   1  15
BRANCH   2  21
ATOM     21  N   UNL     1       3.541   3.192  17.289  0.00  0.00    +0.000 N 
ATOM     22  H   UNL     1       2.538   2.952  17.255  0.00  0.00    +0.000 HD
BRANCH  21  23
ATOM     23  O   UNL     1       4.332   2.320  18.031  0.00  0.00    +0.000 OA
ATOM     24  H   UNL     1       3.767   1.525  18.104  0.00  0.00    +0.000 HD
ENDBRANCH  21  23
ENDBRANCH   2  21
TORSDOF 6
ENDMDL
MODEL 8
REMARK VINA RESULT:      -7.2      0.403      1.125
REMARK  Name = 
REMARK  7 active torsions:
REMARK  status: ('A' for Active; 'I' for Inactive)
REMARK    1  A    between atoms: C_1  and  C_2
REMARK    2  A    between atoms: C_2  and  C_3
REMARK    3  A    between atoms: C_3  and  N_4
REMARK    4  A    between atoms: C_5  and  C_7
REMARK    5  A    between atoms: C_8  and  N_9
REMARK    6  A    between atoms: N_9  and  O_10
REMARK    7  A    between atoms: C_12  and  C_13
REMARK                            x       y       z     vdW  Elec       q    Type
REMARK                         _______ _______ _______ _____ _____    ______ ____
ROOT
ATOM      1  C   UNL     1       4.340   4.327  18.273  0.00  0.00    +0.000 A 
ATOM      2  C   UNL     1       5.519   4.982  18.156  0.00  0.00    +0.000 A 
ATOM      3  C   UNL     1       6.176   4.986  16.868  0.00  0.00    +0.000 A 
ATOM      4  C   UNL     1       5.622   4.411  15.800  0.00  0.00    +0.000 A 
ATOM      5  O   UNL     1       4.404   3.716  15.901  0.00  0.00    +0.000 OA
ATOM      6  C   UNL     1       3.773   3.605  17.108  0.00  0.00    +0.000 A 
ATOM      7  O   UNL     1       2.764   2.910  17.218  0.00  0.00    +0.000 OA
ENDROOT
BRANCH   4   8
ATOM      8  C   UNL     1       6.253   4.412  14.466  0.00  0.00    +0.000 A 
ATOM      9  C   UNL     1       7.342   5.249  14.195  0.00  0.00    +0.000 A 
ATOM     10  C   UNL     1       7.921   5.283  12.926  0.00  0.00    +0.000 A 
ATOM     11  C   UNL     1       7.423   4.479  11.907  0.00  0.00    +0.000 A 
ATOM     12  C   UNL     1       6.354   3.622  12.155  0.00  0.00    +0.000 A 
ATOM     13  C   UNL     1       5.781   3.585  13.429  0.00  0.00    +0.000 A 
ENDBRANCH   4   8
BRANCH   1  15
ATOM     14  N   UNL     1       3.382   3.063  20.124  0.00  0.00    +0.000 N 
ATOM     15  C   UNL     1       3.665   4.307  19.612  0.00  0.00    +0.000 C 
ATOM     16  O   UNL     1       3.401   5.346  20.213  0.00  0.00    +0.000 OA
ATOM     17  H   UNL     1       3.489   2.248  19.523  0.00  0.00    +0.000 HD
BRANCH  14  18
ATOM     18  C   UNL     1       2.730   2.876  21.406  0.00  0.00    +0.000 C 
BRANCH  18  20
ATOM     19  C   UNL     1       0.691   2.780  19.900  0.00  0.00    +0.000 C 
ATOM     20  C   UNL     1       1.210   2.993  21.315  0.00  0.00    +0.000 C 
ENDBRANCH  18  20
ENDBRANCH  14  18
ENDBRANCH   1  15
BRANCH   2  21
ATOM     21  N   UNL     1       6.175   5.641  19.189  0.00  0.00    +0.000 N 
ATOM     22  H   UNL     1       6.259   6.660  19.049  0.00  0.00    +0.000 HD
BRANCH  21  23
ATOM     23  O   UNL     1       7.226   5.051  19.885  0.00  0.00    +0.000 OA
ATOM     24  H   UNL     1       7.948   5.052  19.225  0.00  0.00    +0.000 HD
ENDBRANCH  21  23
ENDBRANCH   2  21
TORSDOF 6
ENDMDL
MODEL 9
REMARK VINA RESULT:      -7.1      2.412      2.740
REMARK  Name = 
REMARK  7 active torsions:
REMARK  status: ('A' for Active; 'I' for Inactive)
REMARK    1  A    between atoms: C_1  and  C_2
REMARK    2  A    between atoms: C_2  and  C_3
REMARK    3  A    between atoms: C_3  and  N_4
REMARK    4  A    between atoms: C_5  and  C_7
REMARK    5  A    between atoms: C_8  and  N_9
REMARK    6  A    between atoms: N_9  and  O_10
REMARK    7  A    between atoms: C_12  and  C_13
REMARK                            x       y       z     vdW  Elec       q    Type
REMARK                         _______ _______ _______ _____ _____    ______ ____
ROOT
ATOM      1  C   UNL     1       4.066   5.149  18.119  0.00  0.00    +0.000 A 
ATOM      2  C   UNL     1       4.376   3.882  17.753  0.00  0.00    +0.000 A 
ATOM      3  C   UNL     1       5.015   3.674  16.473  0.00  0.00    +0.000 A 
ATOM      4  C   UNL     1       5.345   4.698  15.683  0.00  0.00    +0.000 A 
ATOM      5  O   UNL     1       5.022   6.020  16.038  0.00  0.00    +0.000 OA
ATOM      6  C   UNL     1       4.346   6.276  17.196  0.00  0.00    +0.000 A 
ATOM      7  O   UNL     1       3.972   7.419  17.456  0.00  0.00    +0.000 OA
ENDROOT
BRANCH   4   8
ATOM      8  C   UNL     1       6.014   4.526  14.379  0.00  0.00    +0.000 A 
ATOM      9  C   UNL     1       5.507   3.629  13.433  0.00  0.00    +0.000 A 
ATOM     10  C   UNL     1       6.153   3.434  12.212  0.00  0.00    +0.000 A 
ATOM     11  C   UNL     1       7.318   4.134  11.916  0.00  0.00    +0.000 A 
ATOM     12  C   UNL     1       7.833   5.047  12.832  0.00  0.00    +0.000 A 
ATOM     13  C   UNL     1       7.179   5.246  14.051  0.00  0.00    +0.000 A 
ENDBRANCH   4   8
BRANCH   1  15
ATOM     14  N   UNL     1       2.399   6.319  19.458  0.00  0.00    +0.000 N 
ATOM     15  C   UNL     1       3.389   5.365  19.439  0.00  0.00    +0.000 C 
ATOM     16  O   UNL     1       3.697   4.711  20.432  0.00  0.00    +0.000 OA
ATOM     17  H   UNL     1       2.287   6.927  18.649  0.00  0.00    +0.000 HD
BRANCH  14  18
ATOM     18  C   UNL     1       1.653   6.645  20.657  0.00  0.00    +0.000 C 
BRANCH  18  20
ATOM     19  C   UNL     1       0.079   8.461  21.472  0.00  0.00    +0.000 C 
ATOM     20  C   UNL     1       1.414   8.146  20.810  0.00  0.00    +0.000 C 
ENDBRANCH  18  20
ENDBRANCH  14  18
ENDBRANCH   1  15
BRANCH   2  21
ATOM     21  N   UNL     1       4.109   2.744  18.505  0.00  0.00    +0.000 N 
ATOM     22  H   UNL     1       3.111   2.621  18.737  0.00  0.00    +0.000 HD
BRANCH  21  23
ATOM     23  O   UNL     1       5.001   2.272  19.463  0.00  0.00    +0.000 OA
ATOM     24  H   UNL     1       5.859   2.310  18.995  0.00  0.00    +0.000 HD
ENDBRANCH  21  23
ENDBRANCH   2  21
TORSDOF 6
ENDMDL
