MODEL 1
REMARK VINA RESULT:      -7.9      0.000      0.000
REMARK  Name = 
REMARK  8 active torsions:
REMARK  status: ('A' for Active; 'I' for Inactive)
REMARK    1  A    between atoms: C_1  and  C_2
REMARK    2  A    between atoms: C_3  and  N_4
REMARK    3  A    between atoms: N_7  and  C_8
REMARK    4  A    between atoms: C_16  and  O_17
REMARK    5  A    between atoms: C_19  and  O_20
REMARK    6  A    between atoms: O_20  and  C_21
REMARK    7  A    between atoms: C_21  and  C_22
REMARK    8  A    between atoms: C_22  and  C_23
REMARK                            x       y       z     vdW  Elec       q    Type
REMARK                         _______ _______ _______ _____ _____    ______ ____
ROOT
ATOM      1  C   UNL     1       2.889   8.131  17.370  0.00  0.00    +0.000 C 
ATOM      2  C   UNL     1       2.250   7.755  18.684  0.00  0.00    +0.000 A 
ATOM      3  C   UNL     1       1.490   8.640  19.377  0.00  0.00    +0.000 A 
ATOM      4  C   UNL     1       0.983   8.276  20.755  0.00  0.00    +0.000 A 
ATOM      5  O   UNL     1       0.346   9.066  21.455  0.00  0.00    +0.000 OA
ATOM      6  O   UNL     1       1.259   7.006  21.225  0.00  0.00    +0.000 OA
ATOM      7  C   UNL     1       1.986   6.072  20.472  0.00  0.00    +0.000 A 
ATOM      8  C   UNL     1       2.136   4.819  21.078  0.00  0.00    +0.000 A 
ATOM      9  C   UNL     1       2.852   3.842  20.415  0.00  0.00    +0.000 A 
ATOM     10  C   UNL     1       3.411   4.105  19.172  0.00  0.00    +0.000 A 
ATOM     11  C   UNL     1       3.227   5.357  18.560  0.00  0.00    +0.000 A 
ATOM     12  C   UNL     1       2.514   6.389  19.219  0.00  0.00    +0.000 A 
ENDROOT
BRANCH   3  13
ATOM     13  N   UNL     1       1.109   9.912  18.906  0.00  0.00    +0.000 N 
ATOM     14  C   UNL     1       2.062  11.040  18.850  0.00  0.00    +0.000 C 
ATOM     15  C   UNL     1       1.392  12.369  19.269  0.00  0.00    +0.000 C 
ATOM     16  N   UNL     1       0.164  12.644  18.489  0.00  0.00    +0.000 NA
ATOM     17  C   UNL     1      -0.437  13.914  18.881  0.00  0.00    +0.000 C 
ATOM     18  C   UNL     1      -0.780  11.526  18.703  0.00  0.00    +0.000 C 
ATOM     19  C   UNL     1      -0.180  10.183  18.243  0.00  0.00    +0.000 C 
ENDBRANCH   3  13
BRANCH   9  20
ATOM     20  O   UNL     1       3.036   2.602  20.947  0.00  0.00    +0.000 OA
ATOM     21  H   UNL     1       3.240   1.977  20.231  0.00  0.00    +0.000 HD
ENDBRANCH   9  20
BRANCH  11  22
ATOM     22  O   UNL     1       3.765   5.625  17.328  0.00  0.00    +0.000 OA
BRANCH  22  23
ATOM     23  C   UNL     1       4.362   4.534  16.624  0.00  0.00    +0.000 C 
BRANCH  23  24
ATOM     24  C   UNL     1       5.635   5.050  15.954  0.00  0.00    +0.000 C 
BRANCH  24  25
ATOM     25  C   UNL     1       6.538   5.793  16.901  0.00  0.00    +0.000 A 
ATOM     26  C   UNL     1       7.094   5.129  17.992  0.00  0.00    +0.000 A 
ATOM     27  C   UNL     1       7.916   5.839  18.861  0.00  0.00    +0.000 A 
ATOM     28  C   UNL     1       8.164   7.184  18.622  0.00  0.00    +0.000 A 
ATOM     29  C   UNL     1       7.575   7.769  17.516  0.00  0.00    +0.000 A 
ATOM     30  N   UNL     1       6.775   7.104  16.657  0.00  0.00    +0.000 NA
ENDBRANCH  24  25
ENDBRANCH  23  24
ENDBRANCH  22  23
ENDBRANCH  11  22
TORSDOF 6
ENDMDL
MODEL 2
REMARK VINA RESULT:      -7.5      1.384      2.182
REMARK  Name = 
REMARK  8 active torsions:
REMARK  status: ('A' for Active; 'I' for Inactive)
REMARK    1  A    between atoms: C_1  and  C_2
REMARK    2  A    between atoms: C_3  and  N_4
REMARK    3  A    between atoms: N_7  and  C_8
REMARK    4  A    between atoms: C_16  and  O_17
REMARK    5  A    between atoms: C_19  and  O_20
REMARK    6  A    between atoms: O_20  and  C_21
REMARK    7  A    between atoms: C_21  and  C_22
REMARK    8  A    between atoms: C_22  and  C_23
REMARK                            x       y       z     vdW  Elec       q    Type
REMARK                         _______ _______ _______ _____ _____    ______ ____
ROOT
ATOM      1  C   UNL     1       3.796   6.940  17.174  0.00  0.00    +0.000 C 
ATOM      2  C   UNL     1       3.120   6.111  18.238  0.00  0.00    +0.000 A 
ATOM      3  C   UNL     1       2.333   6.684  19.183  0.00  0.00    +0.000 A 
ATOM      4  C   UNL     1       1.787   5.842  20.315  0.00  0.00    +0.000 A 
ATOM      5  O   UNL     1       1.122   6.322  21.236  0.00  0.00    +0.000 OA
ATOM      6  O   UNL     1       2.058   4.487  20.295  0.00  0.00    +0.000 OA
ATOM      7  C   UNL     1       2.815   3.891  19.275  0.00  0.00    +0.000 A 
ATOM      8  C   UNL     1       2.956   2.502  19.384  0.00  0.00    +0.000 A 
ATOM      9  C   UNL     1       3.699   1.834  18.431  0.00  0.00    +0.000 A 
ATOM     10  C   UNL     1       4.294   2.532  17.390  0.00  0.00    +0.000 A 
ATOM     11  C   UNL     1       4.119   3.922  17.274  0.00  0.00    +0.000 A 
ATOM     12  C   UNL     1       3.379   4.643  18.243  0.00  0.00    +0.000 A 
ENDROOT
BRANCH   3  13
ATOM     13  N   UNL     1       1.956   8.041  19.200  0.00  0.00    +0.000 N 
ATOM     14  C   UNL     1       1.834   8.800  20.462  0.00  0.00    +0.000 C 
ATOM     15  C   UNL     1       0.614   9.750  20.436  0.00  0.00    +0.000 C 
ATOM     16  N   UNL     1       0.628  10.642  19.253  0.00  0.00    +0.000 NA
ATOM     17  C   UNL     1      -0.515  11.547  19.261  0.00  0.00    +0.000 C 
ATOM     18  C   UNL     1       0.625   9.800  18.038  0.00  0.00    +0.000 C 
ATOM     19  C   UNL     1       1.857   8.875  17.988  0.00  0.00    +0.000 C 
ENDBRANCH   3  13
BRANCH   9  20
ATOM     20  O   UNL     1       3.877   0.484  18.477  0.00  0.00    +0.000 OA
ATOM     21  H   UNL     1       4.566   0.233  17.840  0.00  0.00    +0.000 HD
ENDBRANCH   9  20
BRANCH  11  22
ATOM     22  O   UNL     1       4.692   4.621  16.243  0.00  0.00    +0.000 OA
BRANCH  22  23
ATOM     23  C   UNL     1       5.664   3.937  15.449  0.00  0.00    +0.000 C 
BRANCH  23  24
ATOM     24  C   UNL     1       6.863   4.868  15.272  0.00  0.00    +0.000 C 
BRANCH  24  25
ATOM     25  C   UNL     1       7.284   5.535  16.553  0.00  0.00    +0.000 A 
ATOM     26  C   UNL     1       7.541   4.764  17.684  0.00  0.00    +0.000 A 
ATOM     27  C   UNL     1       7.917   5.404  18.861  0.00  0.00    +0.000 A 
ATOM     28  C   UNL     1       8.029   6.787  18.881  0.00  0.00    +0.000 A 
ATOM     29  C   UNL     1       7.758   7.480  17.715  0.00  0.00    +0.000 A 
ATOM     30  N   UNL     1       7.392   6.885  16.561  0.00  0.00    +0.000 NA
ENDBRANCH  24  25
ENDBRANCH  23  24
ENDBRANCH  22  23
ENDBRANCH  11  22
TORSDOF 6
ENDMDL
MODEL 3
REMARK VINA RESULT:      -7.5      1.438      2.333
REMARK  Name = 
REMARK  8 active torsions:
REMARK  status: ('A' for Active; 'I' for Inactive)
REMARK    1  A    between atoms: C_1  and  C_2
REMARK    2  A    between atoms: C_3  and  N_4
REMARK    3  A    between atoms: N_7  and  C_8
REMARK    4  A    between atoms: C_16  and  O_17
REMARK    5  A    between atoms: C_19  and  O_20
REMARK    6  A    between atoms: O_20  and  C_21
REMARK    7  A    between atoms: C_21  and  C_22
REMARK    8  A    between atoms: C_22  and  C_23
REMARK                            x       y       z     vdW  Elec       q    Type
REMARK                         _______ _______ _______ _____ _____    ______ ____
ROOT
ATOM      1  C   UNL     1       2.985   8.170  17.447  0.00  0.00    +0.000 C 
ATOM      2  C   UNL     1       2.320   7.707  18.721  0.00  0.00    +0.000 A 
ATOM      3  C   UNL     1       1.491   8.522  19.420  0.00  0.00    +0.000 A 
ATOM      4  C   UNL     1       0.956   8.075  20.762  0.00  0.00    +0.000 A 
ATOM      5  O   UNL     1       0.253   8.801  21.469  0.00  0.00    +0.000 OA
ATOM      6  O   UNL     1       1.281   6.802  21.191  0.00  0.00    +0.000 OA
ATOM      7  C   UNL     1       2.082   5.939  20.428  0.00  0.00    +0.000 A 
ATOM      8  C   UNL     1       2.277   4.671  20.989  0.00  0.00    +0.000 A 
ATOM      9  C   UNL     1       3.066   3.760  20.314  0.00  0.00    +0.000 A 
ATOM     10  C   UNL     1       3.654   4.104  19.105  0.00  0.00    +0.000 A 
ATOM     11  C   UNL     1       3.427   5.369  18.537  0.00  0.00    +0.000 A 
ATOM     12  C   UNL     1       2.638   6.335  19.210  0.00  0.00    +0.000 A 
ENDROOT
BRANCH   3  13
ATOM     13  N   UNL     1       1.060   9.791  18.987  0.00  0.00    +0.000 N 
ATOM     14  C   UNL     1       1.905  10.994  19.135  0.00  0.00    +0.000 C 
ATOM     15  C   UNL     1       1.069  12.228  19.546  0.00  0.00    +0.000 C 
ATOM     16  N   UNL     1      -0.068  12.461  18.626  0.00  0.00    +0.000 NA
ATOM     17  C   UNL     1      -0.828  13.644  19.015  0.00  0.00    +0.000 C 
ATOM     18  C   UNL     1      -0.926  11.257  18.634  0.00  0.00    +0.000 C 
ATOM     19  C   UNL     1      -0.150  10.007  18.173  0.00  0.00    +0.000 C 
ENDBRANCH   3  13
BRANCH   9  20
ATOM     20  O   UNL     1       3.297   2.510  20.803  0.00  0.00    +0.000 OA
ATOM     21  H   UNL     1       2.482   2.176  21.215  0.00  0.00    +0.000 HD
ENDBRANCH   9  20
BRANCH  11  22
ATOM     22  O   UNL     1       3.993   5.716  17.338  0.00  0.00    +0.000 OA
BRANCH  22  23
ATOM     23  C   UNL     1       4.546   4.663  16.547  0.00  0.00    +0.000 C 
BRANCH  23  24
ATOM     24  C   UNL     1       6.006   5.011  16.258  0.00  0.00    +0.000 C 
BRANCH  24  25
ATOM     25  C   UNL     1       6.402   4.748  14.830  0.00  0.00    +0.000 A 
ATOM     26  C   UNL     1       5.663   3.854  14.060  0.00  0.00    +0.000 A 
ATOM     27  C   UNL     1       6.056   3.617  12.747  0.00  0.00    +0.000 A 
ATOM     28  C   UNL     1       7.166   4.275  12.236  0.00  0.00    +0.000 A 
ATOM     29  C   UNL     1       7.845   5.149  13.065  0.00  0.00    +0.000 A 
ATOM     30  N   UNL     1       7.486   5.397  14.342  0.00  0.00    +0.000 NA
ENDBRANCH  24  25
ENDBRANCH  23  24
ENDBRANCH  22  23
ENDBRANCH  11  22
TORSDOF 6
ENDMDL
MODEL 4
REMARK VINA RESULT:      -7.0      0.833      1.225
REMARK  Name = 
REMARK  8 active torsions:
REMARK  status: ('A' for Active; 'I' for Inactive)
REMARK    1  A    between atoms: C_1  and  C_2
REMARK    2  A    between atoms: C_3  and  N_4
REMARK    3  A    between atoms: N_7  and  C_8
REMARK    4  A    between atoms: C_16  and  O_17
REMARK    5  A    between atoms: C_19  and  O_20
REMARK    6  A    between atoms: O_20  and  C_21
REMARK    7  A    between atoms: C_21  and  C_22
REMARK    8  A    between atoms: C_22  and  C_23
REMARK                            x       y       z     vdW  Elec       q    Type
REMARK                         _______ _______ _______ _____ _____    ______ ____
ROOT
ATOM      1  C   UNL     1       2.392   8.807  17.951  0.00  0.00    +0.000 C 
ATOM      2  C   UNL     1       1.877   8.144  19.205  0.00  0.00    +0.000 A 
ATOM      3  C   UNL     1       1.111   8.821  20.097  0.00  0.00    +0.000 A 
ATOM      4  C   UNL     1       0.731   8.168  21.408  0.00  0.00    +0.000 A 
ATOM      5  O   UNL     1       0.093   8.760  22.281  0.00  0.00    +0.000 OA
ATOM      6  O   UNL     1       1.126   6.859  21.610  0.00  0.00    +0.000 OA
ATOM      7  C   UNL     1       1.859   6.143  20.652  0.00  0.00    +0.000 A 
ATOM      8  C   UNL     1       2.138   4.815  20.998  0.00  0.00    +0.000 A 
ATOM      9  C   UNL     1       2.869   4.039  20.121  0.00  0.00    +0.000 A 
ATOM     10  C   UNL     1       3.317   4.572  18.921  0.00  0.00    +0.000 A 
ATOM     11  C   UNL     1       3.005   5.897  18.570  0.00  0.00    +0.000 A 
ATOM     12  C   UNL     1       2.273   6.728  19.454  0.00  0.00    +0.000 A 
ENDROOT
BRANCH   3  13
ATOM     13  N   UNL     1       0.611  10.122  19.900  0.00  0.00    +0.000 N 
ATOM     14  C   UNL     1      -0.717  10.364  19.297  0.00  0.00    +0.000 C 
ATOM     15  C   UNL     1      -0.690  11.572  18.332  0.00  0.00    +0.000 C 
ATOM     16  N   UNL     1      -0.146  12.789  18.977  0.00  0.00    +0.000 NA
ATOM     17  C   UNL     1      -0.154  13.922  18.058  0.00  0.00    +0.000 C 
ATOM     18  C   UNL     1       1.227  12.494  19.439  0.00  0.00    +0.000 C 
ATOM     19  C   UNL     1       1.246  11.333  20.453  0.00  0.00    +0.000 C 
ENDBRANCH   3  13
BRANCH   9  20
ATOM     20  O   UNL     1       3.175   2.741  20.396  0.00  0.00    +0.000 OA
ATOM     21  H   UNL     1       3.940   2.475  19.858  0.00  0.00    +0.000 HD
ENDBRANCH   9  20
BRANCH  11  22
ATOM     22  O   UNL     1       3.432   6.431  17.382  0.00  0.00    +0.000 OA
BRANCH  22  23
ATOM     23  C   UNL     1       4.310   5.634  16.585  0.00  0.00    +0.000 C 
BRANCH  23  24
ATOM     24  C   UNL     1       5.415   6.545  16.052  0.00  0.00    +0.000 C 
BRANCH  24  25
ATOM     25  C   UNL     1       6.496   6.814  17.065  0.00  0.00    +0.000 A 
ATOM     26  C   UNL     1       6.821   5.839  18.005  0.00  0.00    +0.000 A 
ATOM     27  C   UNL     1       7.814   6.115  18.939  0.00  0.00    +0.000 A 
ATOM     28  C   UNL     1       8.456   7.345  18.913  0.00  0.00    +0.000 A 
ATOM     29  C   UNL     1       8.075   8.258  17.947  0.00  0.00    +0.000 A 
ATOM     30  N   UNL     1       7.115   8.017  17.029  0.00  0.00    +0.000 NA
ENDBRANCH  24  25
ENDBRANCH  23  24
ENDBRANCH  22  23
ENDBRANCH  11  22
TORSDOF 6
ENDMDL
MODEL 5
REMARK VINA RESULT:      -6.9      2.416      7.893
REMARK  Name = 
REMARK  8 active torsions:
REMARK  status: ('A' for Active; 'I' for Inactive)
REMARK    1  A    between atoms: C_1  and  C_2
REMARK    2  A    between atoms: C_3  and  N_4
REMARK    3  A    between atoms: N_7  and  C_8
REMARK    4  A    between atoms: C_16  and  O_17
REMARK    5  A    between atoms: C_19  and  O_20
REMARK    6  A    between atoms: O_20  and  C_21
REMARK    7  A    between atoms: C_21  and  C_22
REMARK    8  A    between atoms: C_22  and  C_23
REMARK                            x       y       z     vdW  Elec       q    Type
REMARK                         _______ _______ _______ _____ _____    ______ ____
ROOT
ATOM      1  C   UNL     1       1.778   9.350  17.750  0.00  0.00    +0.000 C 
ATOM      2  C   UNL     1       1.657   8.619  19.065  0.00  0.00    +0.000 A 
ATOM      3  C   UNL     1       2.129   7.356  19.215  0.00  0.00    +0.000 A 
ATOM      4  C   UNL     1       1.866   6.605  20.501  0.00  0.00    +0.000 A 
ATOM      5  O   UNL     1       2.214   5.433  20.666  0.00  0.00    +0.000 OA
ATOM      6  O   UNL     1       1.210   7.278  21.514  0.00  0.00    +0.000 OA
ATOM      7  C   UNL     1       0.787   8.608  21.376  0.00  0.00    +0.000 A 
ATOM      8  C   UNL     1       0.178   9.152  22.513  0.00  0.00    +0.000 A 
ATOM      9  C   UNL     1      -0.284  10.452  22.462  0.00  0.00    +0.000 A 
ATOM     10  C   UNL     1      -0.146  11.199  21.301  0.00  0.00    +0.000 A 
ATOM     11  C   UNL     1       0.495  10.653  20.175  0.00  0.00    +0.000 A 
ATOM     12  C   UNL     1       0.965   9.316  20.185  0.00  0.00    +0.000 A 
ENDROOT
BRANCH   3  13
ATOM     13  N   UNL     1       2.879   6.658  18.247  0.00  0.00    +0.000 N 
ATOM     14  C   UNL     1       2.421   5.369  17.688  0.00  0.00    +0.000 C 
ATOM     15  C   UNL     1       3.598   4.383  17.503  0.00  0.00    +0.000 C 
ATOM     16  N   UNL     1       4.698   4.972  16.706  0.00  0.00    +0.000 NA
ATOM     17  C   UNL     1       5.785   4.017  16.520  0.00  0.00    +0.000 C 
ATOM     18  C   UNL     1       5.176   6.186  17.401  0.00  0.00    +0.000 C 
ATOM     19  C   UNL     1       4.050   7.228  17.557  0.00  0.00    +0.000 C 
ENDBRANCH   3  13
BRANCH   9  20
ATOM     20  O   UNL     1      -0.886  11.042  23.532  0.00  0.00    +0.000 OA
ATOM     21  H   UNL     1      -1.286  11.881  23.247  0.00  0.00    +0.000 HD
ENDBRANCH   9  20
BRANCH  11  22
ATOM     22  O   UNL     1       0.648  11.385  19.026  0.00  0.00    +0.000 OA
BRANCH  22  23
ATOM     23  C   UNL     1      -0.461  12.182  18.606  0.00  0.00    +0.000 C 
BRANCH  23  24
ATOM     24  C   UNL     1      -1.739  11.394  18.893  0.00  0.00    +0.000 C 
BRANCH  24  25
ATOM     25  C   UNL     1      -2.488  11.012  17.645  0.00  0.00    +0.000 A 
ATOM     26  C   UNL     1      -1.963  10.046  16.791  0.00  0.00    +0.000 A 
ATOM     27  C   UNL     1      -2.668   9.719  15.637  0.00  0.00    +0.000 A 
ATOM     28  C   UNL     1      -3.870  10.356  15.365  0.00  0.00    +0.000 A 
ATOM     29  C   UNL     1      -4.323  11.304  16.265  0.00  0.00    +0.000 A 
ATOM     30  N   UNL     1      -3.661  11.640  17.391  0.00  0.00    +0.000 NA
ENDBRANCH  24  25
ENDBRANCH  23  24
ENDBRANCH  22  23
ENDBRANCH  11  22
TORSDOF 6
ENDMDL
MODEL 6
REMARK VINA RESULT:      -6.9      2.454      8.277
REMARK  Name = 
REMARK  8 active torsions:
REMARK  status: ('A' for Active; 'I' for Inactive)
REMARK    1  A    between atoms: C_1  and  C_2
REMARK    2  A    between atoms: C_3  and  N_4
REMARK    3  A    between atoms: N_7  and  C_8
REMARK    4  A    between atoms: C_16  and  O_17
REMARK    5  A    between atoms: C_19  and  O_20
REMARK    6  A    between atoms: O_20  and  C_21
REMARK    7  A    between atoms: C_21  and  C_22
REMARK    8  A    between atoms: C_22  and  C_23
REMARK                            x       y       z     vdW  Elec       q    Type
REMARK                         _______ _______ _______ _____ _____    ______ ____
ROOT
ATOM      1  C   UNL     1       1.759   9.219  17.665  0.00  0.00    +0.000 C 
ATOM      2  C   UNL     1       1.683   8.509  18.995  0.00  0.00    +0.000 A 
ATOM      3  C   UNL     1       2.204   7.267  19.161  0.00  0.00    +0.000 A 
ATOM      4  C   UNL     1       1.985   6.531  20.464  0.00  0.00    +0.000 A 
ATOM      5  O   UNL     1       2.379   5.377  20.646  0.00  0.00    +0.000 OA
ATOM      6  O   UNL     1       1.316   7.198  21.474  0.00  0.00    +0.000 OA
ATOM      7  C   UNL     1       0.842   8.509  21.317  0.00  0.00    +0.000 A 
ATOM      8  C   UNL     1       0.227   9.050  22.452  0.00  0.00    +0.000 A 
ATOM      9  C   UNL     1      -0.284  10.332  22.383  0.00  0.00    +0.000 A 
ATOM     10  C   UNL     1      -0.188  11.061  21.207  0.00  0.00    +0.000 A 
ATOM     11  C   UNL     1       0.459  10.519  20.083  0.00  0.00    +0.000 A 
ATOM     12  C   UNL     1       0.979   9.201  20.112  0.00  0.00    +0.000 A 
ENDROOT
BRANCH   3  13
ATOM     13  N   UNL     1       2.967   6.581  18.197  0.00  0.00    +0.000 N 
ATOM     14  C   UNL     1       2.558   5.259  17.677  0.00  0.00    +0.000 C 
ATOM     15  C   UNL     1       3.775   4.322  17.493  0.00  0.00    +0.000 C 
ATOM     16  N   UNL     1       4.833   4.939  16.662  0.00  0.00    +0.000 NA
ATOM     17  C   UNL     1       5.959   4.030  16.479  0.00  0.00    +0.000 C 
ATOM     18  C   UNL     1       5.267   6.190  17.320  0.00  0.00    +0.000 C 
ATOM     19  C   UNL     1       4.099   7.185  17.472  0.00  0.00    +0.000 C 
ENDBRANCH   3  13
BRANCH   9  20
ATOM     20  O   UNL     1      -0.894  10.918  23.450  0.00  0.00    +0.000 OA
ATOM     21  H   UNL     1      -0.250  11.013  24.171  0.00  0.00    +0.000 HD
ENDBRANCH   9  20
BRANCH  11  22
ATOM     22  O   UNL     1       0.570  11.234  18.919  0.00  0.00    +0.000 OA
BRANCH  22  23
ATOM     23  C   UNL     1      -0.525  12.083  18.566  0.00  0.00    +0.000 C 
BRANCH  23  24
ATOM     24  C   UNL     1      -1.530  11.245  17.777  0.00  0.00    +0.000 C 
BRANCH  24  25
ATOM     25  C   UNL     1      -2.953  11.464  18.219  0.00  0.00    +0.000 A 
ATOM     26  C   UNL     1      -3.998  10.905  17.488  0.00  0.00    +0.000 A 
ATOM     27  C   UNL     1      -5.305  11.132  17.908  0.00  0.00    +0.000 A 
ATOM     28  C   UNL     1      -5.536  11.902  19.039  0.00  0.00    +0.000 A 
ATOM     29  C   UNL     1      -4.443  12.420  19.710  0.00  0.00    +0.000 A 
ATOM     30  N   UNL     1      -3.166  12.216  19.324  0.00  0.00    +0.000 NA
ENDBRANCH  24  25
ENDBRANCH  23  24
ENDBRANCH  22  23
ENDBRANCH  11  22
TORSDOF 6
ENDMDL
MODEL 7
REMARK VINA RESULT:      -6.8      2.255      7.488
REMARK  Name = 
REMARK  8 active torsions:
REMARK  status: ('A' for Active; 'I' for Inactive)
REMARK    1  A    between atoms: C_1  and  C_2
REMARK    2  A    between atoms: C_3  and  N_4
REMARK    3  A    between atoms: N_7  and  C_8
REMARK    4  A    between atoms: C_16  and  O_17
REMARK    5  A    between atoms: C_19  and  O_20
REMARK    6  A    between atoms: O_20  and  C_21
REMARK    7  A    between atoms: C_21  and  C_22
REMARK    8  A    between atoms: C_22  and  C_23
REMARK                            x       y       z     vdW  Elec       q    Type
REMARK                         _______ _______ _______ _____ _____    ______ ____
ROOT
ATOM      1  C   UNL     1       2.880   8.316  17.774  0.00  0.00    +0.000 C 
ATOM      2  C   UNL     1       2.330   7.744  19.057  0.00  0.00    +0.000 A 
ATOM      3  C   UNL     1       2.614   6.474  19.442  0.00  0.00    +0.000 A 
ATOM      4  C   UNL     1       1.932   5.889  20.659  0.00  0.00    +0.000 A 
ATOM      5  O   UNL     1       2.103   4.721  21.015  0.00  0.00    +0.000 OA
ATOM      6  O   UNL     1       1.092   6.714  21.383  0.00  0.00    +0.000 OA
ATOM      7  C   UNL     1       0.858   8.048  21.017  0.00  0.00    +0.000 A 
ATOM      8  C   UNL     1       0.015   8.755  21.883  0.00  0.00    +0.000 A 
ATOM      9  C   UNL     1      -0.282  10.072  21.593  0.00  0.00    +0.000 A 
ATOM     10  C   UNL     1       0.245  10.675  20.460  0.00  0.00    +0.000 A 
ATOM     11  C   UNL     1       1.114   9.965  19.614  0.00  0.00    +0.000 A 
ATOM     12  C   UNL     1       1.427   8.607  19.871  0.00  0.00    +0.000 A 
ENDROOT
BRANCH   3  13
ATOM     13  N   UNL     1       3.528   5.623  18.791  0.00  0.00    +0.000 N 
ATOM     14  C   UNL     1       4.912   5.448  19.278  0.00  0.00    +0.000 C 
ATOM     15  C   UNL     1       5.920   5.371  18.107  0.00  0.00    +0.000 C 
ATOM     16  N   UNL     1       5.546   4.335  17.118  0.00  0.00    +0.000 NA
ATOM     17  C   UNL     1       6.523   4.261  16.037  0.00  0.00    +0.000 C 
ATOM     18  C   UNL     1       4.202   4.658  16.593  0.00  0.00    +0.000 C 
ATOM     19  C   UNL     1       3.148   4.686  17.718  0.00  0.00    +0.000 C 
ENDBRANCH   3  13
BRANCH   9  20
ATOM     20  O   UNL     1      -1.095  10.816  22.393  0.00  0.00    +0.000 OA
ATOM     21  H   UNL     1      -1.768  10.237  22.788  0.00  0.00    +0.000 HD
ENDBRANCH   9  20
BRANCH  11  22
ATOM     22  O   UNL     1       1.650  10.554  18.499  0.00  0.00    +0.000 OA
BRANCH  22  23
ATOM     23  C   UNL     1       1.350  11.934  18.279  0.00  0.00    +0.000 C 
BRANCH  23  24
ATOM     24  C   UNL     1       2.669  12.704  18.268  0.00  0.00    +0.000 C 
BRANCH  24  25
ATOM     25  C   UNL     1       2.479  14.197  18.231  0.00  0.00    +0.000 A 
ATOM     26  C   UNL     1       3.458  15.006  17.659  0.00  0.00    +0.000 A 
ATOM     27  C   UNL     1       3.265  16.383  17.648  0.00  0.00    +0.000 A 
ATOM     28  C   UNL     1       2.110  16.917  18.201  0.00  0.00    +0.000 A 
ATOM     29  C   UNL     1       1.186  16.046  18.748  0.00  0.00    +0.000 A 
ATOM     30  N   UNL     1       1.347  14.706  18.772  0.00  0.00    +0.000 NA
ENDBRANCH  24  25
ENDBRANCH  23  24
ENDBRANCH  22  23
ENDBRANCH  11  22
TORSDOF 6
ENDMDL
MODEL 8
REMARK VINA RESULT:      -6.7      3.118      8.732
REMARK  Name = 
REMARK  8 active torsions:
REMARK  status: ('A' for Active; 'I' for Inactive)
REMARK    1  A    between atoms: C_1  and  C_2
REMARK    2  A    between atoms: C_3  and  N_4
REMARK    3  A    between atoms: N_7  and  C_8
REMARK    4  A    between atoms: C_16  and  O_17
REMARK    5  A    between atoms: C_19  and  O_20
REMARK    6  A    between atoms: O_20  and  C_21
REMARK    7  A    between atoms: C_21  and  C_22
REMARK    8  A    between atoms: C_22  and  C_23
REMARK                            x       y       z     vdW  Elec       q    Type
REMARK                         _______ _______ _______ _____ _____    ______ ____
ROOT
ATOM      1  C   UNL     1       1.294   6.878  21.101  0.00  0.00    +0.000 C 
ATOM      2  C   UNL     1       1.844   7.396  19.795  0.00  0.00    +0.000 A 
ATOM      3  C   UNL     1       2.585   6.606  18.979  0.00  0.00    +0.000 A 
ATOM      4  C   UNL     1       3.237   7.199  17.749  0.00  0.00    +0.000 A 
ATOM      5  O   UNL     1       3.974   6.543  17.010  0.00  0.00    +0.000 OA
ATOM      6  O   UNL     1       2.981   8.527  17.466  0.00  0.00    +0.000 OA
ATOM      7  C   UNL     1       2.156   9.319  18.278  0.00  0.00    +0.000 A 
ATOM      8  C   UNL     1       1.969  10.630  17.822  0.00  0.00    +0.000 A 
ATOM      9  C   UNL     1       1.183  11.486  18.568  0.00  0.00    +0.000 A 
ATOM     10  C   UNL     1       0.596  11.050  19.747  0.00  0.00    +0.000 A 
ATOM     11  C   UNL     1       0.766   9.723  20.179  0.00  0.00    +0.000 A 
ATOM     12  C   UNL     1       1.581   8.822  19.449  0.00  0.00    +0.000 A 
ENDROOT
BRANCH   3  13
ATOM     13  N   UNL     1       2.802   5.228  19.176  0.00  0.00    +0.000 N 
ATOM     14  C   UNL     1       4.061   4.713  19.754  0.00  0.00    +0.000 C 
ATOM     15  C   UNL     1       4.519   3.415  19.050  0.00  0.00    +0.000 C 
ATOM     16  N   UNL     1       3.455   2.384  19.034  0.00  0.00    +0.000 NA
ATOM     17  C   UNL     1       3.916   1.160  18.389  0.00  0.00    +0.000 C 
ATOM     18  C   UNL     1       2.281   2.942  18.330  0.00  0.00    +0.000 C 
ATOM     19  C   UNL     1       1.748   4.207  19.032  0.00  0.00    +0.000 C 
ENDBRANCH   3  13
BRANCH   9  20
ATOM     20  O   UNL     1       0.959  12.773  18.182  0.00  0.00    +0.000 OA
ATOM     21  H   UNL     1       1.201  12.870  17.246  0.00  0.00    +0.000 HD
ENDBRANCH   9  20
BRANCH  11  22
ATOM     22  O   UNL     1       0.182   9.277  21.336  0.00  0.00    +0.000 OA
BRANCH  22  23
ATOM     23  C   UNL     1       0.357  10.077  22.507  0.00  0.00    +0.000 C 
BRANCH  23  24
ATOM     24  C   UNL     1      -1.018  10.291  23.138  0.00  0.00    +0.000 C 
BRANCH  24  25
ATOM     25  C   UNL     1      -1.452  11.732  23.128  0.00  0.00    +0.000 A 
ATOM     26  C   UNL     1      -2.785  12.055  23.372  0.00  0.00    +0.000 A 
ATOM     27  C   UNL     1      -3.165  13.393  23.345  0.00  0.00    +0.000 A 
ATOM     28  C   UNL     1      -2.214  14.369  23.080  0.00  0.00    +0.000 A 
ATOM     29  C   UNL     1      -0.912  13.965  22.850  0.00  0.00    +0.000 A 
ATOM     30  N   UNL     1      -0.516  12.675  22.870  0.00  0.00    +0.000 NA
ENDBRANCH  24  25
ENDBRANCH  23  24
ENDBRANCH  22  23
ENDBRANCH  11  22
TORSDOF 6
ENDMDL
MODEL 9
REMARK VINA RESULT:      -6.7      1.096      1.202
REMARK  Name = 
REMARK  8 active torsions:
REMARK  status: ('A' for Active; 'I' for Inactive)
REMARK    1  A    between atoms: C_1  and  C_2
REMARK    2  A    between atoms: C_3  and  N_4
REMARK    3  A    between atoms: N_7  and  C_8
REMARK    4  A    between atoms: C_16  and  O_17
REMARK    5  A    between atoms: C_19  and  O_20
REMARK    6  A    between atoms: O_20  and  C_21
REMARK    7  A    between atoms: C_21  and  C_22
REMARK    8  A    between atoms: C_22  and  C_23
REMARK                            x       y       z     vdW  Elec       q    Type
REMARK                         _______ _______ _______ _____ _____    ______ ____
ROOT
ATOM      1  C   UNL     1       3.374   7.745  17.352  0.00  0.00    +0.000 C 
ATOM      2  C   UNL     1       2.734   7.134  18.574  0.00  0.00    +0.000 A 
ATOM      3  C   UNL     1       1.953   7.871  19.403  0.00  0.00    +0.000 A 
ATOM      4  C   UNL     1       1.444   7.264  20.692  0.00  0.00    +0.000 A 
ATOM      5  O   UNL     1       0.786   7.908  21.512  0.00  0.00    +0.000 OA
ATOM      6  O   UNL     1       1.739   5.936  20.935  0.00  0.00    +0.000 OA
ATOM      7  C   UNL     1       2.489   5.161  20.038  0.00  0.00    +0.000 A 
ATOM      8  C   UNL     1       2.659   3.824  20.418  0.00  0.00    +0.000 A 
ATOM      9  C   UNL     1       3.397   2.990  19.601  0.00  0.00    +0.000 A 
ATOM     10  C   UNL     1       3.960   3.476  18.430  0.00  0.00    +0.000 A 
ATOM     11  C   UNL     1       3.757   4.812  18.043  0.00  0.00    +0.000 A 
ATOM     12  C   UNL     1       3.020   5.701  18.865  0.00  0.00    +0.000 A 
ENDROOT
BRANCH   3  13
ATOM     13  N   UNL     1       1.551   9.199  19.158  0.00  0.00    +0.000 N 
ATOM     14  C   UNL     1       1.734   9.837  17.838  0.00  0.00    +0.000 C 
ATOM     15  C   UNL     1       2.173  11.313  17.977  0.00  0.00    +0.000 C 
ATOM     16  N   UNL     1       1.254  12.088  18.843  0.00  0.00    +0.000 NA
ATOM     17  C   UNL     1       1.671  13.482  18.940  0.00  0.00    +0.000 C 
ATOM     18  C   UNL     1       1.228  11.451  20.177  0.00  0.00    +0.000 C 
ATOM     19  C   UNL     1       0.737   9.992  20.098  0.00  0.00    +0.000 C 
ENDBRANCH   3  13
BRANCH   9  20
ATOM     20  O   UNL     1       3.601   1.680  19.911  0.00  0.00    +0.000 OA
ATOM     21  H   UNL     1       3.067   1.451  20.690  0.00  0.00    +0.000 HD
ENDBRANCH   9  20
BRANCH  11  22
ATOM     22  O   UNL     1       4.298   5.300  16.882  0.00  0.00    +0.000 OA
BRANCH  22  23
ATOM     23  C   UNL     1       4.952   4.365  16.022  0.00  0.00    +0.000 C 
BRANCH  23  24
ATOM     24  C   UNL     1       6.301   4.962  15.622  0.00  0.00    +0.000 C 
BRANCH  24  25
ATOM     25  C   UNL     1       6.972   5.704  16.746  0.00  0.00    +0.000 A 
ATOM     26  C   UNL     1       7.418   5.009  17.867  0.00  0.00    +0.000 A 
ATOM     27  C   UNL     1       8.024   5.718  18.898  0.00  0.00    +0.000 A 
ATOM     28  C   UNL     1       8.172   7.094  18.788  0.00  0.00    +0.000 A 
ATOM     29  C   UNL     1       7.703   7.710  17.642  0.00  0.00    +0.000 A 
ATOM     30  N   UNL     1       7.112   7.046  16.626  0.00  0.00    +0.000 NA
ENDBRANCH  24  25
ENDBRANCH  23  24
ENDBRANCH  22  23
ENDBRANCH  11  22
TORSDOF 6
ENDMDL
