MODEL 1
REMARK VINA RESULT:      -7.3      0.000      0.000
REMARK  Name = 
REMARK  11 active torsions:
REMARK  status: ('A' for Active; 'I' for Inactive)
REMARK    1  A    between atoms: C_1  and  C_2
REMARK    2  A    between atoms: C_2  and  C_3
REMARK    3  A    between atoms: C_3  and  C_4
REMARK    4  A    between atoms: C_3  and  C_6
REMARK    5  A    between atoms: C_3  and  C_21
REMARK    6  A    between atoms: C_4  and  C_5
REMARK    7  A    between atoms: C_9  and  O_10
REMARK    8  A    between atoms: O_10  and  C_11
REMARK    9  A    between atoms: C_24  and  N_25
REMARK   10  A    between atoms: N_25  and  C_26
REMARK   11  A    between atoms: C_27  and  C_28
REMARK                            x       y       z     vdW  Elec       q    Type
REMARK                         _______ _______ _______ _____ _____    ______ ____
ROOT
ATOM      1  C   UNL     1       0.082  11.067  19.422  0.00  0.00    +0.000 C 
ENDROOT
BRANCH   1   2
ATOM      2  C   UNL     1       0.920   9.737  19.420  0.00  0.00    +0.000 A 
ATOM      3  C   UNL     1       1.666   9.307  18.302  0.00  0.00    +0.000 A 
ATOM      4  C   UNL     1       2.396   8.107  18.314  0.00  0.00    +0.000 A 
ATOM      5  C   UNL     1       2.388   7.299  19.446  0.00  0.00    +0.000 A 
ATOM      6  C   UNL     1       1.635   7.678  20.550  0.00  0.00    +0.000 A 
ATOM      7  C   UNL     1       0.960   8.901  20.553  0.00  0.00    +0.000 A 
BRANCH   5   8
ATOM      8  O   UNL     1       3.116   6.092  19.383  0.00  0.00    +0.000 OA
BRANCH   8   9
ATOM      9  C   UNL     1       3.192   5.370  18.186  0.00  0.00    +0.000 C 
ATOM     10  O   UNL     1       2.242   4.800  17.655  0.00  0.00    +0.000 OA
ATOM     11  N   UNL     1       4.452   5.375  17.623  0.00  0.00    +0.000 N 
ATOM     12  C   UNL     1       5.661   5.898  18.253  0.00  0.00    +0.000 C 
ATOM     13  C   UNL     1       6.474   6.731  17.251  0.00  0.00    +0.000 C 
ATOM     14  O   UNL     1       6.716   6.007  16.032  0.00  0.00    +0.000 OA
ATOM     15  C   UNL     1       5.478   5.621  15.412  0.00  0.00    +0.000 C 
ATOM     16  C   UNL     1       4.673   4.709  16.341  0.00  0.00    +0.000 C 
ENDBRANCH   8   9
ENDBRANCH   5   8
ENDBRANCH   1   2
BRANCH   1  17
ATOM     17  C   UNL     1       1.052  12.291  19.414  0.00  0.00    +0.000 A 
ATOM     18  C   UNL     1       1.276  13.088  18.287  0.00  0.00    +0.000 A 
ATOM     19  C   UNL     1       2.173  14.179  18.304  0.00  0.00    +0.000 A 
ATOM     20  C   UNL     1       2.892  14.548  19.447  0.00  0.00    +0.000 A 
ATOM     21  C   UNL     1       2.683  13.733  20.567  0.00  0.00    +0.000 A 
ATOM     22  C   UNL     1       1.789  12.641  20.554  0.00  0.00    +0.000 A 
BRANCH  20  23
ATOM     23  N   UNL     1       3.786  15.703  19.475  0.00  0.00    +0.000 N 
ATOM     24  C   UNL     1       3.327  16.948  20.091  0.00  0.00    +0.000 C 
ATOM     25  C   UNL     1       5.063  15.697  18.866  0.00  0.00    +0.000 C 
ATOM     26  C   UNL     1       5.855  16.995  18.893  0.00  0.00    +0.000 C 
ATOM     27  O   UNL     1       5.612  14.735  18.331  0.00  0.00    +0.000 OA
ENDBRANCH  20  23
ENDBRANCH   1  17
BRANCH   1  29
ATOM     28  C   UNL     1      -1.887  10.038  18.006  0.00  0.00    +0.000 C 
ATOM     29  C   UNL     1      -0.834  11.140  18.139  0.00  0.00    +0.000 C 
ENDBRANCH   1  29
BRANCH   1  30
ATOM     30  C   UNL     1      -0.872  11.105  20.686  0.00  0.00    +0.000 C 
ATOM     31  C   UNL     1      -1.815  12.304  20.795  0.00  0.00    +0.000 C 
ENDBRANCH   1  30
TORSDOF 7
ENDMDL
MODEL 2
REMARK VINA RESULT:      -7.3      0.599      1.349
REMARK  Name = 
REMARK  11 active torsions:
REMARK  status: ('A' for Active; 'I' for Inactive)
REMARK    1  A    between atoms: C_1  and  C_2
REMARK    2  A    between atoms: C_2  and  C_3
REMARK    3  A    between atoms: C_3  and  C_4
REMARK    4  A    between atoms: C_3  and  C_6
REMARK    5  A    between atoms: C_3  and  C_21
REMARK    6  A    between atoms: C_4  and  C_5
REMARK    7  A    between atoms: C_9  and  O_10
REMARK    8  A    between atoms: O_10  and  C_11
REMARK    9  A    between atoms: C_24  and  N_25
REMARK   10  A    between atoms: N_25  and  C_26
REMARK   11  A    between atoms: C_27  and  C_28
REMARK                            x       y       z     vdW  Elec       q    Type
REMARK                         _______ _______ _______ _____ _____    ______ ____
ROOT
ATOM      1  C   UNL     1       0.056  11.127  19.419  0.00  0.00    +0.000 C 
ENDROOT
BRANCH   1   2
ATOM      2  C   UNL     1       0.866   9.780  19.416  0.00  0.00    +0.000 A 
ATOM      3  C   UNL     1       0.939   8.931  20.542  0.00  0.00    +0.000 A 
ATOM      4  C   UNL     1       1.681   7.739  20.524  0.00  0.00    +0.000 A 
ATOM      5  C   UNL     1       2.381   7.371  19.381  0.00  0.00    +0.000 A 
ATOM      6  C   UNL     1       2.358   8.202  18.268  0.00  0.00    +0.000 A 
ATOM      7  C   UNL     1       1.570   9.356  18.272  0.00  0.00    +0.000 A 
BRANCH   5   8
ATOM      8  O   UNL     1       3.133   6.177  19.439  0.00  0.00    +0.000 OA
BRANCH   8   9
ATOM      9  C   UNL     1       3.105   5.269  18.374  0.00  0.00    +0.000 C 
ATOM     10  O   UNL     1       2.090   4.947  17.760  0.00  0.00    +0.000 OA
ATOM     11  N   UNL     1       4.349   4.771  18.046  0.00  0.00    +0.000 N 
ATOM     12  C   UNL     1       5.577   4.985  18.808  0.00  0.00    +0.000 C 
ATOM     13  C   UNL     1       6.742   5.323  17.868  0.00  0.00    +0.000 C 
ATOM     14  O   UNL     1       6.871   4.356  16.812  0.00  0.00    +0.000 OA
ATOM     15  C   UNL     1       5.662   4.281  16.037  0.00  0.00    +0.000 C 
ATOM     16  C   UNL     1       4.486   3.853  16.917  0.00  0.00    +0.000 C 
ENDBRANCH   8   9
ENDBRANCH   5   8
ENDBRANCH   1   2
BRANCH   1  17
ATOM     17  C   UNL     1       1.051  12.329  19.460  0.00  0.00    +0.000 A 
ATOM     18  C   UNL     1       1.822  12.652  20.581  0.00  0.00    +0.000 A 
ATOM     19  C   UNL     1       2.701  13.756  20.596  0.00  0.00    +0.000 A 
ATOM     20  C   UNL     1       2.874  14.600  19.493  0.00  0.00    +0.000 A 
ATOM     21  C   UNL     1       2.082  14.288  18.379  0.00  0.00    +0.000 A 
ATOM     22  C   UNL     1       1.201  13.186  18.361  0.00  0.00    +0.000 A 
BRANCH  20  23
ATOM     23  N   UNL     1       3.816  15.717  19.495  0.00  0.00    +0.000 N 
ATOM     24  C   UNL     1       3.426  16.979  20.123  0.00  0.00    +0.000 C 
ATOM     25  C   UNL     1       5.075  15.658  18.852  0.00  0.00    +0.000 C 
ATOM     26  C   UNL     1       5.921  16.921  18.857  0.00  0.00    +0.000 C 
ATOM     27  O   UNL     1       5.568  14.674  18.304  0.00  0.00    +0.000 OA
ENDBRANCH  20  23
ENDBRANCH   1  17
BRANCH   1  29
ATOM     28  C   UNL     1      -1.855  10.132  17.902  0.00  0.00    +0.000 C 
ATOM     29  C   UNL     1      -0.822  11.241  18.113  0.00  0.00    +0.000 C 
ENDBRANCH   1  29
BRANCH   1  30
ATOM     30  C   UNL     1      -0.932  11.162  20.656  0.00  0.00    +0.000 C 
ATOM     31  C   UNL     1      -1.841  12.387  20.770  0.00  0.00    +0.000 C 
ENDBRANCH   1  30
TORSDOF 7
ENDMDL
MODEL 3
REMARK VINA RESULT:      -7.3      1.496      2.521
REMARK  Name = 
REMARK  11 active torsions:
REMARK  status: ('A' for Active; 'I' for Inactive)
REMARK    1  A    between atoms: C_1  and  C_2
REMARK    2  A    between atoms: C_2  and  C_3
REMARK    3  A    between atoms: C_3  and  C_4
REMARK    4  A    between atoms: C_3  and  C_6
REMARK    5  A    between atoms: C_3  and  C_21
REMARK    6  A    between atoms: C_4  and  C_5
REMARK    7  A    between atoms: C_9  and  O_10
REMARK    8  A    between atoms: O_10  and  C_11
REMARK    9  A    between atoms: C_24  and  N_25
REMARK   10  A    between atoms: N_25  and  C_26
REMARK   11  A    between atoms: C_27  and  C_28
REMARK                            x       y       z     vdW  Elec       q    Type
REMARK                         _______ _______ _______ _____ _____    ______ ____
ROOT
ATOM      1  C   UNL     1      -0.114  11.422  19.578  0.00  0.00    +0.000 C 
ENDROOT
BRANCH   1   2
ATOM      2  C   UNL     1       0.675  10.062  19.576  0.00  0.00    +0.000 A 
ATOM      3  C   UNL     1       0.772   9.236  20.716  0.00  0.00    +0.000 A 
ATOM      4  C   UNL     1       1.495   8.032  20.699  0.00  0.00    +0.000 A 
ATOM      5  C   UNL     1       2.150   7.629  19.541  0.00  0.00    +0.000 A 
ATOM      6  C   UNL     1       2.102   8.438  18.413  0.00  0.00    +0.000 A 
ATOM      7  C   UNL     1       1.333   9.604  18.418  0.00  0.00    +0.000 A 
BRANCH   5   8
ATOM      8  O   UNL     1       2.885   6.425  19.598  0.00  0.00    +0.000 OA
BRANCH   8   9
ATOM      9  C   UNL     1       3.025   5.624  18.459  0.00  0.00    +0.000 C 
ATOM     10  O   UNL     1       3.728   5.907  17.492  0.00  0.00    +0.000 OA
ATOM     11  N   UNL     1       2.308   4.447  18.525  0.00  0.00    +0.000 N 
ATOM     12  C   UNL     1       1.341   4.100  19.562  0.00  0.00    +0.000 C 
ATOM     13  C   UNL     1       1.544   2.650  20.025  0.00  0.00    +0.000 C 
ATOM     14  O   UNL     1       1.565   1.736  18.916  0.00  0.00    +0.000 OA
ATOM     15  C   UNL     1       2.614   2.075  17.994  0.00  0.00    +0.000 C 
ATOM     16  C   UNL     1       2.401   3.482  17.431  0.00  0.00    +0.000 C 
ENDBRANCH   8   9
ENDBRANCH   5   8
ENDBRANCH   1   2
BRANCH   1  17
ATOM     17  C   UNL     1       0.900  12.609  19.555  0.00  0.00    +0.000 A 
ATOM     18  C   UNL     1       0.973  13.538  18.512  0.00  0.00    +0.000 A 
ATOM     19  C   UNL     1       1.912  14.593  18.510  0.00  0.00    +0.000 A 
ATOM     20  C   UNL     1       2.828  14.793  19.550  0.00  0.00    +0.000 A 
ATOM     21  C   UNL     1       2.767  13.846  20.582  0.00  0.00    +0.000 A 
ATOM     22  C   UNL     1       1.831  12.789  20.587  0.00  0.00    +0.000 A 
BRANCH  20  23
ATOM     23  N   UNL     1       3.770  15.909  19.566  0.00  0.00    +0.000 N 
ATOM     24  C   UNL     1       3.400  17.146  20.255  0.00  0.00    +0.000 C 
ATOM     25  C   UNL     1       5.006  15.877  18.881  0.00  0.00    +0.000 C 
ATOM     26  C   UNL     1       5.852  17.140  18.908  0.00  0.00    +0.000 C 
ATOM     27  O   UNL     1       5.482  14.916  18.279  0.00  0.00    +0.000 OA
ENDBRANCH  20  23
ENDBRANCH   1  17
BRANCH   1  29
ATOM     28  C   UNL     1      -2.095  10.425  18.156  0.00  0.00    +0.000 C 
ATOM     29  C   UNL     1      -1.038  11.521  18.303  0.00  0.00    +0.000 C 
ENDBRANCH   1  29
BRANCH   1  30
ATOM     30  C   UNL     1      -1.055  11.502  20.850  0.00  0.00    +0.000 C 
ATOM     31  C   UNL     1      -1.860  12.790  21.025  0.00  0.00    +0.000 C 
ENDBRANCH   1  30
TORSDOF 7
ENDMDL
MODEL 4
REMARK VINA RESULT:      -7.1      1.514      2.541
REMARK  Name = 
REMARK  11 active torsions:
REMARK  status: ('A' for Active; 'I' for Inactive)
REMARK    1  A    between atoms: C_1  and  C_2
REMARK    2  A    between atoms: C_2  and  C_3
REMARK    3  A    between atoms: C_3  and  C_4
REMARK    4  A    between atoms: C_3  and  C_6
REMARK    5  A    between atoms: C_3  and  C_21
REMARK    6  A    between atoms: C_4  and  C_5
REMARK    7  A    between atoms: C_9  and  O_10
REMARK    8  A    between atoms: O_10  and  C_11
REMARK    9  A    between atoms: C_24  and  N_25
REMARK   10  A    between atoms: N_25  and  C_26
REMARK   11  A    between atoms: C_27  and  C_28
REMARK                            x       y       z     vdW  Elec       q    Type
REMARK                         _______ _______ _______ _____ _____    ______ ____
ROOT
ATOM      1  C   UNL     1      -0.125  11.241  19.590  0.00  0.00    +0.000 C 
ENDROOT
BRANCH   1   2
ATOM      2  C   UNL     1       0.723   9.918  19.626  0.00  0.00    +0.000 A 
ATOM      3  C   UNL     1       1.471   9.461  18.520  0.00  0.00    +0.000 A 
ATOM      4  C   UNL     1       2.210   8.267  18.568  0.00  0.00    +0.000 A 
ATOM      5  C   UNL     1       2.208   7.493  19.722  0.00  0.00    +0.000 A 
ATOM      6  C   UNL     1       1.454   7.898  20.816  0.00  0.00    +0.000 A 
ATOM      7  C   UNL     1       0.770   9.115  20.783  0.00  0.00    +0.000 A 
BRANCH   5   8
ATOM      8  O   UNL     1       2.946   6.289  19.694  0.00  0.00    +0.000 OA
BRANCH   8   9
ATOM      9  C   UNL     1       3.018   5.528  18.522  0.00  0.00    +0.000 C 
ATOM     10  O   UNL     1       3.679   5.833  17.532  0.00  0.00    +0.000 OA
ATOM     11  N   UNL     1       2.283   4.361  18.581  0.00  0.00    +0.000 N 
ATOM     12  C   UNL     1       1.360   3.993  19.651  0.00  0.00    +0.000 C 
ATOM     13  C   UNL     1       1.559   2.524  20.052  0.00  0.00    +0.000 C 
ATOM     14  O   UNL     1       1.511   1.650  18.912  0.00  0.00    +0.000 OA
ATOM     15  C   UNL     1       2.520   2.005  17.953  0.00  0.00    +0.000 C 
ATOM     16  C   UNL     1       2.306   3.435  17.450  0.00  0.00    +0.000 C 
ENDBRANCH   8   9
ENDBRANCH   5   8
ENDBRANCH   1   2
BRANCH   1  17
ATOM     17  C   UNL     1       0.835  12.472  19.602  0.00  0.00    +0.000 A 
ATOM     18  C   UNL     1       1.750  12.724  20.629  0.00  0.00    +0.000 A 
ATOM     19  C   UNL     1       2.595  13.856  20.622  0.00  0.00    +0.000 A 
ATOM     20  C   UNL     1       2.588  14.798  19.586  0.00  0.00    +0.000 A 
ATOM     21  C   UNL     1       1.654  14.554  18.571  0.00  0.00    +0.000 A 
ATOM     22  C   UNL     1       0.806  13.426  18.576  0.00  0.00    +0.000 A 
BRANCH  20  23
ATOM     23  N   UNL     1       3.493  15.945  19.560  0.00  0.00    +0.000 N 
ATOM     24  C   UNL     1       2.983  17.266  19.927  0.00  0.00    +0.000 C 
ATOM     25  C   UNL     1       4.835  15.850  19.124  0.00  0.00    +0.000 C 
ATOM     26  C   UNL     1       5.641  17.138  19.063  0.00  0.00    +0.000 C 
ATOM     27  O   UNL     1       5.429  14.821  18.807  0.00  0.00    +0.000 OA
ENDBRANCH  20  23
ENDBRANCH   1  17
BRANCH   1  29
ATOM     28  C   UNL     1      -2.006  10.156  18.098  0.00  0.00    +0.000 C 
ATOM     29  C   UNL     1      -1.002  11.295  18.279  0.00  0.00    +0.000 C 
ENDBRANCH   1  29
BRANCH   1  30
ATOM     30  C   UNL     1      -1.118  11.282  20.824  0.00  0.00    +0.000 C 
ATOM     31  C   UNL     1      -1.961  12.549  20.980  0.00  0.00    +0.000 C 
ENDBRANCH   1  30
TORSDOF 7
ENDMDL
MODEL 5
REMARK VINA RESULT:      -7.1      1.710      2.204
REMARK  Name = 
REMARK  11 active torsions:
REMARK  status: ('A' for Active; 'I' for Inactive)
REMARK    1  A    between atoms: C_1  and  C_2
REMARK    2  A    between atoms: C_2  and  C_3
REMARK    3  A    between atoms: C_3  and  C_4
REMARK    4  A    between atoms: C_3  and  C_6
REMARK    5  A    between atoms: C_3  and  C_21
REMARK    6  A    between atoms: C_4  and  C_5
REMARK    7  A    between atoms: C_9  and  O_10
REMARK    8  A    between atoms: O_10  and  C_11
REMARK    9  A    between atoms: C_24  and  N_25
REMARK   10  A    between atoms: N_25  and  C_26
REMARK   11  A    between atoms: C_27  and  C_28
REMARK                            x       y       z     vdW  Elec       q    Type
REMARK                         _______ _______ _______ _____ _____    ______ ____
ROOT
ATOM      1  C   UNL     1      -0.065  11.214  19.490  0.00  0.00    +0.000 C 
ENDROOT
BRANCH   1   2
ATOM      2  C   UNL     1       0.721   9.862  19.650  0.00  0.00    +0.000 A 
ATOM      3  C   UNL     1       1.449   9.274  18.594  0.00  0.00    +0.000 A 
ATOM      4  C   UNL     1       2.132   8.057  18.752  0.00  0.00    +0.000 A 
ATOM      5  C   UNL     1       2.094   7.390  19.971  0.00  0.00    +0.000 A 
ATOM      6  C   UNL     1       1.357   7.926  21.020  0.00  0.00    +0.000 A 
ATOM      7  C   UNL     1       0.729   9.165  20.874  0.00  0.00    +0.000 A 
BRANCH   5   8
ATOM      8  O   UNL     1       2.775   6.157  20.056  0.00  0.00    +0.000 OA
BRANCH   8   9
ATOM      9  C   UNL     1       2.063   4.952  20.074  0.00  0.00    +0.000 C 
ATOM     10  O   UNL     1       0.929   4.820  20.530  0.00  0.00    +0.000 OA
ATOM     11  N   UNL     1       2.748   3.902  19.497  0.00  0.00    +0.000 N 
ATOM     12  C   UNL     1       4.142   3.934  19.066  0.00  0.00    +0.000 C 
ATOM     13  C   UNL     1       4.295   3.274  17.688  0.00  0.00    +0.000 C 
ATOM     14  O   UNL     1       3.703   1.964  17.657  0.00  0.00    +0.000 OA
ATOM     15  C   UNL     1       2.305   2.027  17.984  0.00  0.00    +0.000 C 
ATOM     16  C   UNL     1       2.107   2.592  19.393  0.00  0.00    +0.000 C 
ENDBRANCH   8   9
ENDBRANCH   5   8
ENDBRANCH   1   2
BRANCH   1  17
ATOM     17  C   UNL     1       0.943  12.406  19.520  0.00  0.00    +0.000 A 
ATOM     18  C   UNL     1       1.735  12.716  20.630  0.00  0.00    +0.000 A 
ATOM     19  C   UNL     1       2.627  13.811  20.635  0.00  0.00    +0.000 A 
ATOM     20  C   UNL     1       2.791  14.657  19.532  0.00  0.00    +0.000 A 
ATOM     21  C   UNL     1       1.978  14.357  18.430  0.00  0.00    +0.000 A 
ATOM     22  C   UNL     1       1.085  13.265  18.422  0.00  0.00    +0.000 A 
BRANCH  20  23
ATOM     23  N   UNL     1       3.745  15.763  19.523  0.00  0.00    +0.000 N 
ATOM     24  C   UNL     1       3.427  16.986  20.262  0.00  0.00    +0.000 C 
ATOM     25  C   UNL     1       4.942  15.736  18.771  0.00  0.00    +0.000 C 
ATOM     26  C   UNL     1       5.803  16.990  18.783  0.00  0.00    +0.000 C 
ATOM     27  O   UNL     1       5.374  14.786  18.120  0.00  0.00    +0.000 OA
ENDBRANCH  20  23
ENDBRANCH   1  17
BRANCH   1  29
ATOM     28  C   UNL     1      -1.968  10.219  17.963  0.00  0.00    +0.000 C 
ATOM     29  C   UNL     1      -0.839  11.240  18.115  0.00  0.00    +0.000 C 
ENDBRANCH   1  29
BRANCH   1  30
ATOM     30  C   UNL     1      -1.145  11.353  20.641  0.00  0.00    +0.000 C 
ATOM     31  C   UNL     1      -1.940  12.658  20.678  0.00  0.00    +0.000 C 
ENDBRANCH   1  30
TORSDOF 7
ENDMDL
MODEL 6
REMARK VINA RESULT:      -7.1      3.398      5.809
REMARK  Name = 
REMARK  11 active torsions:
REMARK  status: ('A' for Active; 'I' for Inactive)
REMARK    1  A    between atoms: C_1  and  C_2
REMARK    2  A    between atoms: C_2  and  C_3
REMARK    3  A    between atoms: C_3  and  C_4
REMARK    4  A    between atoms: C_3  and  C_6
REMARK    5  A    between atoms: C_3  and  C_21
REMARK    6  A    between atoms: C_4  and  C_5
REMARK    7  A    between atoms: C_9  and  O_10
REMARK    8  A    between atoms: O_10  and  C_11
REMARK    9  A    between atoms: C_24  and  N_25
REMARK   10  A    between atoms: N_25  and  C_26
REMARK   11  A    between atoms: C_27  and  C_28
REMARK                            x       y       z     vdW  Elec       q    Type
REMARK                         _______ _______ _______ _____ _____    ______ ____
ROOT
ATOM      1  C   UNL     1       0.260  10.384  20.568  0.00  0.00    +0.000 C 
ENDROOT
BRANCH   1   2
ATOM      2  C   UNL     1       1.128   9.328  19.792  0.00  0.00    +0.000 A 
ATOM      3  C   UNL     1       1.537   9.513  18.454  0.00  0.00    +0.000 A 
ATOM      4  C   UNL     1       2.300   8.550  17.772  0.00  0.00    +0.000 A 
ATOM      5  C   UNL     1       2.662   7.370  18.410  0.00  0.00    +0.000 A 
ATOM      6  C   UNL     1       2.245   7.143  19.716  0.00  0.00    +0.000 A 
ATOM      7  C   UNL     1       1.539   8.129  20.407  0.00  0.00    +0.000 A 
BRANCH   5   8
ATOM      8  O   UNL     1       3.402   6.430  17.660  0.00  0.00    +0.000 OA
BRANCH   8   9
ATOM      9  C   UNL     1       4.146   5.435  18.305  0.00  0.00    +0.000 C 
ATOM     10  O   UNL     1       5.237   5.618  18.840  0.00  0.00    +0.000 OA
ATOM     11  N   UNL     1       3.523   4.204  18.313  0.00  0.00    +0.000 N 
ATOM     12  C   UNL     1       2.305   3.865  17.582  0.00  0.00    +0.000 C 
ATOM     13  C   UNL     1       1.347   3.062  18.475  0.00  0.00    +0.000 C 
ATOM     14  O   UNL     1       2.002   1.932  19.076  0.00  0.00    +0.000 OA
ATOM     15  C   UNL     1       3.124   2.354  19.869  0.00  0.00    +0.000 C 
ATOM     16  C   UNL     1       4.154   3.079  18.999  0.00  0.00    +0.000 C 
ENDBRANCH   8   9
ENDBRANCH   5   8
ENDBRANCH   1   2
BRANCH   1  17
ATOM     17  C   UNL     1      -1.012  10.726  19.731  0.00  0.00    +0.000 A 
ATOM     18  C   UNL     1      -1.480   9.928  18.681  0.00  0.00    +0.000 A 
ATOM     19  C   UNL     1      -2.624  10.271  17.929  0.00  0.00    +0.000 A 
ATOM     20  C   UNL     1      -3.379  11.423  18.183  0.00  0.00    +0.000 A 
ATOM     21  C   UNL     1      -2.894  12.231  19.220  0.00  0.00    +0.000 A 
ATOM     22  C   UNL     1      -1.749  11.893  19.972  0.00  0.00    +0.000 A 
BRANCH  20  23
ATOM     23  N   UNL     1      -4.588  11.753  17.431  0.00  0.00    +0.000 N 
ATOM     24  C   UNL     1      -4.606  11.551  15.983  0.00  0.00    +0.000 C 
ATOM     25  C   UNL     1      -5.729  12.331  18.034  0.00  0.00    +0.000 C 
ATOM     26  C   UNL     1      -6.886  12.706  17.121  0.00  0.00    +0.000 C 
ATOM     27  O   UNL     1      -5.892  12.543  19.235  0.00  0.00    +0.000 OA
ENDBRANCH  20  23
ENDBRANCH   1  17
BRANCH   1  29
ATOM     28  C   UNL     1      -0.807  10.806  22.940  0.00  0.00    +0.000 C 
ATOM     29  C   UNL     1      -0.193   9.802  21.963  0.00  0.00    +0.000 C 
ENDBRANCH   1  29
BRANCH   1  30
ATOM     30  C   UNL     1       1.118  11.684  20.857  0.00  0.00    +0.000 C 
ATOM     31  C   UNL     1       1.497  12.536  19.644  0.00  0.00    +0.000 C 
ENDBRANCH   1  30
TORSDOF 7
ENDMDL
MODEL 7
REMARK VINA RESULT:      -7.1      3.423      6.000
REMARK  Name = 
REMARK  11 active torsions:
REMARK  status: ('A' for Active; 'I' for Inactive)
REMARK    1  A    between atoms: C_1  and  C_2
REMARK    2  A    between atoms: C_2  and  C_3
REMARK    3  A    between atoms: C_3  and  C_4
REMARK    4  A    between atoms: C_3  and  C_6
REMARK    5  A    between atoms: C_3  and  C_21
REMARK    6  A    between atoms: C_4  and  C_5
REMARK    7  A    between atoms: C_9  and  O_10
REMARK    8  A    between atoms: O_10  and  C_11
REMARK    9  A    between atoms: C_24  and  N_25
REMARK   10  A    between atoms: N_25  and  C_26
REMARK   11  A    between atoms: C_27  and  C_28
REMARK                            x       y       z     vdW  Elec       q    Type
REMARK                         _______ _______ _______ _____ _____    ______ ____
ROOT
ATOM      1  C   UNL     1       0.864  11.052  19.917  0.00  0.00    +0.000 C 
ENDROOT
BRANCH   1   2
ATOM      2  C   UNL     1       1.456   9.695  19.389  0.00  0.00    +0.000 A 
ATOM      3  C   UNL     1       1.928   9.531  18.069  0.00  0.00    +0.000 A 
ATOM      4  C   UNL     1       2.439   8.306  17.611  0.00  0.00    +0.000 A 
ATOM      5  C   UNL     1       2.481   7.207  18.462  0.00  0.00    +0.000 A 
ATOM      6  C   UNL     1       1.992   7.327  19.756  0.00  0.00    +0.000 A 
ATOM      7  C   UNL     1       1.539   8.563  20.223  0.00  0.00    +0.000 A 
BRANCH   5   8
ATOM      8  O   UNL     1       2.978   5.997  17.931  0.00  0.00    +0.000 OA
BRANCH   8   9
ATOM      9  C   UNL     1       3.725   5.125  18.732  0.00  0.00    +0.000 C 
ATOM     10  O   UNL     1       4.902   5.298  19.037  0.00  0.00    +0.000 OA
ATOM     11  N   UNL     1       3.002   4.040  19.182  0.00  0.00    +0.000 N 
ATOM     12  C   UNL     1       1.653   3.682  18.754  0.00  0.00    +0.000 C 
ATOM     13  C   UNL     1       0.789   3.293  19.963  0.00  0.00    +0.000 C 
ATOM     14  O   UNL     1       1.430   2.293  20.774  0.00  0.00    +0.000 OA
ATOM     15  C   UNL     1       2.703   2.760  21.250  0.00  0.00    +0.000 C 
ATOM     16  C   UNL     1       3.634   3.071  20.076  0.00  0.00    +0.000 C 
ENDBRANCH   8   9
ENDBRANCH   5   8
ENDBRANCH   1   2
BRANCH   1  17
ATOM     17  C   UNL     1      -0.603  11.211  19.405  0.00  0.00    +0.000 A 
ATOM     18  C   UNL     1      -1.408  12.314  19.708  0.00  0.00    +0.000 A 
ATOM     19  C   UNL     1      -2.737  12.423  19.246  0.00  0.00    +0.000 A 
ATOM     20  C   UNL     1      -3.342  11.448  18.444  0.00  0.00    +0.000 A 
ATOM     21  C   UNL     1      -2.540  10.334  18.162  0.00  0.00    +0.000 A 
ATOM     22  C   UNL     1      -1.212  10.219  18.625  0.00  0.00    +0.000 A 
BRANCH  20  23
ATOM     23  N   UNL     1      -4.703  11.583  17.931  0.00  0.00    +0.000 N 
ATOM     24  C   UNL     1      -4.918  11.646  16.485  0.00  0.00    +0.000 C 
ATOM     25  C   UNL     1      -5.828  11.728  18.775  0.00  0.00    +0.000 C 
ATOM     26  C   UNL     1      -7.177  11.949  18.108  0.00  0.00    +0.000 C 
ATOM     27  O   UNL     1      -5.831  11.672  20.003  0.00  0.00    +0.000 OA
ENDBRANCH  20  23
ENDBRANCH   1  17
BRANCH   1  29
ATOM     28  C   UNL     1      -0.437  10.589  22.162  0.00  0.00    +0.000 C 
ATOM     29  C   UNL     1       0.854  11.068  21.495  0.00  0.00    +0.000 C 
ENDBRANCH   1  29
BRANCH   1  30
ATOM     30  C   UNL     1       1.768  12.261  19.438  0.00  0.00    +0.000 C 
ATOM     31  C   UNL     1       2.151  13.291  20.502  0.00  0.00    +0.000 C 
ENDBRANCH   1  30
TORSDOF 7
ENDMDL
MODEL 8
REMARK VINA RESULT:      -7.1      1.141      1.599
REMARK  Name = 
REMARK  11 active torsions:
REMARK  status: ('A' for Active; 'I' for Inactive)
REMARK    1  A    between atoms: C_1  and  C_2
REMARK    2  A    between atoms: C_2  and  C_3
REMARK    3  A    between atoms: C_3  and  C_4
REMARK    4  A    between atoms: C_3  and  C_6
REMARK    5  A    between atoms: C_3  and  C_21
REMARK    6  A    between atoms: C_4  and  C_5
REMARK    7  A    between atoms: C_9  and  O_10
REMARK    8  A    between atoms: O_10  and  C_11
REMARK    9  A    between atoms: C_24  and  N_25
REMARK   10  A    between atoms: N_25  and  C_26
REMARK   11  A    between atoms: C_27  and  C_28
REMARK                            x       y       z     vdW  Elec       q    Type
REMARK                         _______ _______ _______ _____ _____    ______ ____
ROOT
ATOM      1  C   UNL     1      -0.147  11.094  19.522  0.00  0.00    +0.000 C 
ENDROOT
BRANCH   1   2
ATOM      2  C   UNL     1       0.673   9.753  19.561  0.00  0.00    +0.000 A 
ATOM      3  C   UNL     1       0.712   8.915  20.697  0.00  0.00    +0.000 A 
ATOM      4  C   UNL     1       1.463   7.729  20.717  0.00  0.00    +0.000 A 
ATOM      5  C   UNL     1       2.206   7.357  19.603  0.00  0.00    +0.000 A 
ATOM      6  C   UNL     1       2.216   8.177  18.482  0.00  0.00    +0.000 A 
ATOM      7  C   UNL     1       1.420   9.324  18.447  0.00  0.00    +0.000 A 
BRANCH   5   8
ATOM      8  O   UNL     1       2.965   6.169  19.699  0.00  0.00    +0.000 OA
BRANCH   8   9
ATOM      9  C   UNL     1       2.908   5.207  18.684  0.00  0.00    +0.000 C 
ATOM     10  O   UNL     1       1.870   4.810  18.159  0.00  0.00    +0.000 OA
ATOM     11  N   UNL     1       4.149   4.748  18.294  0.00  0.00    +0.000 N 
ATOM     12  C   UNL     1       5.414   5.055  18.957  0.00  0.00    +0.000 C 
ATOM     13  C   UNL     1       6.496   5.395  17.922  0.00  0.00    +0.000 C 
ATOM     14  O   UNL     1       6.598   4.381  16.908  0.00  0.00    +0.000 OA
ATOM     15  C   UNL     1       5.345   4.214  16.224  0.00  0.00    +0.000 C 
ATOM     16  C   UNL     1       4.252   3.781  17.203  0.00  0.00    +0.000 C 
ENDBRANCH   8   9
ENDBRANCH   5   8
ENDBRANCH   1   2
BRANCH   1  17
ATOM     17  C   UNL     1       0.838  12.305  19.550  0.00  0.00    +0.000 A 
ATOM     18  C   UNL     1       0.911  13.260  18.531  0.00  0.00    +0.000 A 
ATOM     19  C   UNL     1       1.823  14.336  18.575  0.00  0.00    +0.000 A 
ATOM     20  C   UNL     1       2.711  14.533  19.640  0.00  0.00    +0.000 A 
ATOM     21  C   UNL     1       2.651  13.560  20.647  0.00  0.00    +0.000 A 
ATOM     22  C   UNL     1       1.742  12.482  20.606  0.00  0.00    +0.000 A 
BRANCH  20  23
ATOM     23  N   UNL     1       3.625  15.671  19.703  0.00  0.00    +0.000 N 
ATOM     24  C   UNL     1       4.892  15.611  18.975  0.00  0.00    +0.000 C 
ATOM     25  C   UNL     1       3.372  16.811  20.501  0.00  0.00    +0.000 C 
ATOM     26  C   UNL     1       4.448  17.885  20.544  0.00  0.00    +0.000 C 
ATOM     27  O   UNL     1       2.353  17.036  21.151  0.00  0.00    +0.000 OA
ENDBRANCH  20  23
ENDBRANCH   1  17
BRANCH   1  29
ATOM     28  C   UNL     1      -2.138  10.147  18.078  0.00  0.00    +0.000 C 
ATOM     29  C   UNL     1      -1.009  11.171  18.202  0.00  0.00    +0.000 C 
ENDBRANCH   1  29
BRANCH   1  30
ATOM     30  C   UNL     1      -1.153  11.150  20.745  0.00  0.00    +0.000 C 
ATOM     31  C   UNL     1      -1.861  12.483  20.987  0.00  0.00    +0.000 C 
ENDBRANCH   1  30
TORSDOF 7
ENDMDL
MODEL 9
REMARK VINA RESULT:      -7.1      1.361      2.440
REMARK  Name = 
REMARK  11 active torsions:
REMARK  status: ('A' for Active; 'I' for Inactive)
REMARK    1  A    between atoms: C_1  and  C_2
REMARK    2  A    between atoms: C_2  and  C_3
REMARK    3  A    between atoms: C_3  and  C_4
REMARK    4  A    between atoms: C_3  and  C_6
REMARK    5  A    between atoms: C_3  and  C_21
REMARK    6  A    between atoms: C_4  and  C_5
REMARK    7  A    between atoms: C_9  and  O_10
REMARK    8  A    between atoms: O_10  and  C_11
REMARK    9  A    between atoms: C_24  and  N_25
REMARK   10  A    between atoms: N_25  and  C_26
REMARK   11  A    between atoms: C_27  and  C_28
REMARK                            x       y       z     vdW  Elec       q    Type
REMARK                         _______ _______ _______ _____ _____    ______ ____
ROOT
ATOM      1  C   UNL     1      -0.016  11.331  19.506  0.00  0.00    +0.000 C 
ENDROOT
BRANCH   1   2
ATOM      2  C   UNL     1       0.701   9.939  19.638  0.00  0.00    +0.000 A 
ATOM      3  C   UNL     1       0.691   9.185  20.830  0.00  0.00    +0.000 A 
ATOM      4  C   UNL     1       1.351   7.950  20.932  0.00  0.00    +0.000 A 
ATOM      5  C   UNL     1       2.051   7.443  19.844  0.00  0.00    +0.000 A 
ATOM      6  C   UNL     1       2.110   8.177  18.666  0.00  0.00    +0.000 A 
ATOM      7  C   UNL     1       1.401   9.376  18.552  0.00  0.00    +0.000 A 
BRANCH   5   8
ATOM      8  O   UNL     1       2.719   6.211  20.021  0.00  0.00    +0.000 OA
BRANCH   8   9
ATOM      9  C   UNL     1       3.517   5.684  18.999  0.00  0.00    +0.000 C 
ATOM     10  O   UNL     1       4.619   6.123  18.678  0.00  0.00    +0.000 OA
ATOM     11  N   UNL     1       2.959   4.582  18.382  0.00  0.00    +0.000 N 
ATOM     12  C   UNL     1       1.603   4.085  18.598  0.00  0.00    +0.000 C 
ATOM     13  C   UNL     1       1.607   2.557  18.743  0.00  0.00    +0.000 C 
ATOM     14  O   UNL     1       2.297   1.921  17.653  0.00  0.00    +0.000 OA
ATOM     15  C   UNL     1       3.657   2.378  17.572  0.00  0.00    +0.000 C 
ATOM     16  C   UNL     1       3.702   3.889  17.332  0.00  0.00    +0.000 C 
ENDBRANCH   8   9
ENDBRANCH   5   8
ENDBRANCH   1   2
BRANCH   1  17
ATOM     17  C   UNL     1       1.054  12.468  19.511  0.00  0.00    +0.000 A 
ATOM     18  C   UNL     1       1.824  12.795  20.632  0.00  0.00    +0.000 A 
ATOM     19  C   UNL     1       2.773  13.840  20.613  0.00  0.00    +0.000 A 
ATOM     20  C   UNL     1       3.021  14.616  19.474  0.00  0.00    +0.000 A 
ATOM     21  C   UNL     1       2.230  14.301  18.361  0.00  0.00    +0.000 A 
ATOM     22  C   UNL     1       1.279  13.259  18.376  0.00  0.00    +0.000 A 
BRANCH  20  23
ATOM     23  N   UNL     1       4.033  15.669  19.444  0.00  0.00    +0.000 N 
ATOM     24  C   UNL     1       3.769  16.934  20.129  0.00  0.00    +0.000 C 
ATOM     25  C   UNL     1       5.241  15.547  18.718  0.00  0.00    +0.000 C 
ATOM     26  C   UNL     1       6.168  16.753  18.699  0.00  0.00    +0.000 C 
ATOM     27  O   UNL     1       5.632  14.551  18.112  0.00  0.00    +0.000 OA
ENDBRANCH  20  23
ENDBRANCH   1  17
BRANCH   1  29
ATOM     28  C   UNL     1      -1.860  10.299  17.932  0.00  0.00    +0.000 C 
ATOM     29  C   UNL     1      -0.827  11.405  18.154  0.00  0.00    +0.000 C 
ENDBRANCH   1  29
BRANCH   1  30
ATOM     30  C   UNL     1      -1.053  11.520  20.689  0.00  0.00    +0.000 C 
ATOM     31  C   UNL     1      -1.907  12.789  20.653  0.00  0.00    +0.000 C 
ENDBRANCH   1  30
TORSDOF 7
ENDMDL
