MODEL 1
REMARK VINA RESULT:      -8.6      0.000      0.000
REMARK  Name = 
REMARK  7 active torsions:
REMARK  status: ('A' for Active; 'I' for Inactive)
REMARK    1  A    between atoms: C_1  and  C_2
REMARK    2  A    between atoms: C_6  and  C_7
REMARK    3  A    between atoms: N_9  and  C_10
REMARK    4  A    between atoms: C_10  and  N_12
REMARK    5  A    between atoms: N_12  and  C_13
REMARK    6  A    between atoms: C_16  and  S_17
REMARK    7  A    between atoms: S_17  and  N_20
REMARK                            x       y       z     vdW  Elec       q    Type
REMARK                         _______ _______ _______ _____ _____    ______ ____
ROOT
ATOM      1  N   UNL     1       1.433   8.967  20.579  0.00  0.00    +0.000 N 
ATOM      2  H   UNL     1       2.102   9.724  20.475  0.00  0.00    +0.000 HD
ENDROOT
BRANCH   1   3
ATOM      3  C   UNL     1       1.815   7.714  20.052  0.00  0.00    +0.000 A 
ATOM      4  C   UNL     1       1.716   6.531  20.798  0.00  0.00    +0.000 A 
ATOM      5  C   UNL     1       2.070   5.304  20.240  0.00  0.00    +0.000 A 
ATOM      6  C   UNL     1       2.499   5.254  18.911  0.00  0.00    +0.000 A 
ATOM      7  C   UNL     1       2.614   6.430  18.161  0.00  0.00    +0.000 A 
ATOM      8  C   UNL     1       2.243   7.655  18.725  0.00  0.00    +0.000 A 
BRANCH   6   9
ATOM      9  S   UNL     1       2.961   3.679  18.199  0.00  0.00    +0.000 S 
ATOM     10  O   UNL     1       2.922   2.708  19.270  0.00  0.00    +0.000 OA
ATOM     11  O   UNL     1       2.170   3.506  17.000  0.00  0.00    +0.000 OA
BRANCH   9  12
ATOM     12  N   UNL     1       4.599   3.915  17.737  0.00  0.00    +0.000 NA
ATOM     13  C   UNL     1       4.814   4.160  16.286  0.00  0.00    +0.000 C 
ATOM     14  C   UNL     1       6.296   4.192  15.934  0.00  0.00    +0.000 C 
ATOM     15  C   UNL     1       7.041   5.193  16.805  0.00  0.00    +0.000 C 
ATOM     16  C   UNL     1       6.861   4.815  18.267  0.00  0.00    +0.000 C 
ATOM     17  C   UNL     1       5.386   4.785  18.649  0.00  0.00    +0.000 C 
ENDBRANCH   9  12
ENDBRANCH   6   9
ENDBRANCH   1   3
BRANCH   1  18
ATOM     18  C   UNL     1       0.154   9.365  20.922  0.00  0.00    +0.000 C 
ATOM     19  S   UNL     1      -0.269   9.390  22.532  0.00  0.00    +0.000 S 
BRANCH  18  22
ATOM     20  C   UNL     1      -1.036  10.828  19.269  0.00  0.00    +0.000 C 
ATOM     21  O   UNL     1      -0.491  11.897  19.540  0.00  0.00    +0.000 OA
ATOM     22  N   UNL     1      -0.660   9.616  19.827  0.00  0.00    +0.000 N 
ATOM     23  H   UNL     1      -1.029   8.774  19.419  0.00  0.00    +0.000 HD
BRANCH  20  29
ATOM     24  C   UNL     1      -5.493  12.186  17.176  0.00  0.00    +0.000 C 
ATOM     25  C   UNL     1      -4.195  11.432  17.142  0.00  0.00    +0.000 A 
ATOM     26  C   UNL     1      -3.875  10.640  16.033  0.00  0.00    +0.000 A 
ATOM     27  C   UNL     1      -2.680   9.931  15.993  0.00  0.00    +0.000 A 
ATOM     28  C   UNL     1      -1.788  10.012  17.063  0.00  0.00    +0.000 A 
ATOM     29  C   UNL     1      -2.074  10.803  18.184  0.00  0.00    +0.000 A 
ATOM     30  C   UNL     1      -3.293  11.508  18.221  0.00  0.00    +0.000 A 
ENDBRANCH  20  29
ENDBRANCH  18  22
ENDBRANCH   1  18
TORSDOF 6
ENDMDL
MODEL 2
REMARK VINA RESULT:      -8.4      1.741      8.961
REMARK  Name = 
REMARK  7 active torsions:
REMARK  status: ('A' for Active; 'I' for Inactive)
REMARK    1  A    between atoms: C_1  and  C_2
REMARK    2  A    between atoms: C_6  and  C_7
REMARK    3  A    between atoms: N_9  and  C_10
REMARK    4  A    between atoms: C_10  and  N_12
REMARK    5  A    between atoms: N_12  and  C_13
REMARK    6  A    between atoms: C_16  and  S_17
REMARK    7  A    between atoms: S_17  and  N_20
REMARK                            x       y       z     vdW  Elec       q    Type
REMARK                         _______ _______ _______ _____ _____    ______ ____
ROOT
ATOM      1  N   UNL     1       2.417   5.453  20.396  0.00  0.00    +0.000 N 
ATOM      2  H   UNL     1       2.705   5.206  21.338  0.00  0.00    +0.000 HD
ENDROOT
BRANCH   1   3
ATOM      3  C   UNL     1       1.929   6.765  20.212  0.00  0.00    +0.000 A 
ATOM      4  C   UNL     1       1.143   7.410  21.178  0.00  0.00    +0.000 A 
ATOM      5  C   UNL     1       0.703   8.718  20.982  0.00  0.00    +0.000 A 
ATOM      6  C   UNL     1       1.075   9.400  19.821  0.00  0.00    +0.000 A 
ATOM      7  C   UNL     1       1.847   8.762  18.844  0.00  0.00    +0.000 A 
ATOM      8  C   UNL     1       2.297   7.455  19.056  0.00  0.00    +0.000 A 
BRANCH   6   9
ATOM      9  S   UNL     1       0.501  11.076  19.569  0.00  0.00    +0.000 S 
ATOM     10  O   UNL     1       0.457  11.704  20.870  0.00  0.00    +0.000 OA
ATOM     11  O   UNL     1       1.286  11.636  18.491  0.00  0.00    +0.000 OA
BRANCH   9  12
ATOM     12  N   UNL     1      -1.111  10.865  19.010  0.00  0.00    +0.000 NA
ATOM     13  C   UNL     1      -1.996  12.048  19.183  0.00  0.00    +0.000 C 
ATOM     14  C   UNL     1      -3.440  11.727  18.820  0.00  0.00    +0.000 C 
ATOM     15  C   UNL     1      -3.532  11.136  17.420  0.00  0.00    +0.000 C 
ATOM     16  C   UNL     1      -2.687   9.874  17.354  0.00  0.00    +0.000 C 
ATOM     17  C   UNL     1      -1.232  10.169  17.703  0.00  0.00    +0.000 C 
ENDBRANCH   9  12
ENDBRANCH   6   9
ENDBRANCH   1   3
BRANCH   1  18
ATOM     18  C   UNL     1       2.251   4.381  19.539  0.00  0.00    +0.000 C 
ATOM     19  S   UNL     1       1.050   3.275  19.869  0.00  0.00    +0.000 S 
BRANCH  18  22
ATOM     20  C   UNL     1       4.550   4.017  18.608  0.00  0.00    +0.000 C 
ATOM     21  O   UNL     1       5.071   3.500  19.595  0.00  0.00    +0.000 OA
ATOM     22  N   UNL     1       3.201   4.326  18.530  0.00  0.00    +0.000 N 
ATOM     23  H   UNL     1       2.824   4.573  17.631  0.00  0.00    +0.000 HD
BRANCH  20  29
ATOM     24  C   UNL     1       5.302   3.976  13.556  0.00  0.00    +0.000 C 
ATOM     25  C   UNL     1       5.783   4.208  14.960  0.00  0.00    +0.000 A 
ATOM     26  C   UNL     1       7.094   4.643  15.186  0.00  0.00    +0.000 A 
ATOM     27  C   UNL     1       7.553   4.854  16.482  0.00  0.00    +0.000 A 
ATOM     28  C   UNL     1       6.702   4.634  17.565  0.00  0.00    +0.000 A 
ATOM     29  C   UNL     1       5.381   4.207  17.371  0.00  0.00    +0.000 A 
ATOM     30  C   UNL     1       4.929   3.984  16.057  0.00  0.00    +0.000 A 
ENDBRANCH  20  29
ENDBRANCH  18  22
ENDBRANCH   1  18
TORSDOF 6
ENDMDL
MODEL 3
REMARK VINA RESULT:      -8.4      1.678      9.113
REMARK  Name = 
REMARK  7 active torsions:
REMARK  status: ('A' for Active; 'I' for Inactive)
REMARK    1  A    between atoms: C_1  and  C_2
REMARK    2  A    between atoms: C_6  and  C_7
REMARK    3  A    between atoms: N_9  and  C_10
REMARK    4  A    between atoms: C_10  and  N_12
REMARK    5  A    between atoms: N_12  and  C_13
REMARK    6  A    between atoms: C_16  and  S_17
REMARK    7  A    between atoms: S_17  and  N_20
REMARK                            x       y       z     vdW  Elec       q    Type
REMARK                         _______ _______ _______ _____ _____    ______ ____
ROOT
ATOM      1  N   UNL     1       2.693   5.965  20.098  0.00  0.00    +0.000 N 
ATOM      2  H   UNL     1       3.114   5.759  21.000  0.00  0.00    +0.000 HD
ENDROOT
BRANCH   1   3
ATOM      3  C   UNL     1       2.110   7.243  19.954  0.00  0.00    +0.000 A 
ATOM      4  C   UNL     1       2.219   7.982  18.767  0.00  0.00    +0.000 A 
ATOM      5  C   UNL     1       1.606   9.227  18.643  0.00  0.00    +0.000 A 
ATOM      6  C   UNL     1       0.850   9.728  19.706  0.00  0.00    +0.000 A 
ATOM      7  C   UNL     1       0.746   9.006  20.901  0.00  0.00    +0.000 A 
ATOM      8  C   UNL     1       1.353   7.750  21.011  0.00  0.00    +0.000 A 
BRANCH   6   9
ATOM      9  S   UNL     1       0.071  11.331  19.548  0.00  0.00    +0.000 S 
ATOM     10  O   UNL     1      -0.085  11.854  20.887  0.00  0.00    +0.000 OA
ATOM     11  O   UNL     1       0.804  12.062  18.537  0.00  0.00    +0.000 OA
BRANCH   9  12
ATOM     12  N   UNL     1      -1.485  10.958  18.923  0.00  0.00    +0.000 NA
ATOM     13  C   UNL     1      -2.487  12.051  19.036  0.00  0.00    +0.000 C 
ATOM     14  C   UNL     1      -3.876  11.587  18.614  0.00  0.00    +0.000 C 
ATOM     15  C   UNL     1      -3.846  10.973  17.223  0.00  0.00    +0.000 C 
ATOM     16  C   UNL     1      -2.881   9.798  17.215  0.00  0.00    +0.000 C 
ATOM     17  C   UNL     1      -1.480  10.236  17.623  0.00  0.00    +0.000 C 
ENDBRANCH   9  12
ENDBRANCH   6   9
ENDBRANCH   1   3
BRANCH   1  18
ATOM     18  C   UNL     1       2.478   4.862  19.292  0.00  0.00    +0.000 C 
ATOM     19  S   UNL     1       1.299   3.771  19.730  0.00  0.00    +0.000 S 
BRANCH  18  22
ATOM     20  C   UNL     1       4.628   4.189  18.189  0.00  0.00    +0.000 C 
ATOM     21  O   UNL     1       5.057   3.438  19.064  0.00  0.00    +0.000 OA
ATOM     22  N   UNL     1       3.369   4.770  18.233  0.00  0.00    +0.000 N 
ATOM     23  H   UNL     1       3.027   5.218  17.400  0.00  0.00    +0.000 HD
BRANCH  20  29
ATOM     24  C   UNL     1       5.582   3.624  13.204  0.00  0.00    +0.000 C 
ATOM     25  C   UNL     1       5.939   4.151  14.564  0.00  0.00    +0.000 A 
ATOM     26  C   UNL     1       7.107   4.902  14.738  0.00  0.00    +0.000 A 
ATOM     27  C   UNL     1       7.452   5.389  15.995  0.00  0.00    +0.000 A 
ATOM     28  C   UNL     1       6.628   5.132  17.090  0.00  0.00    +0.000 A 
ATOM     29  C   UNL     1       5.446   4.391  16.947  0.00  0.00    +0.000 A 
ATOM     30  C   UNL     1       5.111   3.892  15.674  0.00  0.00    +0.000 A 
ENDBRANCH  20  29
ENDBRANCH  18  22
ENDBRANCH   1  18
TORSDOF 6
ENDMDL
MODEL 4
REMARK VINA RESULT:      -8.3      1.723      8.876
REMARK  Name = 
REMARK  7 active torsions:
REMARK  status: ('A' for Active; 'I' for Inactive)
REMARK    1  A    between atoms: C_1  and  C_2
REMARK    2  A    between atoms: C_6  and  C_7
REMARK    3  A    between atoms: N_9  and  C_10
REMARK    4  A    between atoms: C_10  and  N_12
REMARK    5  A    between atoms: N_12  and  C_13
REMARK    6  A    between atoms: C_16  and  S_17
REMARK    7  A    between atoms: S_17  and  N_20
REMARK                            x       y       z     vdW  Elec       q    Type
REMARK                         _______ _______ _______ _____ _____    ______ ____
ROOT
ATOM      1  N   UNL     1       2.261   5.894  20.638  0.00  0.00    +0.000 N 
ATOM      2  H   UNL     1       2.444   5.706  21.620  0.00  0.00    +0.000 HD
ENDROOT
BRANCH   1   3
ATOM      3  C   UNL     1       1.816   7.196  20.320  0.00  0.00    +0.000 A 
ATOM      4  C   UNL     1       1.037   7.954  21.206  0.00  0.00    +0.000 A 
ATOM      5  C   UNL     1       0.641   9.249  20.878  0.00  0.00    +0.000 A 
ATOM      6  C   UNL     1       1.051   9.804  19.663  0.00  0.00    +0.000 A 
ATOM      7  C   UNL     1       1.817   9.052  18.765  0.00  0.00    +0.000 A 
ATOM      8  C   UNL     1       2.222   7.758  19.110  0.00  0.00    +0.000 A 
BRANCH   6   9
ATOM      9  S   UNL     1       0.533  11.464  19.240  0.00  0.00    +0.000 S 
ATOM     10  O   UNL     1       0.221  12.134  20.482  0.00  0.00    +0.000 OA
ATOM     11  O   UNL     1       1.520  11.998  18.327  0.00  0.00    +0.000 OA
BRANCH   9  12
ATOM     12  N   UNL     1      -0.929  11.216  18.371  0.00  0.00    +0.000 NA
ATOM     13  C   UNL     1      -1.051   9.889  17.713  0.00  0.00    +0.000 C 
ATOM     14  C   UNL     1      -2.292   9.811  16.831  0.00  0.00    +0.000 C 
ATOM     15  C   UNL     1      -3.542  10.184  17.614  0.00  0.00    +0.000 C 
ATOM     16  C   UNL     1      -3.384  11.592  18.166  0.00  0.00    +0.000 C 
ATOM     17  C   UNL     1      -2.154  11.697  19.061  0.00  0.00    +0.000 C 
ENDBRANCH   9  12
ENDBRANCH   6   9
ENDBRANCH   1   3
BRANCH   1  18
ATOM     18  C   UNL     1       2.167   4.769  19.839  0.00  0.00    +0.000 C 
ATOM     19  S   UNL     1       1.015   3.624  20.206  0.00  0.00    +0.000 S 
BRANCH  18  22
ATOM     20  C   UNL     1       4.325   3.985  18.832  0.00  0.00    +0.000 C 
ATOM     21  O   UNL     1       4.580   3.078  19.622  0.00  0.00    +0.000 OA
ATOM     22  N   UNL     1       3.142   4.707  18.855  0.00  0.00    +0.000 N 
ATOM     23  H   UNL     1       2.936   5.300  18.069  0.00  0.00    +0.000 HD
BRANCH  20  29
ATOM     24  C   UNL     1       5.640   4.115  13.899  0.00  0.00    +0.000 C 
ATOM     25  C   UNL     1       5.949   4.331  15.352  0.00  0.00    +0.000 A 
ATOM     26  C   UNL     1       7.203   4.820  15.735  0.00  0.00    +0.000 A 
ATOM     27  C   UNL     1       7.503   5.017  17.079  0.00  0.00    +0.000 A 
ATOM     28  C   UNL     1       6.548   4.729  18.053  0.00  0.00    +0.000 A 
ATOM     29  C   UNL     1       5.279   4.246  17.702  0.00  0.00    +0.000 A 
ATOM     30  C   UNL     1       4.989   4.039  16.340  0.00  0.00    +0.000 A 
ENDBRANCH  20  29
ENDBRANCH  18  22
ENDBRANCH   1  18
TORSDOF 6
ENDMDL
MODEL 5
REMARK VINA RESULT:      -8.3      1.555      2.398
REMARK  Name = 
REMARK  7 active torsions:
REMARK  status: ('A' for Active; 'I' for Inactive)
REMARK    1  A    between atoms: C_1  and  C_2
REMARK    2  A    between atoms: C_6  and  C_7
REMARK    3  A    between atoms: N_9  and  C_10
REMARK    4  A    between atoms: C_10  and  N_12
REMARK    5  A    between atoms: N_12  and  C_13
REMARK    6  A    between atoms: C_16  and  S_17
REMARK    7  A    between atoms: S_17  and  N_20
REMARK                            x       y       z     vdW  Elec       q    Type
REMARK                         _______ _______ _______ _____ _____    ______ ____
ROOT
ATOM      1  N   UNL     1       1.128  10.333  19.855  0.00  0.00    +0.000 N 
ATOM      2  H   UNL     1       1.120  10.584  20.840  0.00  0.00    +0.000 HD
ENDROOT
BRANCH   1   3
ATOM      3  C   UNL     1       1.580   9.032  19.542  0.00  0.00    +0.000 A 
ATOM      4  C   UNL     1       2.049   8.694  18.265  0.00  0.00    +0.000 A 
ATOM      5  C   UNL     1       2.519   7.411  17.995  0.00  0.00    +0.000 A 
ATOM      6  C   UNL     1       2.549   6.461  19.019  0.00  0.00    +0.000 A 
ATOM      7  C   UNL     1       2.070   6.783  20.295  0.00  0.00    +0.000 A 
ATOM      8  C   UNL     1       1.613   8.079  20.560  0.00  0.00    +0.000 A 
BRANCH   6   9
ATOM      9  S   UNL     1       3.144   4.811  18.667  0.00  0.00    +0.000 S 
ATOM     10  O   UNL     1       3.188   4.104  19.928  0.00  0.00    +0.000 OA
ATOM     11  O   UNL     1       2.372   4.309  17.552  0.00  0.00    +0.000 OA
BRANCH   9  12
ATOM     12  N   UNL     1       4.756   5.074  18.133  0.00  0.00    +0.000 NA
ATOM     13  C   UNL     1       5.756   5.259  19.218  0.00  0.00    +0.000 C 
ATOM     14  C   UNL     1       7.120   5.651  18.665  0.00  0.00    +0.000 C 
ATOM     15  C   UNL     1       7.588   4.657  17.611  0.00  0.00    +0.000 C 
ATOM     16  C   UNL     1       6.566   4.603  16.487  0.00  0.00    +0.000 C 
ATOM     17  C   UNL     1       5.192   4.203  17.011  0.00  0.00    +0.000 C 
ENDBRANCH   9  12
ENDBRANCH   6   9
ENDBRANCH   1   3
BRANCH   1  18
ATOM     18  C   UNL     1       1.007  11.399  18.983  0.00  0.00    +0.000 C 
ATOM     19  S   UNL     1       2.257  12.494  18.882  0.00  0.00    +0.000 S 
BRANCH  18  22
ATOM     20  C   UNL     1      -1.497  11.514  18.901  0.00  0.00    +0.000 C 
ATOM     21  O   UNL     1      -1.710  11.761  20.087  0.00  0.00    +0.000 OA
ATOM     22  N   UNL     1      -0.227  11.458  18.350  0.00  0.00    +0.000 N 
ATOM     23  H   UNL     1      -0.148  11.433  17.347  0.00  0.00    +0.000 HD
BRANCH  20  29
ATOM     24  C   UNL     1      -3.699  10.246  14.471  0.00  0.00    +0.000 C 
ATOM     25  C   UNL     1      -3.764  10.796  15.867  0.00  0.00    +0.000 A 
ATOM     26  C   UNL     1      -4.987  11.234  16.389  0.00  0.00    +0.000 A 
ATOM     27  C   UNL     1      -5.058  11.752  17.677  0.00  0.00    +0.000 A 
ATOM     28  C   UNL     1      -3.906  11.833  18.458  0.00  0.00    +0.000 A 
ATOM     29  C   UNL     1      -2.668  11.394  17.968  0.00  0.00    +0.000 A 
ATOM     30  C   UNL     1      -2.603  10.882  16.658  0.00  0.00    +0.000 A 
ENDBRANCH  20  29
ENDBRANCH  18  22
ENDBRANCH   1  18
TORSDOF 6
ENDMDL
MODEL 6
REMARK VINA RESULT:      -8.2      3.513      4.967
REMARK  Name = 
REMARK  7 active torsions:
REMARK  status: ('A' for Active; 'I' for Inactive)
REMARK    1  A    between atoms: C_1  and  C_2
REMARK    2  A    between atoms: C_6  and  C_7
REMARK    3  A    between atoms: N_9  and  C_10
REMARK    4  A    between atoms: C_10  and  N_12
REMARK    5  A    between atoms: N_12  and  C_13
REMARK    6  A    between atoms: C_16  and  S_17
REMARK    7  A    between atoms: S_17  and  N_20
REMARK                            x       y       z     vdW  Elec       q    Type
REMARK                         _______ _______ _______ _____ _____    ______ ____
ROOT
ATOM      1  N   UNL     1       0.390  10.859  19.336  0.00  0.00    +0.000 N 
ATOM      2  H   UNL     1       0.915  11.721  19.226  0.00  0.00    +0.000 HD
ENDROOT
BRANCH   1   3
ATOM      3  C   UNL     1       1.106   9.657  19.141  0.00  0.00    +0.000 A 
ATOM      4  C   UNL     1       1.759   9.367  17.934  0.00  0.00    +0.000 A 
ATOM      5  C   UNL     1       2.486   8.188  17.783  0.00  0.00    +0.000 A 
ATOM      6  C   UNL     1       2.585   7.301  18.858  0.00  0.00    +0.000 A 
ATOM      7  C   UNL     1       1.926   7.573  20.062  0.00  0.00    +0.000 A 
ATOM      8  C   UNL     1       1.211   8.767  20.209  0.00  0.00    +0.000 A 
BRANCH   6   9
ATOM      9  S   UNL     1       3.511   5.783  18.657  0.00  0.00    +0.000 S 
ATOM     10  O   UNL     1       3.766   5.632  17.242  0.00  0.00    +0.000 OA
ATOM     11  O   UNL     1       4.595   5.816  19.615  0.00  0.00    +0.000 OA
BRANCH   9  12
ATOM     12  N   UNL     1       2.397   4.569  19.144  0.00  0.00    +0.000 NA
ATOM     13  C   UNL     1       2.079   3.554  18.105  0.00  0.00    +0.000 C 
ATOM     14  C   UNL     1       0.965   2.617  18.556  0.00  0.00    +0.000 C 
ATOM     15  C   UNL     1       1.297   1.983  19.899  0.00  0.00    +0.000 C 
ATOM     16  C   UNL     1       1.504   3.080  20.932  0.00  0.00    +0.000 C 
ATOM     17  C   UNL     1       2.621   4.027  20.510  0.00  0.00    +0.000 C 
ENDBRANCH   9  12
ENDBRANCH   6   9
ENDBRANCH   1   3
BRANCH   1  18
ATOM     18  C   UNL     1      -0.985  11.012  19.336  0.00  0.00    +0.000 C 
ATOM     19  S   UNL     1      -1.854  10.418  18.046  0.00  0.00    +0.000 S 
BRANCH  18  22
ATOM     20  C   UNL     1      -0.821  12.086  21.597  0.00  0.00    +0.000 C 
ATOM     21  O   UNL     1       0.392  11.975  21.767  0.00  0.00    +0.000 OA
ATOM     22  N   UNL     1      -1.459  11.745  20.414  0.00  0.00    +0.000 N 
ATOM     23  H   UNL     1      -2.415  12.035  20.293  0.00  0.00    +0.000 HD
BRANCH  20  29
ATOM     24  C   UNL     1      -4.856  12.407  24.711  0.00  0.00    +0.000 C 
ATOM     25  C   UNL     1      -3.553  12.934  24.181  0.00  0.00    +0.000 A 
ATOM     26  C   UNL     1      -3.016  14.118  24.698  0.00  0.00    +0.000 A 
ATOM     27  C   UNL     1      -1.814  14.620  24.210  0.00  0.00    +0.000 A 
ATOM     28  C   UNL     1      -1.135  13.937  23.201  0.00  0.00    +0.000 A 
ATOM     29  C   UNL     1      -1.642  12.743  22.668  0.00  0.00    +0.000 A 
ATOM     30  C   UNL     1      -2.866  12.250  23.160  0.00  0.00    +0.000 A 
ENDBRANCH  20  29
ENDBRANCH  18  22
ENDBRANCH   1  18
TORSDOF 6
ENDMDL
MODEL 7
REMARK VINA RESULT:      -8.1      1.588      1.978
REMARK  Name = 
REMARK  7 active torsions:
REMARK  status: ('A' for Active; 'I' for Inactive)
REMARK    1  A    between atoms: C_1  and  C_2
REMARK    2  A    between atoms: C_6  and  C_7
REMARK    3  A    between atoms: N_9  and  C_10
REMARK    4  A    between atoms: C_10  and  N_12
REMARK    5  A    between atoms: N_12  and  C_13
REMARK    6  A    between atoms: C_16  and  S_17
REMARK    7  A    between atoms: S_17  and  N_20
REMARK                            x       y       z     vdW  Elec       q    Type
REMARK                         _______ _______ _______ _____ _____    ______ ____
ROOT
ATOM      1  N   UNL     1       1.093  10.316  19.742  0.00  0.00    +0.000 N 
ATOM      2  H   UNL     1       1.055  10.635  20.706  0.00  0.00    +0.000 HD
ENDROOT
BRANCH   1   3
ATOM      3  C   UNL     1       1.596   9.014  19.529  0.00  0.00    +0.000 A 
ATOM      4  C   UNL     1       1.594   8.041  20.539  0.00  0.00    +0.000 A 
ATOM      5  C   UNL     1       2.067   6.754  20.291  0.00  0.00    +0.000 A 
ATOM      6  C   UNL     1       2.522   6.426  19.011  0.00  0.00    +0.000 A 
ATOM      7  C   UNL     1       2.542   7.393  17.999  0.00  0.00    +0.000 A 
ATOM      8  C   UNL     1       2.051   8.678  18.254  0.00  0.00    +0.000 A 
BRANCH   6   9
ATOM      9  S   UNL     1       3.138   4.776  18.697  0.00  0.00    +0.000 S 
ATOM     10  O   UNL     1       3.218   4.109  19.977  0.00  0.00    +0.000 OA
ATOM     11  O   UNL     1       2.351   4.227  17.613  0.00  0.00    +0.000 OA
BRANCH   9  12
ATOM     12  N   UNL     1       4.733   5.048  18.121  0.00  0.00    +0.000 NA
ATOM     13  C   UNL     1       5.770   5.177  19.180  0.00  0.00    +0.000 C 
ATOM     14  C   UNL     1       7.120   5.581  18.599  0.00  0.00    +0.000 C 
ATOM     15  C   UNL     1       7.542   4.629  17.489  0.00  0.00    +0.000 C 
ATOM     16  C   UNL     1       6.485   4.633  16.398  0.00  0.00    +0.000 C 
ATOM     17  C   UNL     1       5.124   4.222  16.949  0.00  0.00    +0.000 C 
ENDBRANCH   9  12
ENDBRANCH   6   9
ENDBRANCH   1   3
BRANCH   1  18
ATOM     18  C   UNL     1       0.954  11.314  18.794  0.00  0.00    +0.000 C 
ATOM     19  S   UNL     1       2.268  12.275  18.450  0.00  0.00    +0.000 S 
BRANCH  18  22
ATOM     20  C   UNL     1      -1.533  11.571  18.996  0.00  0.00    +0.000 C 
ATOM     21  O   UNL     1      -1.594  11.845  20.193  0.00  0.00    +0.000 OA
ATOM     22  N   UNL     1      -0.339  11.435  18.305  0.00  0.00    +0.000 N 
ATOM     23  H   UNL     1      -0.377  11.394  17.300  0.00  0.00    +0.000 HD
BRANCH  20  29
ATOM     24  C   UNL     1      -6.598  11.930  18.454  0.00  0.00    +0.000 C 
ATOM     25  C   UNL     1      -5.227  11.674  17.898  0.00  0.00    +0.000 A 
ATOM     26  C   UNL     1      -5.070  11.357  16.544  0.00  0.00    +0.000 A 
ATOM     27  C   UNL     1      -3.806  11.111  16.020  0.00  0.00    +0.000 A 
ATOM     28  C   UNL     1      -2.684  11.183  16.846  0.00  0.00    +0.000 A 
ATOM     29  C   UNL     1      -2.807  11.507  18.205  0.00  0.00    +0.000 A 
ATOM     30  C   UNL     1      -4.092  11.742  18.730  0.00  0.00    +0.000 A 
ENDBRANCH  20  29
ENDBRANCH  18  22
ENDBRANCH   1  18
TORSDOF 6
ENDMDL
MODEL 8
REMARK VINA RESULT:      -8.0      3.708      5.016
REMARK  Name = 
REMARK  7 active torsions:
REMARK  status: ('A' for Active; 'I' for Inactive)
REMARK    1  A    between atoms: C_1  and  C_2
REMARK    2  A    between atoms: C_6  and  C_7
REMARK    3  A    between atoms: N_9  and  C_10
REMARK    4  A    between atoms: C_10  and  N_12
REMARK    5  A    between atoms: N_12  and  C_13
REMARK    6  A    between atoms: C_16  and  S_17
REMARK    7  A    between atoms: S_17  and  N_20
REMARK                            x       y       z     vdW  Elec       q    Type
REMARK                         _______ _______ _______ _____ _____    ______ ____
ROOT
ATOM      1  N   UNL     1       1.982   5.355  19.091  0.00  0.00    +0.000 N 
ATOM      2  H   UNL     1       1.175   5.010  18.579  0.00  0.00    +0.000 HD
ENDROOT
BRANCH   1   3
ATOM      3  C   UNL     1       3.209   5.370  18.393  0.00  0.00    +0.000 A 
ATOM      4  C   UNL     1       3.626   6.479  17.642  0.00  0.00    +0.000 A 
ATOM      5  C   UNL     1       4.857   6.478  16.991  0.00  0.00    +0.000 A 
ATOM      6  C   UNL     1       5.697   5.368  17.115  0.00  0.00    +0.000 A 
ATOM      7  C   UNL     1       5.287   4.250  17.851  0.00  0.00    +0.000 A 
ATOM      8  C   UNL     1       4.055   4.267  18.513  0.00  0.00    +0.000 A 
BRANCH   6   9
ATOM      9  S   UNL     1       7.275   5.365  16.271  0.00  0.00    +0.000 S 
ATOM     10  O   UNL     1       7.790   6.714  16.341  0.00  0.00    +0.000 OA
ATOM     11  O   UNL     1       8.031   4.245  16.787  0.00  0.00    +0.000 OA
BRANCH   9  12
ATOM     12  N   UNL     1       6.853   5.027  14.640  0.00  0.00    +0.000 NA
ATOM     13  C   UNL     1       7.944   5.239  13.651  0.00  0.00    +0.000 C 
ATOM     14  C   UNL     1       7.445   5.079  12.220  0.00  0.00    +0.000 C 
ATOM     15  C   UNL     1       6.749   3.739  12.032  0.00  0.00    +0.000 C 
ATOM     16  C   UNL     1       5.583   3.641  13.003  0.00  0.00    +0.000 C 
ATOM     17  C   UNL     1       6.055   3.788  14.445  0.00  0.00    +0.000 C 
ENDBRANCH   9  12
ENDBRANCH   6   9
ENDBRANCH   1   3
BRANCH   1  18
ATOM     18  C   UNL     1       1.807   5.441  20.460  0.00  0.00    +0.000 C 
ATOM     19  S   UNL     1       2.235   4.137  21.403  0.00  0.00    +0.000 S 
BRANCH  18  22
ATOM     20  C   UNL     1       1.427   7.920  20.453  0.00  0.00    +0.000 C 
ATOM     21  O   UNL     1       2.084   8.205  19.452  0.00  0.00    +0.000 OA
ATOM     22  N   UNL     1       1.195   6.617  20.866  0.00  0.00    +0.000 N 
ATOM     23  H   UNL     1       0.502   6.465  21.580  0.00  0.00    +0.000 HD
BRANCH  20  29
ATOM     24  C   UNL     1      -0.182  12.732  21.037  0.00  0.00    +0.000 C 
ATOM     25  C   UNL     1      -0.066  11.312  21.514  0.00  0.00    +0.000 A 
ATOM     26  C   UNL     1      -0.642  10.935  22.732  0.00  0.00    +0.000 A 
ATOM     27  C   UNL     1      -0.534   9.625  23.187  0.00  0.00    +0.000 A 
ATOM     28  C   UNL     1       0.149   8.679  22.425  0.00  0.00    +0.000 A 
ATOM     29  C   UNL     1       0.730   9.022  21.196  0.00  0.00    +0.000 A 
ATOM     30  C   UNL     1       0.626  10.353  20.749  0.00  0.00    +0.000 A 
ENDBRANCH  20  29
ENDBRANCH  18  22
ENDBRANCH   1  18
TORSDOF 6
ENDMDL
MODEL 9
REMARK VINA RESULT:      -8.0      1.364      2.312
REMARK  Name = 
REMARK  7 active torsions:
REMARK  status: ('A' for Active; 'I' for Inactive)
REMARK    1  A    between atoms: C_1  and  C_2
REMARK    2  A    between atoms: C_6  and  C_7
REMARK    3  A    between atoms: N_9  and  C_10
REMARK    4  A    between atoms: C_10  and  N_12
REMARK    5  A    between atoms: N_12  and  C_13
REMARK    6  A    between atoms: C_16  and  S_17
REMARK    7  A    between atoms: S_17  and  N_20
REMARK                            x       y       z     vdW  Elec       q    Type
REMARK                         _______ _______ _______ _____ _____    ______ ____
ROOT
ATOM      1  N   UNL     1       0.739  10.654  20.961  0.00  0.00    +0.000 N 
ATOM      2  H   UNL     1       1.408  11.419  20.962  0.00  0.00    +0.000 HD
ENDROOT
BRANCH   1   3
ATOM      3  C   UNL     1       1.194   9.422  20.445  0.00  0.00    +0.000 A 
ATOM      4  C   UNL     1       1.671   9.294  19.132  0.00  0.00    +0.000 A 
ATOM      5  C   UNL     1       2.144   8.071  18.661  0.00  0.00    +0.000 A 
ATOM      6  C   UNL     1       2.169   6.969  19.520  0.00  0.00    +0.000 A 
ATOM      7  C   UNL     1       1.683   7.080  20.827  0.00  0.00    +0.000 A 
ATOM      8  C   UNL     1       1.223   8.316  21.296  0.00  0.00    +0.000 A 
BRANCH   6   9
ATOM      9  S   UNL     1       2.769   5.397  18.909  0.00  0.00    +0.000 S 
ATOM     10  O   UNL     1       2.847   4.509  20.047  0.00  0.00    +0.000 OA
ATOM     11  O   UNL     1       1.975   5.061  17.748  0.00  0.00    +0.000 OA
BRANCH   9  12
ATOM     12  N   UNL     1       4.366   5.756  18.387  0.00  0.00    +0.000 NA
ATOM     13  C   UNL     1       5.448   5.144  19.203  0.00  0.00    +0.000 C 
ATOM     14  C   UNL     1       6.824   5.642  18.779  0.00  0.00    +0.000 C 
ATOM     15  C   UNL     1       7.041   5.438  17.286  0.00  0.00    +0.000 C 
ATOM     16  C   UNL     1       5.959   6.180  16.518  0.00  0.00    +0.000 C 
ATOM     17  C   UNL     1       4.571   5.694  16.916  0.00  0.00    +0.000 C 
ENDBRANCH   9  12
ENDBRANCH   6   9
ENDBRANCH   1   3
BRANCH   1  18
ATOM     18  C   UNL     1      -0.576  11.033  21.159  0.00  0.00    +0.000 C 
ATOM     19  S   UNL     1      -1.059  11.466  22.693  0.00  0.00    +0.000 S 
BRANCH  18  22
ATOM     20  C   UNL     1      -1.316  11.628  18.838  0.00  0.00    +0.000 C 
ATOM     21  O   UNL     1      -0.373  12.353  18.523  0.00  0.00    +0.000 OA
ATOM     22  N   UNL     1      -1.364  10.912  20.024  0.00  0.00    +0.000 N 
ATOM     23  H   UNL     1      -2.076  10.208  20.121  0.00  0.00    +0.000 HD
BRANCH  20  29
ATOM     24  C   UNL     1      -3.133  10.081  14.323  0.00  0.00    +0.000 C 
ATOM     25  C   UNL     1      -3.327  10.663  15.694  0.00  0.00    +0.000 A 
ATOM     26  C   UNL     1      -4.608  11.025  16.125  0.00  0.00    +0.000 A 
ATOM     27  C   UNL     1      -4.799  11.572  17.389  0.00  0.00    +0.000 A 
ATOM     28  C   UNL     1      -3.708  11.758  18.237  0.00  0.00    +0.000 A 
ATOM     29  C   UNL     1      -2.412  11.398  17.839  0.00  0.00    +0.000 A 
ATOM     30  C   UNL     1      -2.227  10.856  16.552  0.00  0.00    +0.000 A 
ENDBRANCH  20  29
ENDBRANCH  18  22
ENDBRANCH   1  18
TORSDOF 6
ENDMDL
