MODEL 1
REMARK VINA RESULT:      -7.2      0.000      0.000
REMARK  Name = 
REMARK  6 active torsions:
REMARK  status: ('A' for Active; 'I' for Inactive)
REMARK    1  A    between atoms: C_1  and  C_2
REMARK    2  A    between atoms: C_2  and  C_3
REMARK    3  A    between atoms: N_6  and  C_7
REMARK    4  A    between atoms: C_16  and  C_17
REMARK    5  A    between atoms: N_26  and  C_27
REMARK    6  A    between atoms: N_31  and  C_32
REMARK                            x       y       z     vdW  Elec       q    Type
REMARK                         _______ _______ _______ _____ _____    ______ ____
ROOT
ATOM      1  C   UNL     1       3.857   4.447  18.125  0.00  0.00    +0.000 C 
ATOM      2  C   UNL     1       4.236   5.289  16.909  0.00  0.00    +0.000 C 
ATOM      3  O   UNL     1       4.841   4.759  15.969  0.00  0.00    +0.000 OA
ATOM      4  N   UNL     1       3.935   6.630  16.922  0.00  0.00    +0.000 N 
ATOM      5  C   UNL     1       4.415   7.471  15.834  0.00  0.00    +0.000 C 
ATOM      6  C   UNL     1       3.164   7.188  17.973  0.00  0.00    +0.000 A 
ATOM      7  C   UNL     1       2.784   8.522  17.963  0.00  0.00    +0.000 A 
ATOM      8  N   UNL     1       2.008   9.102  18.892  0.00  0.00    +0.000 NA
ATOM      9  C   UNL     1       1.618   8.317  19.902  0.00  0.00    +0.000 A 
ATOM     10  N   UNL     1       0.717   8.852  20.863  0.00  0.00    +0.000 N 
ATOM     11  C   UNL     1       0.670   8.498  22.192  0.00  0.00    +0.000 A 
ATOM     12  C   UNL     1      -0.202   9.379  22.780  0.00  0.00    +0.000 A 
ATOM     13  N   UNL     1      -0.769  10.194  21.839  0.00  0.00    +0.000 NA
ATOM     14  C   UNL     1      -0.275   9.818  20.666  0.00  0.00    +0.000 A 
ATOM     15  N   UNL     1       1.974   7.025  20.028  0.00  0.00    +0.000 NA
ATOM     16  C   UNL     1       2.702   6.429  19.051  0.00  0.00    +0.000 A 
ATOM     17  N   UNL     1       2.901   5.016  19.105  0.00  0.00    +0.000 N 
ENDROOT
BRANCH  14  18
ATOM     18  C   UNL     1      -0.793  10.296  19.369  0.00  0.00    +0.000 A 
ATOM     19  C   UNL     1      -1.437   9.396  18.508  0.00  0.00    +0.000 A 
ATOM     20  C   UNL     1      -1.946   9.822  17.277  0.00  0.00    +0.000 A 
ATOM     21  C   UNL     1      -1.817  11.153  16.905  0.00  0.00    +0.000 A 
ATOM     22  F   UNL     1      -2.330  11.571  15.741  0.00  0.00    +0.000 F 
ATOM     23  C   UNL     1      -1.150  12.057  17.717  0.00  0.00    +0.000 A 
ATOM     24  C   UNL     1      -0.610  11.619  18.928  0.00  0.00    +0.000 A 
ENDBRANCH  14  18
BRANCH  17  25
ATOM     25  C   UNL     1       2.379   4.219  20.122  0.00  0.00    +0.000 A 
ATOM     26  C   UNL     1       2.628   4.234  21.488  0.00  0.00    +0.000 A 
ATOM     27  C   UNL     1       1.835   3.235  22.060  0.00  0.00    +0.000 A 
ATOM     28  N   UNL     1       1.126   2.583  21.148  0.00  0.00    +0.000 NA
ATOM     29  N   UNL     1       1.447   3.189  19.983  0.00  0.00    +0.000 N 
ATOM     30  C   UNL     1       0.737   2.719  18.817  0.00  0.00    +0.000 C 
ENDBRANCH  17  25
BRANCH   1  32
ATOM     31  C   UNL     1       6.102   5.058  19.226  0.00  0.00    +0.000 C 
ATOM     32  C   UNL     1       5.149   3.948  18.808  0.00  0.00    +0.000 C 
ENDBRANCH   1  32
TORSDOF 3
ENDMDL
MODEL 2
REMARK VINA RESULT:      -6.4      8.671     10.209
REMARK  Name = 
REMARK  6 active torsions:
REMARK  status: ('A' for Active; 'I' for Inactive)
REMARK    1  A    between atoms: C_1  and  C_2
REMARK    2  A    between atoms: C_2  and  C_3
REMARK    3  A    between atoms: N_6  and  C_7
REMARK    4  A    between atoms: C_16  and  C_17
REMARK    5  A    between atoms: N_26  and  C_27
REMARK    6  A    between atoms: N_31  and  C_32
REMARK                            x       y       z     vdW  Elec       q    Type
REMARK                         _______ _______ _______ _____ _____    ______ ____
ROOT
ATOM      1  C   UNL     1      10.097  14.642  17.728  0.00  0.00    +0.000 C 
ATOM      2  C   UNL     1       9.920  16.155  17.627  0.00  0.00    +0.000 C 
ATOM      3  O   UNL     1      10.402  16.758  16.660  0.00  0.00    +0.000 OA
ATOM      4  N   UNL     1       9.273  16.808  18.648  0.00  0.00    +0.000 N 
ATOM      5  C   UNL     1       9.221  18.264  18.634  0.00  0.00    +0.000 C 
ATOM      6  C   UNL     1       8.657  16.080  19.697  0.00  0.00    +0.000 A 
ATOM      7  C   UNL     1       7.932  16.717  20.693  0.00  0.00    +0.000 A 
ATOM      8  N   UNL     1       7.275  16.088  21.681  0.00  0.00    +0.000 NA
ATOM      9  C   UNL     1       7.375  14.755  21.694  0.00  0.00    +0.000 A 
ATOM     10  N   UNL     1       6.622  14.032  22.659  0.00  0.00    +0.000 N 
ATOM     11  C   UNL     1       7.000  12.837  23.229  0.00  0.00    +0.000 A 
ATOM     12  C   UNL     1       6.088  12.597  24.225  0.00  0.00    +0.000 A 
ATOM     13  N   UNL     1       5.107  13.550  24.219  0.00  0.00    +0.000 NA
ATOM     14  C   UNL     1       5.385  14.372  23.215  0.00  0.00    +0.000 A 
ATOM     15  N   UNL     1       8.094  14.048  20.803  0.00  0.00    +0.000 NA
ATOM     16  C   UNL     1       8.699  14.685  19.768  0.00  0.00    +0.000 A 
ATOM     17  N   UNL     1       9.288  13.904  18.728  0.00  0.00    +0.000 N 
ENDROOT
BRANCH  14  18
ATOM     18  C   UNL     1       4.456  15.409  22.726  0.00  0.00    +0.000 A 
ATOM     19  C   UNL     1       3.763  15.205  21.524  0.00  0.00    +0.000 A 
ATOM     20  C   UNL     1       2.870  16.167  21.040  0.00  0.00    +0.000 A 
ATOM     21  C   UNL     1       2.662  17.336  21.761  0.00  0.00    +0.000 A 
ATOM     22  F   UNL     1       1.785  18.244  21.317  0.00  0.00    +0.000 F 
ATOM     23  C   UNL     1       3.363  17.582  22.931  0.00  0.00    +0.000 A 
ATOM     24  C   UNL     1       4.282  16.637  23.391  0.00  0.00    +0.000 A 
ENDBRANCH  14  18
BRANCH  17  25
ATOM     25  C   UNL     1       9.270  12.511  18.728  0.00  0.00    +0.000 A 
ATOM     26  C   UNL     1       8.578  11.625  17.912  0.00  0.00    +0.000 A 
ATOM     27  C   UNL     1       8.922  10.334  18.326  0.00  0.00    +0.000 A 
ATOM     28  N   UNL     1       9.759  10.350  19.354  0.00  0.00    +0.000 NA
ATOM     29  N   UNL     1       9.977  11.665  19.584  0.00  0.00    +0.000 N 
ATOM     30  C   UNL     1      10.937  11.968  20.620  0.00  0.00    +0.000 C 
ENDBRANCH  17  25
BRANCH   1  32
ATOM     31  C   UNL     1      12.148  13.430  16.755  0.00  0.00    +0.000 C 
ATOM     32  C   UNL     1      11.601  14.323  17.859  0.00  0.00    +0.000 C 
ENDBRANCH   1  32
TORSDOF 3
ENDMDL
MODEL 3
REMARK VINA RESULT:      -6.3      5.177      7.999
REMARK  Name = 
REMARK  6 active torsions:
REMARK  status: ('A' for Active; 'I' for Inactive)
REMARK    1  A    between atoms: C_1  and  C_2
REMARK    2  A    between atoms: C_2  and  C_3
REMARK    3  A    between atoms: N_6  and  C_7
REMARK    4  A    between atoms: C_16  and  C_17
REMARK    5  A    between atoms: N_26  and  C_27
REMARK    6  A    between atoms: N_31  and  C_32
REMARK                            x       y       z     vdW  Elec       q    Type
REMARK                         _______ _______ _______ _____ _____    ______ ____
ROOT
ATOM      1  C   UNL     1      -0.638  10.468  20.496  0.00  0.00    +0.000 C 
ATOM      2  C   UNL     1       0.375  10.344  19.361  0.00  0.00    +0.000 C 
ATOM      3  O   UNL     1       0.495   9.263  18.770  0.00  0.00    +0.000 OA
ATOM      4  N   UNL     1       1.165  11.430  19.066  0.00  0.00    +0.000 N 
ATOM      5  C   UNL     1       2.230  11.282  18.083  0.00  0.00    +0.000 C 
ATOM      6  C   UNL     1       0.943  12.678  19.701  0.00  0.00    +0.000 A 
ATOM      7  C   UNL     1       1.677  13.805  19.359  0.00  0.00    +0.000 A 
ATOM      8  N   UNL     1       1.483  15.029  19.875  0.00  0.00    +0.000 NA
ATOM      9  C   UNL     1       0.527  15.126  20.806  0.00  0.00    +0.000 A 
ATOM     10  N   UNL     1       0.213  16.415  21.317  0.00  0.00    +0.000 N 
ATOM     11  C   UNL     1      -0.233  16.677  22.592  0.00  0.00    +0.000 A 
ATOM     12  C   UNL     1      -0.229  18.044  22.712  0.00  0.00    +0.000 A 
ATOM     13  N   UNL     1       0.104  18.630  21.523  0.00  0.00    +0.000 NA
ATOM     14  C   UNL     1       0.290  17.644  20.654  0.00  0.00    +0.000 A 
ATOM     15  N   UNL     1      -0.205  14.084  21.241  0.00  0.00    +0.000 NA
ATOM     16  C   UNL     1      -0.049  12.865  20.667  0.00  0.00    +0.000 A 
ATOM     17  N   UNL     1      -0.966  11.823  21.001  0.00  0.00    +0.000 N 
ENDROOT
BRANCH  14  18
ATOM     18  C   UNL     1       0.448  17.852  19.202  0.00  0.00    +0.000 A 
ATOM     19  C   UNL     1      -0.684  18.092  18.410  0.00  0.00    +0.000 A 
ATOM     20  C   UNL     1      -0.564  18.302  17.033  0.00  0.00    +0.000 A 
ATOM     21  C   UNL     1       0.692  18.278  16.442  0.00  0.00    +0.000 A 
ATOM     22  F   UNL     1       0.814  18.509  15.129  0.00  0.00    +0.000 F 
ATOM     23  C   UNL     1       1.825  18.004  17.192  0.00  0.00    +0.000 A 
ATOM     24  C   UNL     1       1.697  17.758  18.560  0.00  0.00    +0.000 A 
ENDBRANCH  14  18
BRANCH  17  25
ATOM     25  C   UNL     1      -2.019  12.004  21.896  0.00  0.00    +0.000 A 
ATOM     26  C   UNL     1      -2.057  11.850  23.276  0.00  0.00    +0.000 A 
ATOM     27  C   UNL     1      -3.354  12.168  23.687  0.00  0.00    +0.000 A 
ATOM     28  N   UNL     1      -4.135  12.487  22.663  0.00  0.00    +0.000 NA
ATOM     29  N   UNL     1      -3.321  12.400  21.587  0.00  0.00    +0.000 N 
ATOM     30  C   UNL     1      -3.909  12.785  20.326  0.00  0.00    +0.000 C 
ENDBRANCH  17  25
BRANCH   1  32
ATOM     31  C   UNL     1       1.235   9.624  22.047  0.00  0.00    +0.000 C 
ATOM     32  C   UNL     1      -0.227   9.515  21.638  0.00  0.00    +0.000 C 
ENDBRANCH   1  32
TORSDOF 3
ENDMDL
MODEL 4
REMARK VINA RESULT:      -6.1      8.768     10.255
REMARK  Name = 
REMARK  6 active torsions:
REMARK  status: ('A' for Active; 'I' for Inactive)
REMARK    1  A    between atoms: C_1  and  C_2
REMARK    2  A    between atoms: C_2  and  C_3
REMARK    3  A    between atoms: N_6  and  C_7
REMARK    4  A    between atoms: C_16  and  C_17
REMARK    5  A    between atoms: N_26  and  C_27
REMARK    6  A    between atoms: N_31  and  C_32
REMARK                            x       y       z     vdW  Elec       q    Type
REMARK                         _______ _______ _______ _____ _____    ______ ____
ROOT
ATOM      1  C   UNL     1      11.052  15.035  18.275  0.00  0.00    +0.000 C 
ATOM      2  C   UNL     1      10.831  16.405  17.639  0.00  0.00    +0.000 C 
ATOM      3  O   UNL     1      11.666  16.844  16.839  0.00  0.00    +0.000 OA
ATOM      4  N   UNL     1       9.729  17.133  18.019  0.00  0.00    +0.000 N 
ATOM      5  C   UNL     1       9.581  18.497  17.528  0.00  0.00    +0.000 C 
ATOM      6  C   UNL     1       8.746  16.567  18.869  0.00  0.00    +0.000 A 
ATOM      7  C   UNL     1       7.589  17.257  19.200  0.00  0.00    +0.000 A 
ATOM      8  N   UNL     1       6.592  16.762  19.950  0.00  0.00    +0.000 NA
ATOM      9  C   UNL     1       6.775  15.524  20.423  0.00  0.00    +0.000 A 
ATOM     10  N   UNL     1       5.711  14.914  21.142  0.00  0.00    +0.000 N 
ATOM     11  C   UNL     1       5.862  14.001  22.161  0.00  0.00    +0.000 A 
ATOM     12  C   UNL     1       4.608  13.822  22.687  0.00  0.00    +0.000 A 
ATOM     13  N   UNL     1       3.678  14.513  21.960  0.00  0.00    +0.000 NA
ATOM     14  C   UNL     1       4.336  15.107  20.972  0.00  0.00    +0.000 A 
ATOM     15  N   UNL     1       7.881  14.792  20.200  0.00  0.00    +0.000 NA
ATOM     16  C   UNL     1       8.855  15.273  19.386  0.00  0.00    +0.000 A 
ATOM     17  N   UNL     1       9.924  14.407  19.005  0.00  0.00    +0.000 N 
ENDROOT
BRANCH  14  18
ATOM     18  C   UNL     1       3.676  15.773  19.833  0.00  0.00    +0.000 A 
ATOM     19  C   UNL     1       2.781  16.825  20.071  0.00  0.00    +0.000 A 
ATOM     20  C   UNL     1       2.146  17.481  19.011  0.00  0.00    +0.000 A 
ATOM     21  C   UNL     1       2.411  17.089  17.705  0.00  0.00    +0.000 A 
ATOM     22  F   UNL     1       1.830  17.734  16.686  0.00  0.00    +0.000 F 
ATOM     23  C   UNL     1       3.260  16.026  17.441  0.00  0.00    +0.000 A 
ATOM     24  C   UNL     1       3.861  15.350  18.503  0.00  0.00    +0.000 A 
ENDBRANCH  14  18
BRANCH  17  25
ATOM     25  C   UNL     1      10.014  13.085  19.434  0.00  0.00    +0.000 A 
ATOM     26  C   UNL     1      10.676  12.542  20.527  0.00  0.00    +0.000 A 
ATOM     27  C   UNL     1      10.436  11.164  20.508  0.00  0.00    +0.000 A 
ATOM     28  N   UNL     1       9.692  10.806  19.470  0.00  0.00    +0.000 NA
ATOM     29  N   UNL     1       9.428  11.969  18.834  0.00  0.00    +0.000 N 
ATOM     30  C   UNL     1       8.547  11.872  17.693  0.00  0.00    +0.000 C 
ENDBRANCH  17  25
BRANCH   1  32
ATOM     31  C   UNL     1      12.317  16.155  20.216  0.00  0.00    +0.000 C 
ATOM     32  C   UNL     1      12.333  15.085  19.134  0.00  0.00    +0.000 C 
ENDBRANCH   1  32
TORSDOF 3
ENDMDL
MODEL 5
REMARK VINA RESULT:      -6.1      6.003      9.634
REMARK  Name = 
REMARK  6 active torsions:
REMARK  status: ('A' for Active; 'I' for Inactive)
REMARK    1  A    between atoms: C_1  and  C_2
REMARK    2  A    between atoms: C_2  and  C_3
REMARK    3  A    between atoms: N_6  and  C_7
REMARK    4  A    between atoms: C_16  and  C_17
REMARK    5  A    between atoms: N_26  and  C_27
REMARK    6  A    between atoms: N_31  and  C_32
REMARK                            x       y       z     vdW  Elec       q    Type
REMARK                         _______ _______ _______ _____ _____    ______ ____
ROOT
ATOM      1  C   UNL     1      -0.039  13.499  21.966  0.00  0.00    +0.000 C 
ATOM      2  C   UNL     1       0.213  12.136  21.326  0.00  0.00    +0.000 C 
ATOM      3  O   UNL     1       1.274  11.544  21.559  0.00  0.00    +0.000 OA
ATOM      4  N   UNL     1      -0.732  11.633  20.464  0.00  0.00    +0.000 N 
ATOM      5  C   UNL     1      -0.441  10.403  19.739  0.00  0.00    +0.000 C 
ATOM      6  C   UNL     1      -1.974  12.293  20.287  0.00  0.00    +0.000 A 
ATOM      7  C   UNL     1      -2.970  11.759  19.482  0.00  0.00    +0.000 A 
ATOM      8  N   UNL     1      -4.188  12.298  19.316  0.00  0.00    +0.000 NA
ATOM      9  C   UNL     1      -4.411  13.449  19.959  0.00  0.00    +0.000 A 
ATOM     10  N   UNL     1      -5.715  14.014  19.895  0.00  0.00    +0.000 N 
ATOM     11  C   UNL     1      -5.999  15.360  19.935  0.00  0.00    +0.000 A 
ATOM     12  C   UNL     1      -7.339  15.464  19.660  0.00  0.00    +0.000 A 
ATOM     13  N   UNL     1      -7.906  14.224  19.554  0.00  0.00    +0.000 NA
ATOM     14  C   UNL     1      -6.937  13.345  19.781  0.00  0.00    +0.000 A 
ATOM     15  N   UNL     1      -3.495  14.072  20.722  0.00  0.00    +0.000 NA
ATOM     16  C   UNL     1      -2.290  13.487  20.940  0.00  0.00    +0.000 A 
ATOM     17  N   UNL     1      -1.409  14.063  21.905  0.00  0.00    +0.000 N 
ENDROOT
BRANCH  14  18
ATOM     18  C   UNL     1      -7.172  11.902  19.977  0.00  0.00    +0.000 A 
ATOM     19  C   UNL     1      -7.670  11.443  21.205  0.00  0.00    +0.000 A 
ATOM     20  C   UNL     1      -7.910  10.081  21.417  0.00  0.00    +0.000 A 
ATOM     21  C   UNL     1      -7.658   9.173  20.397  0.00  0.00    +0.000 A 
ATOM     22  F   UNL     1      -7.917   7.873  20.585  0.00  0.00    +0.000 F 
ATOM     23  C   UNL     1      -7.129   9.592  19.187  0.00  0.00    +0.000 A 
ATOM     24  C   UNL     1      -6.854  10.947  18.993  0.00  0.00    +0.000 A 
ENDBRANCH  14  18
BRANCH  17  25
ATOM     25  C   UNL     1      -1.733  15.204  22.636  0.00  0.00    +0.000 A 
ATOM     26  C   UNL     1      -1.449  16.540  22.382  0.00  0.00    +0.000 A 
ATOM     27  C   UNL     1      -2.013  17.283  23.423  0.00  0.00    +0.000 A 
ATOM     28  N   UNL     1      -2.608  16.507  24.319  0.00  0.00    +0.000 NA
ATOM     29  N   UNL     1      -2.449  15.256  23.833  0.00  0.00    +0.000 N 
ATOM     30  C   UNL     1      -3.090  14.205  24.589  0.00  0.00    +0.000 C 
ENDBRANCH  17  25
BRANCH   1  32
ATOM     31  C   UNL     1       0.984  14.705  19.936  0.00  0.00    +0.000 C 
ATOM     32  C   UNL     1       1.015  14.498  21.443  0.00  0.00    +0.000 C 
ENDBRANCH   1  32
TORSDOF 3
ENDMDL
MODEL 6
REMARK VINA RESULT:      -6.0      5.876     10.220
REMARK  Name = 
REMARK  6 active torsions:
REMARK  status: ('A' for Active; 'I' for Inactive)
REMARK    1  A    between atoms: C_1  and  C_2
REMARK    2  A    between atoms: C_2  and  C_3
REMARK    3  A    between atoms: N_6  and  C_7
REMARK    4  A    between atoms: C_16  and  C_17
REMARK    5  A    between atoms: N_26  and  C_27
REMARK    6  A    between atoms: N_31  and  C_32
REMARK                            x       y       z     vdW  Elec       q    Type
REMARK                         _______ _______ _______ _____ _____    ______ ____
ROOT
ATOM      1  C   UNL     1      -3.181  15.607  23.862  0.00  0.00    +0.000 C 
ATOM      2  C   UNL     1      -1.686  15.896  23.759  0.00  0.00    +0.000 C 
ATOM      3  O   UNL     1      -1.134  16.564  24.642  0.00  0.00    +0.000 OA
ATOM      4  N   UNL     1      -1.007  15.445  22.651  0.00  0.00    +0.000 N 
ATOM      5  C   UNL     1       0.385  15.834  22.470  0.00  0.00    +0.000 C 
ATOM      6  C   UNL     1      -1.647  14.609  21.702  0.00  0.00    +0.000 A 
ATOM      7  C   UNL     1      -0.957  14.080  20.621  0.00  0.00    +0.000 A 
ATOM      8  N   UNL     1      -1.482  13.236  19.719  0.00  0.00    +0.000 NA
ATOM      9  C   UNL     1      -2.774  12.931  19.885  0.00  0.00    +0.000 A 
ATOM     10  N   UNL     1      -3.356  11.968  19.016  0.00  0.00    +0.000 N 
ATOM     11  C   UNL     1      -4.673  11.953  18.616  0.00  0.00    +0.000 A 
ATOM     12  C   UNL     1      -4.755  10.983  17.650  0.00  0.00    +0.000 A 
ATOM     13  N   UNL     1      -3.559  10.333  17.517  0.00  0.00    +0.000 NA
ATOM     14  C   UNL     1      -2.735  10.874  18.405  0.00  0.00    +0.000 A 
ATOM     15  N   UNL     1      -3.541  13.430  20.871  0.00  0.00    +0.000 NA
ATOM     16  C   UNL     1      -2.986  14.228  21.818  0.00  0.00    +0.000 A 
ATOM     17  N   UNL     1      -3.765  14.586  22.960  0.00  0.00    +0.000 N 
ENDROOT
BRANCH  14  18
ATOM     18  C   UNL     1      -1.411  10.315  18.740  0.00  0.00    +0.000 A 
ATOM     19  C   UNL     1      -0.508  10.012  17.711  0.00  0.00    +0.000 A 
ATOM     20  C   UNL     1       0.757   9.489  17.999  0.00  0.00    +0.000 A 
ATOM     21  C   UNL     1       1.126   9.272  19.320  0.00  0.00    +0.000 A 
ATOM     22  F   UNL     1       2.347   8.801  19.601  0.00  0.00    +0.000 F 
ATOM     23  C   UNL     1       0.240   9.524  20.355  0.00  0.00    +0.000 A 
ATOM     24  C   UNL     1      -1.035  10.010  20.062  0.00  0.00    +0.000 A 
ENDBRANCH  14  18
BRANCH  17  25
ATOM     25  C   UNL     1      -5.075  14.150  23.146  0.00  0.00    +0.000 A 
ATOM     26  C   UNL     1      -6.254  14.578  22.549  0.00  0.00    +0.000 A 
ATOM     27  C   UNL     1      -7.288  13.802  23.082  0.00  0.00    +0.000 A 
ATOM     28  N   UNL     1      -6.844  12.937  23.984  0.00  0.00    +0.000 NA
ATOM     29  N   UNL     1      -5.507  13.141  24.008  0.00  0.00    +0.000 N 
ATOM     30  C   UNL     1      -4.755  12.253  24.863  0.00  0.00    +0.000 C 
ENDBRANCH  17  25
BRANCH   1  32
ATOM     31  C   UNL     1      -4.618  17.346  25.101  0.00  0.00    +0.000 C 
ATOM     32  C   UNL     1      -3.953  16.942  23.793  0.00  0.00    +0.000 C 
ENDBRANCH   1  32
TORSDOF 3
ENDMDL
MODEL 7
REMARK VINA RESULT:      -5.9      5.962     10.355
REMARK  Name = 
REMARK  6 active torsions:
REMARK  status: ('A' for Active; 'I' for Inactive)
REMARK    1  A    between atoms: C_1  and  C_2
REMARK    2  A    between atoms: C_2  and  C_3
REMARK    3  A    between atoms: N_6  and  C_7
REMARK    4  A    between atoms: C_16  and  C_17
REMARK    5  A    between atoms: N_26  and  C_27
REMARK    6  A    between atoms: N_31  and  C_32
REMARK                            x       y       z     vdW  Elec       q    Type
REMARK                         _______ _______ _______ _____ _____    ______ ____
ROOT
ATOM      1  C   UNL     1      -3.952  14.993  24.209  0.00  0.00    +0.000 C 
ATOM      2  C   UNL     1      -2.469  15.346  24.282  0.00  0.00    +0.000 C 
ATOM      3  O   UNL     1      -2.032  15.927  25.284  0.00  0.00    +0.000 OA
ATOM      4  N   UNL     1      -1.671  15.052  23.201  0.00  0.00    +0.000 N 
ATOM      5  C   UNL     1      -0.288  15.509  23.200  0.00  0.00    +0.000 C 
ATOM      6  C   UNL     1      -2.182  14.309  22.108  0.00  0.00    +0.000 A 
ATOM      7  C   UNL     1      -1.372  13.935  21.045  0.00  0.00    +0.000 A 
ATOM      8  N   UNL     1      -1.772  13.183  20.007  0.00  0.00    +0.000 NA
ATOM      9  C   UNL     1      -3.058  12.814  20.014  0.00  0.00    +0.000 A 
ATOM     10  N   UNL     1      -3.512  11.938  18.990  0.00  0.00    +0.000 N 
ATOM     11  C   UNL     1      -4.785  11.921  18.466  0.00  0.00    +0.000 A 
ATOM     12  C   UNL     1      -4.733  11.067  17.394  0.00  0.00    +0.000 A 
ATOM     13  N   UNL     1      -3.500  10.482  17.304  0.00  0.00    +0.000 NA
ATOM     14  C   UNL     1      -2.787  10.946  18.323  0.00  0.00    +0.000 A 
ATOM     15  N   UNL     1      -3.934  13.166  20.971  0.00  0.00    +0.000 NA
ATOM     16  C   UNL     1      -3.507  13.869  22.051  0.00  0.00    +0.000 A 
ATOM     17  N   UNL     1      -4.402  14.063  23.146  0.00  0.00    +0.000 N 
ENDROOT
BRANCH  14  18
ATOM     18  C   UNL     1      -1.474  10.400  18.718  0.00  0.00    +0.000 A 
ATOM     19  C   UNL     1      -1.238  10.073  20.061  0.00  0.00    +0.000 A 
ATOM     20  C   UNL     1      -0.007   9.545  20.464  0.00  0.00    +0.000 A 
ATOM     21  C   UNL     1       0.992   9.337  19.522  0.00  0.00    +0.000 A 
ATOM     22  F   UNL     1       2.161   8.803  19.899  0.00  0.00    +0.000 F 
ATOM     23  C   UNL     1       0.801   9.687  18.195  0.00  0.00    +0.000 A 
ATOM     24  C   UNL     1      -0.415  10.249  17.804  0.00  0.00    +0.000 A 
ENDBRANCH  14  18
BRANCH  17  25
ATOM     25  C   UNL     1      -5.702  13.561  23.155  0.00  0.00    +0.000 A 
ATOM     26  C   UNL     1      -6.268  12.555  23.929  0.00  0.00    +0.000 A 
ATOM     27  C   UNL     1      -7.610  12.453  23.549  0.00  0.00    +0.000 A 
ATOM     28  N   UNL     1      -7.917  13.305  22.580  0.00  0.00    +0.000 NA
ATOM     29  N   UNL     1      -6.767  13.980  22.356  0.00  0.00    +0.000 N 
ATOM     30  C   UNL     1      -6.848  15.048  21.386  0.00  0.00    +0.000 C 
ENDBRANCH  17  25
BRANCH   1  32
ATOM     31  C   UNL     1      -4.447  17.249  23.075  0.00  0.00    +0.000 C 
ATOM     32  C   UNL     1      -4.776  16.297  24.216  0.00  0.00    +0.000 C 
ENDBRANCH   1  32
TORSDOF 3
ENDMDL
MODEL 8
REMARK VINA RESULT:      -5.9      6.511     11.261
REMARK  Name = 
REMARK  6 active torsions:
REMARK  status: ('A' for Active; 'I' for Inactive)
REMARK    1  A    between atoms: C_1  and  C_2
REMARK    2  A    between atoms: C_2  and  C_3
REMARK    3  A    between atoms: N_6  and  C_7
REMARK    4  A    between atoms: C_16  and  C_17
REMARK    5  A    between atoms: N_26  and  C_27
REMARK    6  A    between atoms: N_31  and  C_32
REMARK                            x       y       z     vdW  Elec       q    Type
REMARK                         _______ _______ _______ _____ _____    ______ ____
ROOT
ATOM      1  C   UNL     1      -6.777  14.543  22.352  0.00  0.00    +0.000 C 
ATOM      2  C   UNL     1      -6.519  13.548  23.480  0.00  0.00    +0.000 C 
ATOM      3  O   UNL     1      -7.465  13.162  24.178  0.00  0.00    +0.000 OA
ATOM      4  N   UNL     1      -5.224  13.150  23.719  0.00  0.00    +0.000 N 
ATOM      5  C   UNL     1      -4.945  12.313  24.878  0.00  0.00    +0.000 C 
ATOM      6  C   UNL     1      -4.176  13.541  22.847  0.00  0.00    +0.000 A 
ATOM      7  C   UNL     1      -2.878  13.086  23.027  0.00  0.00    +0.000 A 
ATOM      8  N   UNL     1      -1.851  13.367  22.209  0.00  0.00    +0.000 NA
ATOM      9  C   UNL     1      -2.127  14.172  21.178  0.00  0.00    +0.000 A 
ATOM     10  N   UNL     1      -1.100  14.426  20.227  0.00  0.00    +0.000 N 
ATOM     11  C   UNL     1      -0.953  15.590  19.508  0.00  0.00    +0.000 A 
ATOM     12  C   UNL     1       0.253  15.477  18.864  0.00  0.00    +0.000 A 
ATOM     13  N   UNL     1       0.801  14.244  19.081  0.00  0.00    +0.000 NA
ATOM     14  C   UNL     1      -0.060  13.575  19.838  0.00  0.00    +0.000 A 
ATOM     15  N   UNL     1      -3.340  14.705  20.946  0.00  0.00    +0.000 NA
ATOM     16  C   UNL     1      -4.388  14.362  21.737  0.00  0.00    +0.000 A 
ATOM     17  N   UNL     1      -5.701  14.779  21.360  0.00  0.00    +0.000 N 
ENDROOT
BRANCH  14  18
ATOM     18  C   UNL     1       0.047  12.131  20.119  0.00  0.00    +0.000 A 
ATOM     19  C   UNL     1       0.963  11.679  21.080  0.00  0.00    +0.000 A 
ATOM     20  C   UNL     1       1.081  10.317  21.374  0.00  0.00    +0.000 A 
ATOM     21  C   UNL     1       0.276   9.400  20.710  0.00  0.00    +0.000 A 
ATOM     22  F   UNL     1       0.363   8.098  21.011  0.00  0.00    +0.000 F 
ATOM     23  C   UNL     1      -0.610   9.813  19.728  0.00  0.00    +0.000 A 
ATOM     24  C   UNL     1      -0.697  11.169  19.411  0.00  0.00    +0.000 A 
ENDBRANCH  14  18
BRANCH  17  25
ATOM     25  C   UNL     1      -5.955  15.525  20.211  0.00  0.00    +0.000 A 
ATOM     26  C   UNL     1      -5.729  16.871  19.950  0.00  0.00    +0.000 A 
ATOM     27  C   UNL     1      -6.152  17.110  18.640  0.00  0.00    +0.000 A 
ATOM     28  N   UNL     1      -6.646  16.017  18.072  0.00  0.00    +0.000 NA
ATOM     29  N   UNL     1      -6.512  15.062  19.019  0.00  0.00    +0.000 N 
ATOM     30  C   UNL     1      -6.903  13.729  18.622  0.00  0.00    +0.000 C 
ENDBRANCH  17  25
BRANCH   1  32
ATOM     31  C   UNL     1      -6.256  16.626  23.771  0.00  0.00    +0.000 C 
ATOM     32  C   UNL     1      -7.295  15.864  22.961  0.00  0.00    +0.000 C 
ENDBRANCH   1  32
TORSDOF 3
ENDMDL
MODEL 9
REMARK VINA RESULT:      -5.9      5.657      9.971
REMARK  Name = 
REMARK  6 active torsions:
REMARK  status: ('A' for Active; 'I' for Inactive)
REMARK    1  A    between atoms: C_1  and  C_2
REMARK    2  A    between atoms: C_2  and  C_3
REMARK    3  A    between atoms: N_6  and  C_7
REMARK    4  A    between atoms: C_16  and  C_17
REMARK    5  A    between atoms: N_26  and  C_27
REMARK    6  A    between atoms: N_31  and  C_32
REMARK                            x       y       z     vdW  Elec       q    Type
REMARK                         _______ _______ _______ _____ _____    ______ ____
ROOT
ATOM      1  C   UNL     1      -2.772  15.536  23.746  0.00  0.00    +0.000 C 
ATOM      2  C   UNL     1      -1.265  15.767  23.669  0.00  0.00    +0.000 C 
ATOM      3  O   UNL     1      -0.705  16.424  24.555  0.00  0.00    +0.000 OA
ATOM      4  N   UNL     1      -0.583  15.278  22.579  0.00  0.00    +0.000 N 
ATOM      5  C   UNL     1       0.826  15.612  22.422  0.00  0.00    +0.000 C 
ATOM      6  C   UNL     1      -1.236  14.456  21.627  0.00  0.00    +0.000 A 
ATOM      7  C   UNL     1      -0.547  13.890  20.565  0.00  0.00    +0.000 A 
ATOM      8  N   UNL     1      -1.086  13.056  19.661  0.00  0.00    +0.000 NA
ATOM      9  C   UNL     1      -2.391  12.802  19.806  0.00  0.00    +0.000 A 
ATOM     10  N   UNL     1      -2.993  11.852  18.936  0.00  0.00    +0.000 N 
ATOM     11  C   UNL     1      -4.302  11.882  18.511  0.00  0.00    +0.000 A 
ATOM     12  C   UNL     1      -4.403  10.905  17.553  0.00  0.00    +0.000 A 
ATOM     13  N   UNL     1      -3.230  10.210  17.450  0.00  0.00    +0.000 NA
ATOM     14  C   UNL     1      -2.402  10.729  18.349  0.00  0.00    +0.000 A 
ATOM     15  N   UNL     1      -3.158  13.341  20.772  0.00  0.00    +0.000 NA
ATOM     16  C   UNL     1      -2.591  14.128  21.721  0.00  0.00    +0.000 A 
ATOM     17  N   UNL     1      -3.377  14.527  22.844  0.00  0.00    +0.000 N 
ENDROOT
BRANCH  14  18
ATOM     18  C   UNL     1      -1.108  10.124  18.715  0.00  0.00    +0.000 A 
ATOM     19  C   UNL     1      -0.855   9.787  20.052  0.00  0.00    +0.000 A 
ATOM     20  C   UNL     1       0.359   9.204  20.428  0.00  0.00    +0.000 A 
ATOM     21  C   UNL     1       1.325   8.949  19.464  0.00  0.00    +0.000 A 
ATOM     22  F   UNL     1       2.477   8.363  19.815  0.00  0.00    +0.000 F 
ATOM     23  C   UNL     1       1.120   9.307  18.141  0.00  0.00    +0.000 A 
ATOM     24  C   UNL     1      -0.078   9.924  17.777  0.00  0.00    +0.000 A 
ENDBRANCH  14  18
BRANCH  17  25
ATOM     25  C   UNL     1      -4.706  14.144  23.009  0.00  0.00    +0.000 A 
ATOM     26  C   UNL     1      -5.849  14.565  22.341  0.00  0.00    +0.000 A 
ATOM     27  C   UNL     1      -6.925  13.857  22.885  0.00  0.00    +0.000 A 
ATOM     28  N   UNL     1      -6.540  13.042  23.858  0.00  0.00    +0.000 NA
ATOM     29  N   UNL     1      -5.200  13.209  23.920  0.00  0.00    +0.000 N 
ATOM     30  C   UNL     1      -4.507  12.358  24.859  0.00  0.00    +0.000 C 
ENDBRANCH  17  25
BRANCH   1  32
ATOM     31  C   UNL     1      -3.214  17.658  22.359  0.00  0.00    +0.000 C 
ATOM     32  C   UNL     1      -3.491  16.898  23.648  0.00  0.00    +0.000 C 
ENDBRANCH   1  32
TORSDOF 3
ENDMDL
