MODEL 1
REMARK VINA RESULT:      -6.2      0.000      0.000
REMARK  Name = 
REMARK  3 active torsions:
REMARK  status: ('A' for Active; 'I' for Inactive)
REMARK    1  A    between atoms: C_5  and  C_6
REMARK    2  A    between atoms: C_6  and  C_7
REMARK    3  A    between atoms: C_7  and  N_8
REMARK                            x       y       z     vdW  Elec       q    Type
REMARK                         _______ _______ _______ _____ _____    ______ ____
ROOT
ATOM      1 CL   UNL     1       7.553   6.847  17.507  0.00  0.00    +0.000 Cl
ATOM      2  C   UNL     1       6.165   5.832  17.470  0.00  0.00    +0.000 A 
ATOM      3  C   UNL     1       6.198   4.642  16.752  0.00  0.00    +0.000 A 
ATOM      4  C   UNL     1       5.069   3.817  16.717  0.00  0.00    +0.000 A 
ATOM      5  C   UNL     1       3.893   4.159  17.411  0.00  0.00    +0.000 A 
ATOM      6  C   UNL     1       3.883   5.385  18.110  0.00  0.00    +0.000 A 
ATOM      7 CL   UNL     1       2.480   5.949  18.950  0.00  0.00    +0.000 Cl
ATOM      8  C   UNL     1       5.011   6.210  18.146  0.00  0.00    +0.000 A 
ENDROOT
BRANCH   5   9
ATOM      9  C   UNL     1       2.657   3.278  17.337  0.00  0.00    +0.000 C 
BRANCH   9  10
ATOM     10  C   UNL     1       2.647   2.062  18.272  0.00  0.00    +0.000 C 
BRANCH  10  11
ATOM     11  N   UNL     1       2.340   2.417  19.644  0.00  0.00    +0.000 N 
ATOM     12  C   UNL     1       1.096   2.646  20.161  0.00  0.00    +0.000 A 
ATOM     13  C   UNL     1       1.309   2.880  21.501  0.00  0.00    +0.000 A 
ATOM     14  N   UNL     1       2.644   2.800  21.801  0.00  0.00    +0.000 NA
ATOM     15  C   UNL     1       3.240   2.515  20.665  0.00  0.00    +0.000 A 
ENDBRANCH  10  11
ENDBRANCH   9  10
ENDBRANCH   5   9
TORSDOF 3
ENDMDL
MODEL 2
REMARK VINA RESULT:      -6.2      0.636      1.025
REMARK  Name = 
REMARK  3 active torsions:
REMARK  status: ('A' for Active; 'I' for Inactive)
REMARK    1  A    between atoms: C_5  and  C_6
REMARK    2  A    between atoms: C_6  and  C_7
REMARK    3  A    between atoms: C_7  and  N_8
REMARK                            x       y       z     vdW  Elec       q    Type
REMARK                         _______ _______ _______ _____ _____    ______ ____
ROOT
ATOM      1 CL   UNL     1       7.486   7.091  17.260  0.00  0.00    +0.000 Cl
ATOM      2  C   UNL     1       6.140   6.021  17.217  0.00  0.00    +0.000 A 
ATOM      3  C   UNL     1       6.282   4.754  16.663  0.00  0.00    +0.000 A 
ATOM      4  C   UNL     1       5.187   3.883  16.623  0.00  0.00    +0.000 A 
ATOM      5  C   UNL     1       3.937   4.258  17.150  0.00  0.00    +0.000 A 
ATOM      6  C   UNL     1       3.818   5.560  17.683  0.00  0.00    +0.000 A 
ATOM      7 CL   UNL     1       2.321   6.163  18.304  0.00  0.00    +0.000 Cl
ATOM      8  C   UNL     1       4.912   6.430  17.724  0.00  0.00    +0.000 A 
ENDROOT
BRANCH   5   9
ATOM      9  C   UNL     1       2.741   3.323  17.069  0.00  0.00    +0.000 C 
BRANCH   9  10
ATOM     10  C   UNL     1       2.764   2.126  18.027  0.00  0.00    +0.000 C 
BRANCH  10  11
ATOM     11  N   UNL     1       2.369   2.485  19.376  0.00  0.00    +0.000 N 
ATOM     12  C   UNL     1       3.200   2.633  20.449  0.00  0.00    +0.000 A 
ATOM     13  C   UNL     1       2.379   3.038  21.478  0.00  0.00    +0.000 A 
ATOM     14  N   UNL     1       1.079   3.134  21.051  0.00  0.00    +0.000 NA
ATOM     15  C   UNL     1       1.104   2.800  19.781  0.00  0.00    +0.000 A 
ENDBRANCH  10  11
ENDBRANCH   9  10
ENDBRANCH   5   9
TORSDOF 3
ENDMDL
MODEL 3
REMARK VINA RESULT:      -6.0      1.946      2.676
REMARK  Name = 
REMARK  3 active torsions:
REMARK  status: ('A' for Active; 'I' for Inactive)
REMARK    1  A    between atoms: C_5  and  C_6
REMARK    2  A    between atoms: C_6  and  C_7
REMARK    3  A    between atoms: C_7  and  N_8
REMARK                            x       y       z     vdW  Elec       q    Type
REMARK                         _______ _______ _______ _____ _____    ______ ____
ROOT
ATOM      1 CL   UNL     1       7.089   4.720  13.542  0.00  0.00    +0.000 Cl
ATOM      2  C   UNL     1       6.502   4.590  15.154  0.00  0.00    +0.000 A 
ATOM      3  C   UNL     1       5.222   4.101  15.386  0.00  0.00    +0.000 A 
ATOM      4  C   UNL     1       4.740   3.998  16.696  0.00  0.00    +0.000 A 
ATOM      5  C   UNL     1       5.537   4.366  17.796  0.00  0.00    +0.000 A 
ATOM      6  C   UNL     1       6.823   4.881  17.527  0.00  0.00    +0.000 A 
ATOM      7 CL   UNL     1       7.874   5.426  18.788  0.00  0.00    +0.000 Cl
ATOM      8  C   UNL     1       7.305   4.984  16.218  0.00  0.00    +0.000 A 
ENDROOT
BRANCH   5   9
ATOM      9  C   UNL     1       4.995   4.288  19.214  0.00  0.00    +0.000 C 
BRANCH   9  10
ATOM     10  C   UNL     1       4.434   2.926  19.641  0.00  0.00    +0.000 C 
BRANCH  10  11
ATOM     11  N   UNL     1       3.034   2.993  20.015  0.00  0.00    +0.000 N 
ATOM     12  C   UNL     1       1.978   3.179  19.170  0.00  0.00    +0.000 A 
ATOM     13  C   UNL     1       0.864   3.104  19.974  0.00  0.00    +0.000 A 
ATOM     14  N   UNL     1       1.222   2.881  21.279  0.00  0.00    +0.000 NA
ATOM     15  C   UNL     1       2.534   2.814  21.273  0.00  0.00    +0.000 A 
ENDBRANCH  10  11
ENDBRANCH   9  10
ENDBRANCH   5   9
TORSDOF 3
ENDMDL
MODEL 4
REMARK VINA RESULT:      -6.0      3.022      5.440
REMARK  Name = 
REMARK  3 active torsions:
REMARK  status: ('A' for Active; 'I' for Inactive)
REMARK    1  A    between atoms: C_5  and  C_6
REMARK    2  A    between atoms: C_6  and  C_7
REMARK    3  A    between atoms: C_7  and  N_8
REMARK                            x       y       z     vdW  Elec       q    Type
REMARK                         _______ _______ _______ _____ _____    ______ ____
ROOT
ATOM      1 CL   UNL     1       1.570   2.587  21.797  0.00  0.00    +0.000 Cl
ATOM      2  C   UNL     1       2.148   3.636  20.563  0.00  0.00    +0.000 A 
ATOM      3  C   UNL     1       2.844   3.112  19.480  0.00  0.00    +0.000 A 
ATOM      4  C   UNL     1       3.320   3.964  18.477  0.00  0.00    +0.000 A 
ATOM      5  C   UNL     1       3.093   5.352  18.532  0.00  0.00    +0.000 A 
ATOM      6  C   UNL     1       2.406   5.857  19.656  0.00  0.00    +0.000 A 
ATOM      7 CL   UNL     1       2.120   7.549  19.872  0.00  0.00    +0.000 Cl
ATOM      8  C   UNL     1       1.929   5.006  20.658  0.00  0.00    +0.000 A 
ENDROOT
BRANCH   5   9
ATOM      9  C   UNL     1       3.646   6.277  17.459  0.00  0.00    +0.000 C 
BRANCH   9  10
ATOM     10  C   UNL     1       5.123   6.664  17.608  0.00  0.00    +0.000 C 
BRANCH  10  11
ATOM     11  N   UNL     1       6.008   5.765  16.892  0.00  0.00    +0.000 N 
ATOM     12  C   UNL     1       5.911   5.412  15.577  0.00  0.00    +0.000 A 
ATOM     13  C   UNL     1       7.001   4.602  15.347  0.00  0.00    +0.000 A 
ATOM     14  N   UNL     1       7.747   4.458  16.489  0.00  0.00    +0.000 NA
ATOM     15  C   UNL     1       7.127   5.173  17.401  0.00  0.00    +0.000 A 
ENDBRANCH  10  11
ENDBRANCH   9  10
ENDBRANCH   5   9
TORSDOF 3
ENDMDL
MODEL 5
REMARK VINA RESULT:      -5.9      1.941      2.780
REMARK  Name = 
REMARK  3 active torsions:
REMARK  status: ('A' for Active; 'I' for Inactive)
REMARK    1  A    between atoms: C_5  and  C_6
REMARK    2  A    between atoms: C_6  and  C_7
REMARK    3  A    between atoms: C_7  and  N_8
REMARK                            x       y       z     vdW  Elec       q    Type
REMARK                         _______ _______ _______ _____ _____    ______ ____
ROOT
ATOM      1 CL   UNL     1       7.252   4.922  13.609  0.00  0.00    +0.000 Cl
ATOM      2  C   UNL     1       6.599   4.736  15.189  0.00  0.00    +0.000 A 
ATOM      3  C   UNL     1       5.331   4.191  15.354  0.00  0.00    +0.000 A 
ATOM      4  C   UNL     1       4.796   4.043  16.638  0.00  0.00    +0.000 A 
ATOM      5  C   UNL     1       5.526   4.422  17.780  0.00  0.00    +0.000 A 
ATOM      6  C   UNL     1       6.800   4.995  17.580  0.00  0.00    +0.000 A 
ATOM      7 CL   UNL     1       7.769   5.560  18.896  0.00  0.00    +0.000 Cl
ATOM      8  C   UNL     1       7.336   5.143  16.296  0.00  0.00    +0.000 A 
ENDROOT
BRANCH   5   9
ATOM      9  C   UNL     1       4.924   4.295  19.171  0.00  0.00    +0.000 C 
BRANCH   9  10
ATOM     10  C   UNL     1       4.388   2.907  19.542  0.00  0.00    +0.000 C 
BRANCH  10  11
ATOM     11  N   UNL     1       2.939   2.850  19.534  0.00  0.00    +0.000 N 
ATOM     12  C   UNL     1       2.100   3.468  20.416  0.00  0.00    +0.000 A 
ATOM     13  C   UNL     1       0.833   3.174  19.964  0.00  0.00    +0.000 A 
ATOM     14  N   UNL     1       0.889   2.395  18.838  0.00  0.00    +0.000 NA
ATOM     15  C   UNL     1       2.169   2.220  18.599  0.00  0.00    +0.000 A 
ENDBRANCH  10  11
ENDBRANCH   9  10
ENDBRANCH   5   9
TORSDOF 3
ENDMDL
MODEL 6
REMARK VINA RESULT:      -5.8      1.723      2.057
REMARK  Name = 
REMARK  3 active torsions:
REMARK  status: ('A' for Active; 'I' for Inactive)
REMARK    1  A    between atoms: C_5  and  C_6
REMARK    2  A    between atoms: C_6  and  C_7
REMARK    3  A    between atoms: C_7  and  N_8
REMARK                            x       y       z     vdW  Elec       q    Type
REMARK                         _______ _______ _______ _____ _____    ______ ____
ROOT
ATOM      1 CL   UNL     1       8.256   7.085  18.576  0.00  0.00    +0.000 Cl
ATOM      2  C   UNL     1       6.998   5.946  18.294  0.00  0.00    +0.000 A 
ATOM      3  C   UNL     1       6.150   5.582  19.333  0.00  0.00    +0.000 A 
ATOM      4  C   UNL     1       5.128   4.652  19.107  0.00  0.00    +0.000 A 
ATOM      5  C   UNL     1       4.928   4.084  17.835  0.00  0.00    +0.000 A 
ATOM      6  C   UNL     1       5.821   4.454  16.808  0.00  0.00    +0.000 A 
ATOM      7 CL   UNL     1       5.720   3.779  15.218  0.00  0.00    +0.000 Cl
ATOM      8  C   UNL     1       6.841   5.384  17.032  0.00  0.00    +0.000 A 
ENDROOT
BRANCH   5   9
ATOM      9  C   UNL     1       3.842   3.045  17.606  0.00  0.00    +0.000 C 
BRANCH   9  10
ATOM     10  C   UNL     1       3.687   1.987  18.705  0.00  0.00    +0.000 C 
BRANCH  10  11
ATOM     11  N   UNL     1       2.804   2.418  19.772  0.00  0.00    +0.000 N 
ATOM     12  C   UNL     1       1.502   2.807  19.637  0.00  0.00    +0.000 A 
ATOM     13  C   UNL     1       1.073   3.056  20.921  0.00  0.00    +0.000 A 
ATOM     14  N   UNL     1       2.081   2.829  21.822  0.00  0.00    +0.000 NA
ATOM     15  C   UNL     1       3.110   2.442  21.102  0.00  0.00    +0.000 A 
ENDBRANCH  10  11
ENDBRANCH   9  10
ENDBRANCH   5   9
TORSDOF 3
ENDMDL
MODEL 7
REMARK VINA RESULT:      -5.8      1.690      1.915
REMARK  Name = 
REMARK  3 active torsions:
REMARK  status: ('A' for Active; 'I' for Inactive)
REMARK    1  A    between atoms: C_5  and  C_6
REMARK    2  A    between atoms: C_6  and  C_7
REMARK    3  A    between atoms: C_7  and  N_8
REMARK                            x       y       z     vdW  Elec       q    Type
REMARK                         _______ _______ _______ _____ _____    ______ ____
ROOT
ATOM      1 CL   UNL     1       8.007   7.162  18.345  0.00  0.00    +0.000 Cl
ATOM      2  C   UNL     1       6.625   6.204  17.987  0.00  0.00    +0.000 A 
ATOM      3  C   UNL     1       5.804   6.547  16.919  0.00  0.00    +0.000 A 
ATOM      4  C   UNL     1       4.676   5.772  16.628  0.00  0.00    +0.000 A 
ATOM      5  C   UNL     1       4.359   4.631  17.389  0.00  0.00    +0.000 A 
ATOM      6  C   UNL     1       5.197   4.323  18.482  0.00  0.00    +0.000 A 
ATOM      7 CL   UNL     1       4.881   2.985  19.532  0.00  0.00    +0.000 Cl
ATOM      8  C   UNL     1       6.325   5.097  18.773  0.00  0.00    +0.000 A 
ENDROOT
BRANCH   5   9
ATOM      9  C   UNL     1       3.111   3.815  17.092  0.00  0.00    +0.000 C 
BRANCH   9  10
ATOM     10  C   UNL     1       1.814   4.324  17.732  0.00  0.00    +0.000 C 
BRANCH  10  11
ATOM     11  N   UNL     1       1.681   3.920  19.119  0.00  0.00    +0.000 N 
ATOM     12  C   UNL     1       1.900   4.705  20.215  0.00  0.00    +0.000 A 
ATOM     13  C   UNL     1       1.586   3.906  21.291  0.00  0.00    +0.000 A 
ATOM     14  N   UNL     1       1.187   2.663  20.871  0.00  0.00    +0.000 NA
ATOM     15  C   UNL     1       1.250   2.702  19.559  0.00  0.00    +0.000 A 
ENDBRANCH  10  11
ENDBRANCH   9  10
ENDBRANCH   5   9
TORSDOF 3
ENDMDL
MODEL 8
REMARK VINA RESULT:      -5.8      3.049      5.494
REMARK  Name = 
REMARK  3 active torsions:
REMARK  status: ('A' for Active; 'I' for Inactive)
REMARK    1  A    between atoms: C_5  and  C_6
REMARK    2  A    between atoms: C_6  and  C_7
REMARK    3  A    between atoms: C_7  and  N_8
REMARK                            x       y       z     vdW  Elec       q    Type
REMARK                         _______ _______ _______ _____ _____    ______ ____
ROOT
ATOM      1 CL   UNL     1       1.962   2.667  21.794  0.00  0.00    +0.000 Cl
ATOM      2  C   UNL     1       2.491   3.703  20.527  0.00  0.00    +0.000 A 
ATOM      3  C   UNL     1       2.362   5.080  20.661  0.00  0.00    +0.000 A 
ATOM      4  C   UNL     1       2.787   5.925  19.629  0.00  0.00    +0.000 A 
ATOM      5  C   UNL     1       3.363   5.407  18.454  0.00  0.00    +0.000 A 
ATOM      6  C   UNL     1       3.457   4.004  18.337  0.00  0.00    +0.000 A 
ATOM      7 CL   UNL     1       4.087   3.243  16.917  0.00  0.00    +0.000 Cl
ATOM      8  C   UNL     1       3.033   3.159  19.368  0.00  0.00    +0.000 A 
ENDROOT
BRANCH   5   9
ATOM      9  C   UNL     1       3.788   6.327  17.320  0.00  0.00    +0.000 C 
BRANCH   9  10
ATOM     10  C   UNL     1       5.164   6.986  17.475  0.00  0.00    +0.000 C 
BRANCH  10  11
ATOM     11  N   UNL     1       6.251   6.030  17.386  0.00  0.00    +0.000 N 
ATOM     12  C   UNL     1       6.896   5.438  18.434  0.00  0.00    +0.000 A 
ATOM     13  C   UNL     1       7.794   4.571  17.853  0.00  0.00    +0.000 A 
ATOM     14  N   UNL     1       7.707   4.628  16.486  0.00  0.00    +0.000 NA
ATOM     15  C   UNL     1       6.767   5.511  16.234  0.00  0.00    +0.000 A 
ENDBRANCH  10  11
ENDBRANCH   9  10
ENDBRANCH   5   9
TORSDOF 3
ENDMDL
MODEL 9
REMARK VINA RESULT:      -5.8      1.792      2.199
REMARK  Name = 
REMARK  3 active torsions:
REMARK  status: ('A' for Active; 'I' for Inactive)
REMARK    1  A    between atoms: C_5  and  C_6
REMARK    2  A    between atoms: C_6  and  C_7
REMARK    3  A    between atoms: C_7  and  N_8
REMARK                            x       y       z     vdW  Elec       q    Type
REMARK                         _______ _______ _______ _____ _____    ______ ____
ROOT
ATOM      1 CL   UNL     1       8.265   6.776  18.705  0.00  0.00    +0.000 Cl
ATOM      2  C   UNL     1       6.908   5.818  18.258  0.00  0.00    +0.000 A 
ATOM      3  C   UNL     1       6.035   5.359  19.237  0.00  0.00    +0.000 A 
ATOM      4  C   UNL     1       4.933   4.575  18.877  0.00  0.00    +0.000 A 
ATOM      5  C   UNL     1       4.676   4.253  17.531  0.00  0.00    +0.000 A 
ATOM      6  C   UNL     1       5.594   4.713  16.564  0.00  0.00    +0.000 A 
ATOM      7 CL   UNL     1       5.426   4.331  14.885  0.00  0.00    +0.000 Cl
ATOM      8  C   UNL     1       6.696   5.496  16.923  0.00  0.00    +0.000 A 
ENDROOT
BRANCH   5   9
ATOM      9  C   UNL     1       3.499   3.369  17.150  0.00  0.00    +0.000 C 
BRANCH   9  10
ATOM     10  C   UNL     1       3.149   2.257  18.147  0.00  0.00    +0.000 C 
BRANCH  10  11
ATOM     11  N   UNL     1       2.281   2.719  19.213  0.00  0.00    +0.000 N 
ATOM     12  C   UNL     1       2.372   2.383  20.534  0.00  0.00    +0.000 A 
ATOM     13  C   UNL     1       1.384   3.114  21.154  0.00  0.00    +0.000 A 
ATOM     14  N   UNL     1       0.702   3.878  20.242  0.00  0.00    +0.000 NA
ATOM     15  C   UNL     1       1.267   3.624  19.083  0.00  0.00    +0.000 A 
ENDBRANCH  10  11
ENDBRANCH   9  10
ENDBRANCH   5   9
TORSDOF 3
ENDMDL
