MODEL 1
REMARK VINA RESULT:      -8.3      0.000      0.000
REMARK  Name = 
REMARK  10 active torsions:
REMARK  status: ('A' for Active; 'I' for Inactive)
REMARK    1  A    between atoms: C_1  and  O_2
REMARK    2  A    between atoms: O_2  and  C_3
REMARK    3  A    between atoms: C_6  and  N_7
REMARK    4  A    between atoms: N_7  and  S_8
REMARK    5  A    between atoms: S_8  and  C_11
REMARK    6  A    between atoms: C_15  and  C_16
REMARK    7  A    between atoms: N_18  and  N_19
REMARK    8  A    between atoms: C_20  and  C_22
REMARK    9  A    between atoms: C_24  and  C_25
REMARK   10  A    between atoms: C_27  and  C_28
REMARK                            x       y       z     vdW  Elec       q    Type
REMARK                         _______ _______ _______ _____ _____    ______ ____
ROOT
ATOM      1  C   UNL     1       4.977   4.221  17.572  0.00  0.00    +0.000 A 
ATOM      2  C   UNL     1       4.981   4.187  16.174  0.00  0.00    +0.000 A 
ATOM      3  C   UNL     1       5.878   5.000  15.472  0.00  0.00    +0.000 A 
ATOM      4  C   UNL     1       6.776   5.819  16.170  0.00  0.00    +0.000 A 
ATOM      5  C   UNL     1       6.792   5.826  17.575  0.00  0.00    +0.000 A 
ATOM      6  C   UNL     1       5.888   5.025  18.272  0.00  0.00    +0.000 A 
ENDROOT
BRANCH   5   7
ATOM      7  C   UNL     1       7.763   6.709  18.281  0.00  0.00    +0.000 C 
ATOM      8  O   UNL     1       8.394   6.300  19.253  0.00  0.00    +0.000 OA
ATOM      9  N   UNL     1       7.877   8.004  17.807  0.00  0.00    +0.000 N 
ATOM     10  H   UNL     1       7.312   8.405  17.058  0.00  0.00    +0.000 HD
BRANCH   9  11
ATOM     11  N   UNL     1       8.746   8.899  18.459  0.00  0.00    +0.000 N 
ATOM     12  C   UNL     1       8.644  10.247  18.166  0.00  0.00    +0.000 C 
ATOM     13  O   UNL     1       7.782  10.667  17.390  0.00  0.00    +0.000 OA
ATOM     14  H   UNL     1       9.397   8.501  19.130  0.00  0.00    +0.000 HD
BRANCH  12  15
ATOM     15  C   UNL     1       9.616  11.122  18.812  0.00  0.00    +0.000 A 
ATOM     16  C   UNL     1      10.659  11.929  18.257  0.00  0.00    +0.000 A 
ATOM     17  C   UNL     1      11.244  12.608  19.305  0.00  0.00    +0.000 A 
ATOM     18  C   UNL     1      12.318  13.617  19.408  0.00  0.00    +0.000 C 
ATOM     19  O   UNL     1      10.659  12.248  20.476  0.00  0.00    +0.000 OA
ATOM     20  C   UNL     1       9.675  11.355  20.179  0.00  0.00    +0.000 A 
ATOM     21  C   UNL     1       8.897  10.860  21.337  0.00  0.00    +0.000 C 
ENDBRANCH  12  15
ENDBRANCH   9  11
ENDBRANCH   5   7
BRANCH   1  22
ATOM     22  S   UNL     1       3.906   3.151  18.519  0.00  0.00    +0.000 S 
ATOM     23  O   UNL     1       4.392   3.163  19.883  0.00  0.00    +0.000 OA
ATOM     24  O   UNL     1       3.778   1.911  17.783  0.00  0.00    +0.000 OA
BRANCH  22  25
ATOM     25  N   UNL     1       2.395   3.880  18.474  0.00  0.00    +0.000 N 
ATOM     26  H   UNL     1       1.797   3.578  17.708  0.00  0.00    +0.000 HD
BRANCH  25  30
ATOM     27  C   UNL     1       1.688   7.657  20.198  0.00  0.00    +0.000 A 
ATOM     28  C   UNL     1       2.177   7.554  18.896  0.00  0.00    +0.000 A 
ATOM     29  C   UNL     1       2.402   6.299  18.325  0.00  0.00    +0.000 A 
ATOM     30  C   UNL     1       2.166   5.144  19.069  0.00  0.00    +0.000 A 
ATOM     31  C   UNL     1       1.683   5.237  20.372  0.00  0.00    +0.000 A 
ATOM     32  C   UNL     1       1.440   6.498  20.936  0.00  0.00    +0.000 A 
BRANCH  27  34
ATOM     33  C   UNL     1       1.217   9.061  22.043  0.00  0.00    +0.000 C 
ATOM     34  O   UNL     1       1.517   8.935  20.657  0.00  0.00    +0.000 OA
ENDBRANCH  27  34
ENDBRANCH  25  30
ENDBRANCH  22  25
ENDBRANCH   1  22
TORSDOF 7
ENDMDL
MODEL 2
REMARK VINA RESULT:      -8.0      4.459      8.414
REMARK  Name = 
REMARK  10 active torsions:
REMARK  status: ('A' for Active; 'I' for Inactive)
REMARK    1  A    between atoms: C_1  and  O_2
REMARK    2  A    between atoms: O_2  and  C_3
REMARK    3  A    between atoms: C_6  and  N_7
REMARK    4  A    between atoms: N_7  and  S_8
REMARK    5  A    between atoms: S_8  and  C_11
REMARK    6  A    between atoms: C_15  and  C_16
REMARK    7  A    between atoms: N_18  and  N_19
REMARK    8  A    between atoms: C_20  and  C_22
REMARK    9  A    between atoms: C_24  and  C_25
REMARK   10  A    between atoms: C_27  and  C_28
REMARK                            x       y       z     vdW  Elec       q    Type
REMARK                         _______ _______ _______ _____ _____    ______ ____
ROOT
ATOM      1  C   UNL     1       5.568   5.470  18.238  0.00  0.00    +0.000 A 
ATOM      2  C   UNL     1       4.999   4.281  18.707  0.00  0.00    +0.000 A 
ATOM      3  C   UNL     1       3.643   4.259  19.050  0.00  0.00    +0.000 A 
ATOM      4  C   UNL     1       2.863   5.414  18.900  0.00  0.00    +0.000 A 
ATOM      5  C   UNL     1       3.428   6.597  18.397  0.00  0.00    +0.000 A 
ATOM      6  C   UNL     1       4.783   6.621  18.068  0.00  0.00    +0.000 A 
ENDROOT
BRANCH   5   7
ATOM      7  C   UNL     1       2.566   7.803  18.249  0.00  0.00    +0.000 C 
ATOM      8  O   UNL     1       2.547   8.438  17.198  0.00  0.00    +0.000 OA
ATOM      9  N   UNL     1       1.834   8.178  19.362  0.00  0.00    +0.000 N 
ATOM     10  H   UNL     1       1.886   7.726  20.276  0.00  0.00    +0.000 HD
BRANCH   9  11
ATOM     11  N   UNL     1       1.032   9.333  19.299  0.00  0.00    +0.000 N 
ATOM     12  C   UNL     1       0.186   9.606  20.359  0.00  0.00    +0.000 C 
ATOM     13  O   UNL     1       0.164   8.885  21.359  0.00  0.00    +0.000 OA
ATOM     14  H   UNL     1       1.135   9.919  18.475  0.00  0.00    +0.000 HD
BRANCH  12  15
ATOM     15  C   UNL     1      -0.675  10.774  20.211  0.00  0.00    +0.000 A 
ATOM     16  C   UNL     1      -0.855  11.914  21.057  0.00  0.00    +0.000 A 
ATOM     17  C   UNL     1      -1.744  12.753  20.419  0.00  0.00    +0.000 A 
ATOM     18  C   UNL     1      -2.301  14.087  20.721  0.00  0.00    +0.000 C 
ATOM     19  O   UNL     1      -2.156  12.192  19.253  0.00  0.00    +0.000 OA
ATOM     20  C   UNL     1      -1.510  11.001  19.125  0.00  0.00    +0.000 A 
ATOM     21  C   UNL     1      -1.813  10.244  17.889  0.00  0.00    +0.000 C 
ENDBRANCH  12  15
ENDBRANCH   9  11
ENDBRANCH   5   7
BRANCH   1  22
ATOM     22  S   UNL     1       7.274   5.536  17.716  0.00  0.00    +0.000 S 
ATOM     23  O   UNL     1       7.769   4.176  17.710  0.00  0.00    +0.000 OA
ATOM     24  O   UNL     1       7.924   6.564  18.503  0.00  0.00    +0.000 OA
BRANCH  22  25
ATOM     25  N   UNL     1       7.235   6.109  16.139  0.00  0.00    +0.000 N 
ATOM     26  H   UNL     1       7.177   7.121  16.052  0.00  0.00    +0.000 HD
BRANCH  25  30
ATOM     27  C   UNL     1       5.935   3.676  12.957  0.00  0.00    +0.000 A 
ATOM     28  C   UNL     1       7.202   4.258  12.930  0.00  0.00    +0.000 A 
ATOM     29  C   UNL     1       7.633   5.057  13.992  0.00  0.00    +0.000 A 
ATOM     30  C   UNL     1       6.782   5.300  15.069  0.00  0.00    +0.000 A 
ATOM     31  C   UNL     1       5.513   4.727  15.102  0.00  0.00    +0.000 A 
ATOM     32  C   UNL     1       5.091   3.909  14.044  0.00  0.00    +0.000 A 
BRANCH  27  34
ATOM     33  C   UNL     1       4.296   3.087  11.357  0.00  0.00    +0.000 C 
ATOM     34  O   UNL     1       5.617   2.922  11.859  0.00  0.00    +0.000 OA
ENDBRANCH  27  34
ENDBRANCH  25  30
ENDBRANCH  22  25
ENDBRANCH   1  22
TORSDOF 7
ENDMDL
MODEL 3
REMARK VINA RESULT:      -8.0      4.540      8.557
REMARK  Name = 
REMARK  10 active torsions:
REMARK  status: ('A' for Active; 'I' for Inactive)
REMARK    1  A    between atoms: C_1  and  O_2
REMARK    2  A    between atoms: O_2  and  C_3
REMARK    3  A    between atoms: C_6  and  N_7
REMARK    4  A    between atoms: N_7  and  S_8
REMARK    5  A    between atoms: S_8  and  C_11
REMARK    6  A    between atoms: C_15  and  C_16
REMARK    7  A    between atoms: N_18  and  N_19
REMARK    8  A    between atoms: C_20  and  C_22
REMARK    9  A    between atoms: C_24  and  C_25
REMARK   10  A    between atoms: C_27  and  C_28
REMARK                            x       y       z     vdW  Elec       q    Type
REMARK                         _______ _______ _______ _____ _____    ______ ____
ROOT
ATOM      1  C   UNL     1       5.484   5.476  17.753  0.00  0.00    +0.000 A 
ATOM      2  C   UNL     1       4.888   4.241  18.027  0.00  0.00    +0.000 A 
ATOM      3  C   UNL     1       3.536   4.196  18.384  0.00  0.00    +0.000 A 
ATOM      4  C   UNL     1       2.787   5.379  18.442  0.00  0.00    +0.000 A 
ATOM      5  C   UNL     1       3.378   6.615  18.134  0.00  0.00    +0.000 A 
ATOM      6  C   UNL     1       4.729   6.659  17.792  0.00  0.00    +0.000 A 
ENDROOT
BRANCH   5   7
ATOM      7  C   UNL     1       2.548   7.851  18.205  0.00  0.00    +0.000 C 
ATOM      8  O   UNL     1       2.384   8.556  17.213  0.00  0.00    +0.000 OA
ATOM      9  N   UNL     1       2.018   8.167  19.443  0.00  0.00    +0.000 N 
ATOM     10  H   UNL     1       2.199   7.653  20.307  0.00  0.00    +0.000 HD
BRANCH   9  11
ATOM     11  N   UNL     1       1.260   9.344  19.584  0.00  0.00    +0.000 N 
ATOM     12  C   UNL     1       0.268   9.377  20.548  0.00  0.00    +0.000 C 
ATOM     13  O   UNL     1       0.079   8.419  21.301  0.00  0.00    +0.000 OA
ATOM     14  H   UNL     1       1.498  10.121  18.974  0.00  0.00    +0.000 HD
BRANCH  12  15
ATOM     15  C   UNL     1      -0.537  10.592  20.604  0.00  0.00    +0.000 A 
ATOM     16  C   UNL     1      -0.664  11.581  21.630  0.00  0.00    +0.000 A 
ATOM     17  C   UNL     1      -1.511  12.557  21.147  0.00  0.00    +0.000 A 
ATOM     18  C   UNL     1      -2.004  13.846  21.672  0.00  0.00    +0.000 C 
ATOM     19  O   UNL     1      -1.945  12.221  19.905  0.00  0.00    +0.000 OA
ATOM     20  C   UNL     1      -1.357  11.039  19.576  0.00  0.00    +0.000 A 
ATOM     21  C   UNL     1      -1.691  10.516  18.232  0.00  0.00    +0.000 C 
ENDBRANCH  12  15
ENDBRANCH   9  11
ENDBRANCH   5   7
BRANCH   1  22
ATOM     22  S   UNL     1       7.184   5.586  17.221  0.00  0.00    +0.000 S 
ATOM     23  O   UNL     1       7.736   4.249  17.283  0.00  0.00    +0.000 OA
ATOM     24  O   UNL     1       7.792   6.680  17.949  0.00  0.00    +0.000 OA
BRANCH  22  25
ATOM     25  N   UNL     1       7.118   6.073  15.616  0.00  0.00    +0.000 N 
ATOM     26  H   UNL     1       6.966   7.069  15.477  0.00  0.00    +0.000 HD
BRANCH  25  30
ATOM     27  C   UNL     1       6.007   3.414  12.545  0.00  0.00    +0.000 A 
ATOM     28  C   UNL     1       5.161   3.631  13.633  0.00  0.00    +0.000 A 
ATOM     29  C   UNL     1       5.530   4.521  14.645  0.00  0.00    +0.000 A 
ATOM     30  C   UNL     1       6.761   5.172  14.584  0.00  0.00    +0.000 A 
ATOM     31  C   UNL     1       7.614   4.957  13.504  0.00  0.00    +0.000 A 
ATOM     32  C   UNL     1       7.233   4.078  12.480  0.00  0.00    +0.000 A 
BRANCH  27  34
ATOM     33  C   UNL     1       6.490   1.543  11.180  0.00  0.00    +0.000 C 
ATOM     34  O   UNL     1       5.548   2.514  11.621  0.00  0.00    +0.000 OA
ENDBRANCH  27  34
ENDBRANCH  25  30
ENDBRANCH  22  25
ENDBRANCH   1  22
TORSDOF 7
ENDMDL
MODEL 4
REMARK VINA RESULT:      -8.0      5.084      8.529
REMARK  Name = 
REMARK  10 active torsions:
REMARK  status: ('A' for Active; 'I' for Inactive)
REMARK    1  A    between atoms: C_1  and  O_2
REMARK    2  A    between atoms: O_2  and  C_3
REMARK    3  A    between atoms: C_6  and  N_7
REMARK    4  A    between atoms: N_7  and  S_8
REMARK    5  A    between atoms: S_8  and  C_11
REMARK    6  A    between atoms: C_15  and  C_16
REMARK    7  A    between atoms: N_18  and  N_19
REMARK    8  A    between atoms: C_20  and  C_22
REMARK    9  A    between atoms: C_24  and  C_25
REMARK   10  A    between atoms: C_27  and  C_28
REMARK                            x       y       z     vdW  Elec       q    Type
REMARK                         _______ _______ _______ _____ _____    ______ ____
ROOT
ATOM      1  C   UNL     1      -0.684  10.622  19.945  0.00  0.00    +0.000 A 
ATOM      2  C   UNL     1      -0.591  10.174  21.267  0.00  0.00    +0.000 A 
ATOM      3  C   UNL     1       0.369   9.212  21.599  0.00  0.00    +0.000 A 
ATOM      4  C   UNL     1       1.242   8.724  20.616  0.00  0.00    +0.000 A 
ATOM      5  C   UNL     1       1.169   9.200  19.296  0.00  0.00    +0.000 A 
ATOM      6  C   UNL     1       0.202  10.149  18.965  0.00  0.00    +0.000 A 
ENDROOT
BRANCH   5   7
ATOM      7  C   UNL     1       2.116   8.659  18.281  0.00  0.00    +0.000 C 
ATOM      8  O   UNL     1       2.328   9.265  17.233  0.00  0.00    +0.000 OA
ATOM      9  N   UNL     1       2.697   7.438  18.569  0.00  0.00    +0.000 N 
ATOM     10  H   UNL     1       2.485   6.866  19.387  0.00  0.00    +0.000 HD
BRANCH   9  11
ATOM     11  N   UNL     1       3.569   6.854  17.630  0.00  0.00    +0.000 N 
ATOM     12  C   UNL     1       4.456   5.888  18.068  0.00  0.00    +0.000 C 
ATOM     13  O   UNL     1       4.458   5.507  19.241  0.00  0.00    +0.000 OA
ATOM     14  H   UNL     1       3.483   7.167  16.667  0.00  0.00    +0.000 HD
BRANCH  12  15
ATOM     15  C   UNL     1       5.386   5.368  17.071  0.00  0.00    +0.000 A 
ATOM     16  C   UNL     1       5.166   4.938  15.724  0.00  0.00    +0.000 A 
ATOM     17  C   UNL     1       6.397   4.596  15.204  0.00  0.00    +0.000 A 
ATOM     18  C   UNL     1       6.865   4.136  13.881  0.00  0.00    +0.000 C 
ATOM     19  O   UNL     1       7.359   4.751  16.149  0.00  0.00    +0.000 OA
ATOM     20  C   UNL     1       6.752   5.219  17.273  0.00  0.00    +0.000 A 
ATOM     21  C   UNL     1       7.652   5.477  18.420  0.00  0.00    +0.000 C 
ENDBRANCH  12  15
ENDBRANCH   9  11
ENDBRANCH   5   7
BRANCH   1  22
ATOM     22  S   UNL     1      -1.839  11.901  19.480  0.00  0.00    +0.000 S 
ATOM     23  O   UNL     1      -1.201  12.699  18.456  0.00  0.00    +0.000 OA
ATOM     24  O   UNL     1      -2.326  12.505  20.703  0.00  0.00    +0.000 OA
BRANCH  22  25
ATOM     25  N   UNL     1      -3.148  11.095  18.806  0.00  0.00    +0.000 N 
ATOM     26  H   UNL     1      -3.686  10.529  19.458  0.00  0.00    +0.000 HD
BRANCH  25  30
ATOM     27  C   UNL     1      -3.274  10.214  14.689  0.00  0.00    +0.000 A 
ATOM     28  C   UNL     1      -4.065  11.233  15.219  0.00  0.00    +0.000 A 
ATOM     29  C   UNL     1      -4.014  11.527  16.584  0.00  0.00    +0.000 A 
ATOM     30  C   UNL     1      -3.191  10.781  17.425  0.00  0.00    +0.000 A 
ATOM     31  C   UNL     1      -2.402   9.758  16.906  0.00  0.00    +0.000 A 
ATOM     32  C   UNL     1      -2.441   9.477  15.533  0.00  0.00    +0.000 A 
BRANCH  27  34
ATOM     33  C   UNL     1      -4.711   9.609  12.910  0.00  0.00    +0.000 C 
ATOM     34  O   UNL     1      -3.415  10.007  13.343  0.00  0.00    +0.000 OA
ENDBRANCH  27  34
ENDBRANCH  25  30
ENDBRANCH  22  25
ENDBRANCH   1  22
TORSDOF 7
ENDMDL
MODEL 5
REMARK VINA RESULT:      -8.0      4.997      8.485
REMARK  Name = 
REMARK  10 active torsions:
REMARK  status: ('A' for Active; 'I' for Inactive)
REMARK    1  A    between atoms: C_1  and  O_2
REMARK    2  A    between atoms: O_2  and  C_3
REMARK    3  A    between atoms: C_6  and  N_7
REMARK    4  A    between atoms: N_7  and  S_8
REMARK    5  A    between atoms: S_8  and  C_11
REMARK    6  A    between atoms: C_15  and  C_16
REMARK    7  A    between atoms: N_18  and  N_19
REMARK    8  A    between atoms: C_20  and  C_22
REMARK    9  A    between atoms: C_24  and  C_25
REMARK   10  A    between atoms: C_27  and  C_28
REMARK                            x       y       z     vdW  Elec       q    Type
REMARK                         _______ _______ _______ _____ _____    ______ ____
ROOT
ATOM      1  C   UNL     1      -0.509  10.756  20.289  0.00  0.00    +0.000 A 
ATOM      2  C   UNL     1      -0.447  10.146  21.547  0.00  0.00    +0.000 A 
ATOM      3  C   UNL     1       0.444   9.088  21.752  0.00  0.00    +0.000 A 
ATOM      4  C   UNL     1       1.280   8.663  20.710  0.00  0.00    +0.000 A 
ATOM      5  C   UNL     1       1.239   9.298  19.458  0.00  0.00    +0.000 A 
ATOM      6  C   UNL     1       0.340  10.344  19.252  0.00  0.00    +0.000 A 
ENDROOT
BRANCH   5   7
ATOM      7  C   UNL     1       2.144   8.819  18.376  0.00  0.00    +0.000 C 
ATOM      8  O   UNL     1       2.417   9.539  17.419  0.00  0.00    +0.000 OA
ATOM      9  N   UNL     1       2.617   7.524  18.495  0.00  0.00    +0.000 N 
ATOM     10  H   UNL     1       2.348   6.868  19.229  0.00  0.00    +0.000 HD
BRANCH   9  11
ATOM     11  N   UNL     1       3.443   6.999  17.484  0.00  0.00    +0.000 N 
ATOM     12  C   UNL     1       4.459   6.133  17.847  0.00  0.00    +0.000 C 
ATOM     13  O   UNL     1       4.613   5.787  19.020  0.00  0.00    +0.000 OA
ATOM     14  H   UNL     1       3.232   7.275  16.528  0.00  0.00    +0.000 HD
BRANCH  12  15
ATOM     15  C   UNL     1       5.330   5.676  16.770  0.00  0.00    +0.000 A 
ATOM     16  C   UNL     1       5.058   4.846  15.637  0.00  0.00    +0.000 A 
ATOM     17  C   UNL     1       6.221   4.775  14.900  0.00  0.00    +0.000 A 
ATOM     18  C   UNL     1       6.593   4.139  13.620  0.00  0.00    +0.000 C 
ATOM     19  O   UNL     1       7.206   5.475  15.519  0.00  0.00    +0.000 OA
ATOM     20  C   UNL     1       6.670   6.020  16.645  0.00  0.00    +0.000 A 
ATOM     21  C   UNL     1       7.594   6.850  17.451  0.00  0.00    +0.000 C 
ENDBRANCH  12  15
ENDBRANCH   9  11
ENDBRANCH   5   7
BRANCH   1  22
ATOM     22  S   UNL     1      -1.574  12.158  19.993  0.00  0.00    +0.000 S 
ATOM     23  O   UNL     1      -1.009  12.892  18.881  0.00  0.00    +0.000 OA
ATOM     24  O   UNL     1      -1.806  12.799  21.270  0.00  0.00    +0.000 OA
BRANCH  22  25
ATOM     25  N   UNL     1      -3.047  11.507  19.522  0.00  0.00    +0.000 N 
ATOM     26  H   UNL     1      -3.570  11.049  20.265  0.00  0.00    +0.000 HD
BRANCH  25  30
ATOM     27  C   UNL     1      -3.797  10.363  15.539  0.00  0.00    +0.000 A 
ATOM     28  C   UNL     1      -2.897   9.643  16.324  0.00  0.00    +0.000 A 
ATOM     29  C   UNL     1      -2.658  10.021  17.648  0.00  0.00    +0.000 A 
ATOM     30  C   UNL     1      -3.298  11.140  18.178  0.00  0.00    +0.000 A 
ATOM     31  C   UNL     1      -4.195  11.867  17.400  0.00  0.00    +0.000 A 
ATOM     32  C   UNL     1      -4.447  11.475  16.078  0.00  0.00    +0.000 A 
BRANCH  27  34
ATOM     33  C   UNL     1      -2.737   9.610  13.563  0.00  0.00    +0.000 C 
ATOM     34  O   UNL     1      -3.944   9.909  14.256  0.00  0.00    +0.000 OA
ENDBRANCH  27  34
ENDBRANCH  25  30
ENDBRANCH  22  25
ENDBRANCH   1  22
TORSDOF 7
ENDMDL
MODEL 6
REMARK VINA RESULT:      -7.9      3.891      7.016
REMARK  Name = 
REMARK  10 active torsions:
REMARK  status: ('A' for Active; 'I' for Inactive)
REMARK    1  A    between atoms: C_1  and  O_2
REMARK    2  A    between atoms: O_2  and  C_3
REMARK    3  A    between atoms: C_6  and  N_7
REMARK    4  A    between atoms: N_7  and  S_8
REMARK    5  A    between atoms: S_8  and  C_11
REMARK    6  A    between atoms: C_15  and  C_16
REMARK    7  A    between atoms: N_18  and  N_19
REMARK    8  A    between atoms: C_20  and  C_22
REMARK    9  A    between atoms: C_24  and  C_25
REMARK   10  A    between atoms: C_27  and  C_28
REMARK                            x       y       z     vdW  Elec       q    Type
REMARK                         _______ _______ _______ _____ _____    ______ ____
ROOT
ATOM      1  C   UNL     1       2.750   5.087  18.702  0.00  0.00    +0.000 A 
ATOM      2  C   UNL     1       2.433   4.824  20.039  0.00  0.00    +0.000 A 
ATOM      3  C   UNL     1       1.983   5.867  20.855  0.00  0.00    +0.000 A 
ATOM      4  C   UNL     1       1.832   7.156  20.326  0.00  0.00    +0.000 A 
ATOM      5  C   UNL     1       2.119   7.412  18.975  0.00  0.00    +0.000 A 
ATOM      6  C   UNL     1       2.579   6.373  18.166  0.00  0.00    +0.000 A 
ENDROOT
BRANCH   5   7
ATOM      7  C   UNL     1       1.943   8.794  18.448  0.00  0.00    +0.000 C 
ATOM      8  O   UNL     1       2.346   9.097  17.328  0.00  0.00    +0.000 OA
ATOM      9  N   UNL     1       1.345   9.706  19.299  0.00  0.00    +0.000 N 
ATOM     10  H   UNL     1       1.072   9.516  20.264  0.00  0.00    +0.000 HD
BRANCH   9  11
ATOM     11  N   UNL     1       1.189  11.040  18.875  0.00  0.00    +0.000 N 
ATOM     12  C   UNL     1       1.178  12.038  19.833  0.00  0.00    +0.000 C 
ATOM     13  O   UNL     1       1.348  11.778  21.026  0.00  0.00    +0.000 OA
ATOM     14  H   UNL     1       1.109  11.198  17.874  0.00  0.00    +0.000 HD
BRANCH  12  15
ATOM     15  C   UNL     1       0.940  13.393  19.348  0.00  0.00    +0.000 A 
ATOM     16  C   UNL     1      -0.260  14.172  19.306  0.00  0.00    +0.000 A 
ATOM     17  C   UNL     1       0.082  15.411  18.807  0.00  0.00    +0.000 A 
ATOM     18  C   UNL     1      -0.661  16.665  18.565  0.00  0.00    +0.000 C 
ATOM     19  O   UNL     1       1.404  15.441  18.503  0.00  0.00    +0.000 OA
ATOM     20  C   UNL     1       1.923  14.226  18.832  0.00  0.00    +0.000 A 
ATOM     21  C   UNL     1       3.376  14.071  18.594  0.00  0.00    +0.000 C 
ENDBRANCH  12  15
ENDBRANCH   9  11
ENDBRANCH   5   7
BRANCH   1  22
ATOM     22  S   UNL     1       3.257   3.781  17.597  0.00  0.00    +0.000 S 
ATOM     23  O   UNL     1       2.095   3.408  16.818  0.00  0.00    +0.000 OA
ATOM     24  O   UNL     1       3.971   2.800  18.389  0.00  0.00    +0.000 OA
BRANCH  22  25
ATOM     25  N   UNL     1       4.395   4.476  16.578  0.00  0.00    +0.000 N 
ATOM     26  H   UNL     1       4.546   3.980  15.702  0.00  0.00    +0.000 HD
BRANCH  25  30
ATOM     27  C   UNL     1       7.477   6.934  18.060  0.00  0.00    +0.000 A 
ATOM     28  C   UNL     1       7.341   5.622  18.511  0.00  0.00    +0.000 A 
ATOM     29  C   UNL     1       6.322   4.807  18.010  0.00  0.00    +0.000 A 
ATOM     30  C   UNL     1       5.419   5.316  17.078  0.00  0.00    +0.000 A 
ATOM     31  C   UNL     1       5.545   6.627  16.626  0.00  0.00    +0.000 A 
ATOM     32  C   UNL     1       6.580   7.436  17.115  0.00  0.00    +0.000 A 
BRANCH  27  34
ATOM     33  C   UNL     1       8.498   9.044  18.383  0.00  0.00    +0.000 C 
ATOM     34  O   UNL     1       8.503   7.642  18.627  0.00  0.00    +0.000 OA
ENDBRANCH  27  34
ENDBRANCH  25  30
ENDBRANCH  22  25
ENDBRANCH   1  22
TORSDOF 7
ENDMDL
MODEL 7
REMARK VINA RESULT:      -7.7      4.699      9.075
REMARK  Name = 
REMARK  10 active torsions:
REMARK  status: ('A' for Active; 'I' for Inactive)
REMARK    1  A    between atoms: C_1  and  O_2
REMARK    2  A    between atoms: O_2  and  C_3
REMARK    3  A    between atoms: C_6  and  N_7
REMARK    4  A    between atoms: N_7  and  S_8
REMARK    5  A    between atoms: S_8  and  C_11
REMARK    6  A    between atoms: C_15  and  C_16
REMARK    7  A    between atoms: N_18  and  N_19
REMARK    8  A    between atoms: C_20  and  C_22
REMARK    9  A    between atoms: C_24  and  C_25
REMARK   10  A    between atoms: C_27  and  C_28
REMARK                            x       y       z     vdW  Elec       q    Type
REMARK                         _______ _______ _______ _____ _____    ______ ____
ROOT
ATOM      1  C   UNL     1       2.089   7.148  19.349  0.00  0.00    +0.000 A 
ATOM      2  C   UNL     1       2.073   7.766  18.094  0.00  0.00    +0.000 A 
ATOM      3  C   UNL     1       1.568   9.065  17.977  0.00  0.00    +0.000 A 
ATOM      4  C   UNL     1       1.104   9.742  19.113  0.00  0.00    +0.000 A 
ATOM      5  C   UNL     1       1.151   9.132  20.377  0.00  0.00    +0.000 A 
ATOM      6  C   UNL     1       1.643   7.832  20.490  0.00  0.00    +0.000 A 
ENDROOT
BRANCH   5   7
ATOM      7  C   UNL     1       0.650   9.885  21.562  0.00  0.00    +0.000 C 
ATOM      8  O   UNL     1       0.677   9.384  22.683  0.00  0.00    +0.000 OA
ATOM      9  N   UNL     1       0.128  11.143  21.317  0.00  0.00    +0.000 N 
ATOM     10  H   UNL     1       0.013  11.559  20.393  0.00  0.00    +0.000 HD
BRANCH   9  11
ATOM     11  N   UNL     1      -0.399  11.887  22.389  0.00  0.00    +0.000 N 
ATOM     12  C   UNL     1      -1.170  12.999  22.102  0.00  0.00    +0.000 C 
ATOM     13  O   UNL     1      -1.434  13.309  20.938  0.00  0.00    +0.000 OA
ATOM     14  H   UNL     1      -0.195  11.551  23.326  0.00  0.00    +0.000 HD
BRANCH  12  15
ATOM     15  C   UNL     1      -1.630  13.777  23.247  0.00  0.00    +0.000 A 
ATOM     16  C   UNL     1      -1.036  14.892  23.918  0.00  0.00    +0.000 A 
ATOM     17  C   UNL     1      -1.918  15.288  24.901  0.00  0.00    +0.000 A 
ATOM     18  C   UNL     1      -1.933  16.384  25.891  0.00  0.00    +0.000 C 
ATOM     19  O   UNL     1      -3.002  14.471  24.909  0.00  0.00    +0.000 OA
ATOM     20  C   UNL     1      -2.831  13.561  23.911  0.00  0.00    +0.000 A 
ATOM     21  C   UNL     1      -3.934  12.588  23.744  0.00  0.00    +0.000 C 
ENDBRANCH  12  15
ENDBRANCH   9  11
ENDBRANCH   5   7
BRANCH   1  22
ATOM     22  S   UNL     1       2.790   5.521  19.571  0.00  0.00    +0.000 S 
ATOM     23  O   UNL     1       2.471   4.756  18.385  0.00  0.00    +0.000 OA
ATOM     24  O   UNL     1       2.398   5.060  20.886  0.00  0.00    +0.000 OA
BRANCH  22  25
ATOM     25  N   UNL     1       4.451   5.758  19.635  0.00  0.00    +0.000 N 
ATOM     26  H   UNL     1       4.769   6.362  20.389  0.00  0.00    +0.000 HD
BRANCH  25  30
ATOM     27  C   UNL     1       6.872   5.361  16.211  0.00  0.00    +0.000 A 
ATOM     28  C   UNL     1       5.811   6.266  16.226  0.00  0.00    +0.000 A 
ATOM     29  C   UNL     1       5.016   6.400  17.367  0.00  0.00    +0.000 A 
ATOM     30  C   UNL     1       5.264   5.606  18.485  0.00  0.00    +0.000 A 
ATOM     31  C   UNL     1       6.318   4.696  18.477  0.00  0.00    +0.000 A 
ATOM     32  C   UNL     1       7.127   4.577  17.338  0.00  0.00    +0.000 A 
BRANCH  27  34
ATOM     33  C   UNL     1       6.898   4.707  13.938  0.00  0.00    +0.000 C 
ATOM     34  O   UNL     1       7.575   5.307  15.038  0.00  0.00    +0.000 OA
ENDBRANCH  27  34
ENDBRANCH  25  30
ENDBRANCH  22  25
ENDBRANCH   1  22
TORSDOF 7
ENDMDL
MODEL 8
REMARK VINA RESULT:      -7.7      5.010      8.718
REMARK  Name = 
REMARK  10 active torsions:
REMARK  status: ('A' for Active; 'I' for Inactive)
REMARK    1  A    between atoms: C_1  and  O_2
REMARK    2  A    between atoms: O_2  and  C_3
REMARK    3  A    between atoms: C_6  and  N_7
REMARK    4  A    between atoms: N_7  and  S_8
REMARK    5  A    between atoms: S_8  and  C_11
REMARK    6  A    between atoms: C_15  and  C_16
REMARK    7  A    between atoms: N_18  and  N_19
REMARK    8  A    between atoms: C_20  and  C_22
REMARK    9  A    between atoms: C_24  and  C_25
REMARK   10  A    between atoms: C_27  and  C_28
REMARK                            x       y       z     vdW  Elec       q    Type
REMARK                         _______ _______ _______ _____ _____    ______ ____
ROOT
ATOM      1  C   UNL     1      -0.133  10.933  20.640  0.00  0.00    +0.000 A 
ATOM      2  C   UNL     1      -0.407  10.075  21.710  0.00  0.00    +0.000 A 
ATOM      3  C   UNL     1       0.107   8.774  21.695  0.00  0.00    +0.000 A 
ATOM      4  C   UNL     1       0.907   8.349  20.625  0.00  0.00    +0.000 A 
ATOM      5  C   UNL     1       1.209   9.223  19.567  0.00  0.00    +0.000 A 
ATOM      6  C   UNL     1       0.684  10.515  19.578  0.00  0.00    +0.000 A 
ENDROOT
BRANCH   5   7
ATOM      7  C   UNL     1       2.064   8.735  18.449  0.00  0.00    +0.000 C 
ATOM      8  O   UNL     1       2.123   9.350  17.388  0.00  0.00    +0.000 OA
ATOM      9  N   UNL     1       2.743   7.549  18.665  0.00  0.00    +0.000 N 
ATOM     10  H   UNL     1       2.656   6.968  19.499  0.00  0.00    +0.000 HD
BRANCH   9  11
ATOM     11  N   UNL     1       3.535   7.015  17.632  0.00  0.00    +0.000 N 
ATOM     12  C   UNL     1       4.501   6.079  17.959  0.00  0.00    +0.000 C 
ATOM     13  O   UNL     1       4.638   5.684  19.119  0.00  0.00    +0.000 OA
ATOM     14  H   UNL     1       3.339   7.337  16.688  0.00  0.00    +0.000 HD
BRANCH  12  15
ATOM     15  C   UNL     1       5.342   5.612  16.863  0.00  0.00    +0.000 A 
ATOM     16  C   UNL     1       5.068   4.692  15.802  0.00  0.00    +0.000 A 
ATOM     17  C   UNL     1       6.191   4.652  15.002  0.00  0.00    +0.000 A 
ATOM     18  C   UNL     1       6.536   3.959  13.744  0.00  0.00    +0.000 C 
ATOM     19  O   UNL     1       7.156   5.456  15.517  0.00  0.00    +0.000 OA
ATOM     20  C   UNL     1       6.645   6.037  16.636  0.00  0.00    +0.000 A 
ATOM     21  C   UNL     1       7.550   6.979  17.332  0.00  0.00    +0.000 C 
ENDBRANCH  12  15
ENDBRANCH   9  11
ENDBRANCH   5   7
BRANCH   1  22
ATOM     22  S   UNL     1      -0.700  12.626  20.642  0.00  0.00    +0.000 S 
ATOM     23  O   UNL     1       0.114  13.346  21.598  0.00  0.00    +0.000 OA
ATOM     24  O   UNL     1      -2.143  12.595  20.763  0.00  0.00    +0.000 OA
BRANCH  22  25
ATOM     25  N   UNL     1      -0.374  13.207  19.102  0.00  0.00    +0.000 N 
ATOM     26  H   UNL     1      -0.625  12.577  18.344  0.00  0.00    +0.000 HD
BRANCH  25  30
ATOM     27  C   UNL     1       2.598  16.106  18.389  0.00  0.00    +0.000 A 
ATOM     28  C   UNL     1       2.871  14.752  18.200  0.00  0.00    +0.000 A 
ATOM     29  C   UNL     1       1.880  13.794  18.430  0.00  0.00    +0.000 A 
ATOM     30  C   UNL     1       0.621  14.190  18.878  0.00  0.00    +0.000 A 
ATOM     31  C   UNL     1       0.340  15.540  19.074  0.00  0.00    +0.000 A 
ATOM     32  C   UNL     1       1.331  16.500  18.825  0.00  0.00    +0.000 A 
BRANCH  27  34
ATOM     33  C   UNL     1       4.679  16.957  19.125  0.00  0.00    +0.000 C 
ATOM     34  O   UNL     1       3.646  16.952  18.145  0.00  0.00    +0.000 OA
ENDBRANCH  27  34
ENDBRANCH  25  30
ENDBRANCH  22  25
ENDBRANCH   1  22
TORSDOF 7
ENDMDL
MODEL 9
REMARK VINA RESULT:      -7.7      4.724      8.086
REMARK  Name = 
REMARK  10 active torsions:
REMARK  status: ('A' for Active; 'I' for Inactive)
REMARK    1  A    between atoms: C_1  and  O_2
REMARK    2  A    between atoms: O_2  and  C_3
REMARK    3  A    between atoms: C_6  and  N_7
REMARK    4  A    between atoms: N_7  and  S_8
REMARK    5  A    between atoms: S_8  and  C_11
REMARK    6  A    between atoms: C_15  and  C_16
REMARK    7  A    between atoms: N_18  and  N_19
REMARK    8  A    between atoms: C_20  and  C_22
REMARK    9  A    between atoms: C_24  and  C_25
REMARK   10  A    between atoms: C_27  and  C_28
REMARK                            x       y       z     vdW  Elec       q    Type
REMARK                         _______ _______ _______ _____ _____    ______ ____
ROOT
ATOM      1  C   UNL     1       5.540   5.063  17.559  0.00  0.00    +0.000 A 
ATOM      2  C   UNL     1       5.006   3.775  17.441  0.00  0.00    +0.000 A 
ATOM      3  C   UNL     1       3.678   3.547  17.816  0.00  0.00    +0.000 A 
ATOM      4  C   UNL     1       2.889   4.608  18.282  0.00  0.00    +0.000 A 
ATOM      5  C   UNL     1       3.416   5.907  18.368  0.00  0.00    +0.000 A 
ATOM      6  C   UNL     1       4.745   6.129  18.007  0.00  0.00    +0.000 A 
ENDROOT
BRANCH   5   7
ATOM      7  C   UNL     1       2.546   7.009  18.866  0.00  0.00    +0.000 C 
ATOM      8  O   UNL     1       2.279   7.108  20.061  0.00  0.00    +0.000 OA
ATOM      9  N   UNL     1       2.036   7.870  17.912  0.00  0.00    +0.000 N 
ATOM     10  H   UNL     1       2.167   7.773  16.905  0.00  0.00    +0.000 HD
BRANCH   9  11
ATOM     11  N   UNL     1       1.173   8.907  18.315  0.00  0.00    +0.000 N 
ATOM     12  C   UNL     1       1.588  10.215  18.138  0.00  0.00    +0.000 C 
ATOM     13  O   UNL     1       2.665  10.475  17.598  0.00  0.00    +0.000 OA
ATOM     14  H   UNL     1       0.274   8.632  18.701  0.00  0.00    +0.000 HD
BRANCH  12  15
ATOM     15  C   UNL     1       0.688  11.249  18.639  0.00  0.00    +0.000 A 
ATOM     16  C   UNL     1       0.964  12.473  19.327  0.00  0.00    +0.000 A 
ATOM     17  C   UNL     1      -0.244  13.109  19.517  0.00  0.00    +0.000 A 
ATOM     18  C   UNL     1      -0.646  14.405  20.102  0.00  0.00    +0.000 C 
ATOM     19  O   UNL     1      -1.254  12.345  19.028  0.00  0.00    +0.000 OA
ATOM     20  C   UNL     1      -0.693  11.225  18.495  0.00  0.00    +0.000 A 
ATOM     21  C   UNL     1      -1.643  10.269  17.883  0.00  0.00    +0.000 C 
ENDBRANCH  12  15
ENDBRANCH   9  11
ENDBRANCH   5   7
BRANCH   1  22
ATOM     22  S   UNL     1       7.204   5.427  17.026  0.00  0.00    +0.000 S 
ATOM     23  O   UNL     1       7.938   4.180  17.045  0.00  0.00    +0.000 OA
ATOM     24  O   UNL     1       7.658   6.572  17.788  0.00  0.00    +0.000 OA
BRANCH  22  25
ATOM     25  N   UNL     1       7.059   5.950  15.438  0.00  0.00    +0.000 N 
ATOM     26  H   UNL     1       6.848   6.939  15.330  0.00  0.00    +0.000 HD
BRANCH  25  30
ATOM     27  C   UNL     1       5.998   3.315  12.329  0.00  0.00    +0.000 A 
ATOM     28  C   UNL     1       5.121   3.549  13.387  0.00  0.00    +0.000 A 
ATOM     29  C   UNL     1       5.474   4.430  14.413  0.00  0.00    +0.000 A 
ATOM     30  C   UNL     1       6.719   5.056  14.394  0.00  0.00    +0.000 A 
ATOM     31  C   UNL     1       7.603   4.825  13.343  0.00  0.00    +0.000 A 
ATOM     32  C   UNL     1       7.239   3.954  12.306  0.00  0.00    +0.000 A 
BRANCH  27  34
ATOM     33  C   UNL     1       6.430   1.344  11.094  0.00  0.00    +0.000 C 
ATOM     34  O   UNL     1       5.552   2.425  11.389  0.00  0.00    +0.000 OA
ENDBRANCH  27  34
ENDBRANCH  25  30
ENDBRANCH  22  25
ENDBRANCH   1  22
TORSDOF 7
ENDMDL
