MODEL 1
REMARK VINA RESULT:      -7.3      0.000      0.000
REMARK  Name = 
REMARK  4 active torsions:
REMARK  status: ('A' for Active; 'I' for Inactive)
REMARK    1  A    between atoms: N_1  and  C_2
REMARK    2  A    between atoms: N_10  and  C_11
REMARK    3  A    between atoms: C_14  and  C_15
REMARK    4  A    between atoms: C_15  and  O_16
REMARK                            x       y       z     vdW  Elec       q    Type
REMARK                         _______ _______ _______ _____ _____    ______ ____
ROOT
ATOM      1  C   UNL     1       6.966   4.738  17.406  0.00  0.00    +0.000 A 
ATOM      2  N   UNL     1       6.837   5.529  16.317  0.00  0.00    +0.000 NA
ATOM      3  C   UNL     1       5.617   6.039  16.039  0.00  0.00    +0.000 A 
ATOM      4  N   UNL     1       4.453   5.864  16.709  0.00  0.00    +0.000 NA
ATOM      5  C   UNL     1       4.633   5.051  17.763  0.00  0.00    +0.000 A 
ATOM      6  C   UNL     1       5.820   4.457  18.167  0.00  0.00    +0.000 A 
ATOM      7  N   UNL     1       5.634   3.680  19.288  0.00  0.00    +0.000 NA
ATOM      8  C   UNL     1       4.356   3.819  19.574  0.00  0.00    +0.000 A 
ATOM      9  N   UNL     1       3.703   4.621  18.674  0.00  0.00    +0.000 N 
ENDROOT
BRANCH   9  10
ATOM     10  C   UNL     1       2.302   5.008  18.729  0.00  0.00    +0.000 C 
ATOM     11  C   UNL     1       1.369   4.194  17.844  0.00  0.00    +0.000 C 
ATOM     12  C   UNL     1       1.003   3.029  18.730  0.00  0.00    +0.000 C 
ATOM     13  C   UNL     1       0.936   3.669  20.105  0.00  0.00    +0.000 C 
ATOM     14  O   UNL     1       1.826   4.808  20.082  0.00  0.00    +0.000 OA
BRANCH  13  15
ATOM     15  C   UNL     1       1.346   2.701  21.218  0.00  0.00    +0.000 C 
BRANCH  15  16
ATOM     16  O   UNL     1       2.146   3.363  22.193  0.00  0.00    +0.000 OA
ATOM     17  H   UNL     1       3.012   3.525  21.776  0.00  0.00    +0.000 HD
ENDBRANCH  15  16
ENDBRANCH  13  15
ENDBRANCH   9  10
BRANCH   1  18
ATOM     18  N   UNL     1       8.219   4.254  17.732  0.00  0.00    +0.000 N 
ATOM     19  H   UNL     1       8.309   3.252  17.797  0.00  0.00    +0.000 HD
ATOM     20  H   UNL     1       8.806   4.861  18.291  0.00  0.00    +0.000 HD
ENDBRANCH   1  18
TORSDOF 4
ENDMDL
MODEL 2
REMARK VINA RESULT:      -7.2      1.712      2.200
REMARK  Name = 
REMARK  4 active torsions:
REMARK  status: ('A' for Active; 'I' for Inactive)
REMARK    1  A    between atoms: N_1  and  C_2
REMARK    2  A    between atoms: N_10  and  C_11
REMARK    3  A    between atoms: C_14  and  C_15
REMARK    4  A    between atoms: C_15  and  O_16
REMARK                            x       y       z     vdW  Elec       q    Type
REMARK                         _______ _______ _______ _____ _____    ______ ____
ROOT
ATOM      1  C   UNL     1       6.584   6.309  16.720  0.00  0.00    +0.000 A 
ATOM      2  N   UNL     1       7.283   5.541  15.853  0.00  0.00    +0.000 NA
ATOM      3  C   UNL     1       6.738   4.371  15.455  0.00  0.00    +0.000 A 
ATOM      4  N   UNL     1       5.553   3.823  15.813  0.00  0.00    +0.000 NA
ATOM      5  C   UNL     1       4.914   4.613  16.692  0.00  0.00    +0.000 A 
ATOM      6  C   UNL     1       5.349   5.832  17.189  0.00  0.00    +0.000 A 
ATOM      7  N   UNL     1       4.441   6.363  18.077  0.00  0.00    +0.000 NA
ATOM      8  C   UNL     1       3.458   5.487  18.102  0.00  0.00    +0.000 A 
ATOM      9  N   UNL     1       3.702   4.404  17.298  0.00  0.00    +0.000 N 
ENDROOT
BRANCH   9  10
ATOM     10  C   UNL     1       2.801   3.286  17.071  0.00  0.00    +0.000 C 
ATOM     11  C   UNL     1       3.215   1.976  17.726  0.00  0.00    +0.000 C 
ATOM     12  C   UNL     1       2.607   2.086  19.102  0.00  0.00    +0.000 C 
ATOM     13  C   UNL     1       1.304   2.818  18.829  0.00  0.00    +0.000 C 
ATOM     14  O   UNL     1       1.511   3.615  17.641  0.00  0.00    +0.000 OA
BRANCH  13  15
ATOM     15  C   UNL     1       0.883   3.712  19.998  0.00  0.00    +0.000 C 
BRANCH  15  16
ATOM     16  O   UNL     1       0.802   2.959  21.205  0.00  0.00    +0.000 OA
ATOM     17  H   UNL     1       1.698   2.954  21.588  0.00  0.00    +0.000 HD
ENDBRANCH  15  16
ENDBRANCH  13  15
ENDBRANCH   9  10
BRANCH   1  18
ATOM     18  N   UNL     1       7.105   7.534  17.094  0.00  0.00    +0.000 N 
ATOM     19  H   UNL     1       7.992   7.786  16.686  0.00  0.00    +0.000 HD
ATOM     20  H   UNL     1       6.844   7.874  18.011  0.00  0.00    +0.000 HD
ENDBRANCH   1  18
TORSDOF 4
ENDMDL
MODEL 3
REMARK VINA RESULT:      -7.0      1.438      1.655
REMARK  Name = 
REMARK  4 active torsions:
REMARK  status: ('A' for Active; 'I' for Inactive)
REMARK    1  A    between atoms: N_1  and  C_2
REMARK    2  A    between atoms: N_10  and  C_11
REMARK    3  A    between atoms: C_14  and  C_15
REMARK    4  A    between atoms: C_15  and  O_16
REMARK                            x       y       z     vdW  Elec       q    Type
REMARK                         _______ _______ _______ _____ _____    ______ ____
ROOT
ATOM      1  C   UNL     1       7.296   5.381  18.282  0.00  0.00    +0.000 A 
ATOM      2  N   UNL     1       7.798   4.969  17.097  0.00  0.00    +0.000 NA
ATOM      3  C   UNL     1       6.972   4.325  16.243  0.00  0.00    +0.000 A 
ATOM      4  N   UNL     1       5.665   4.010  16.404  0.00  0.00    +0.000 NA
ATOM      5  C   UNL     1       5.226   4.419  17.607  0.00  0.00    +0.000 A 
ATOM      6  C   UNL     1       5.955   5.086  18.580  0.00  0.00    +0.000 A 
ATOM      7  N   UNL     1       5.186   5.345  19.691  0.00  0.00    +0.000 NA
ATOM      8  C   UNL     1       3.999   4.861  19.388  0.00  0.00    +0.000 A 
ATOM      9  N   UNL     1       3.975   4.276  18.148  0.00  0.00    +0.000 N 
ENDROOT
BRANCH   9  10
ATOM     10  C   UNL     1       2.813   3.689  17.501  0.00  0.00    +0.000 C 
ATOM     11  C   UNL     1       2.682   2.179  17.648  0.00  0.00    +0.000 C 
ATOM     12  C   UNL     1       1.933   2.036  18.950  0.00  0.00    +0.000 C 
ATOM     13  C   UNL     1       0.989   3.226  18.920  0.00  0.00    +0.000 C 
ATOM     14  O   UNL     1       1.621   4.243  18.110  0.00  0.00    +0.000 OA
BRANCH  13  15
ATOM     15  C   UNL     1       0.697   3.771  20.320  0.00  0.00    +0.000 C 
BRANCH  15  16
ATOM     16  O   UNL     1       0.929   2.773  21.309  0.00  0.00    +0.000 OA
ATOM     17  H   UNL     1       0.738   3.187  22.170  0.00  0.00    +0.000 HD
ENDBRANCH  15  16
ENDBRANCH  13  15
ENDBRANCH   9  10
BRANCH   1  18
ATOM     18  N   UNL     1       8.116   6.088  19.143  0.00  0.00    +0.000 N 
ATOM     19  H   UNL     1       8.934   6.511  18.735  0.00  0.00    +0.000 HD
ATOM     20  H   UNL     1       8.117   5.791  20.111  0.00  0.00    +0.000 HD
ENDBRANCH   1  18
TORSDOF 4
ENDMDL
MODEL 4
REMARK VINA RESULT:      -6.8      1.614      2.573
REMARK  Name = 
REMARK  4 active torsions:
REMARK  status: ('A' for Active; 'I' for Inactive)
REMARK    1  A    between atoms: N_1  and  C_2
REMARK    2  A    between atoms: N_10  and  C_11
REMARK    3  A    between atoms: C_14  and  C_15
REMARK    4  A    between atoms: C_15  and  O_16
REMARK                            x       y       z     vdW  Elec       q    Type
REMARK                         _______ _______ _______ _____ _____    ______ ____
ROOT
ATOM      1  C   UNL     1       6.977   5.313  16.782  0.00  0.00    +0.000 A 
ATOM      2  N   UNL     1       7.739   5.947  17.702  0.00  0.00    +0.000 NA
ATOM      3  C   UNL     1       7.406   5.817  19.005  0.00  0.00    +0.000 A 
ATOM      4  N   UNL     1       6.378   5.126  19.552  0.00  0.00    +0.000 NA
ATOM      5  C   UNL     1       5.641   4.539  18.594  0.00  0.00    +0.000 A 
ATOM      6  C   UNL     1       5.860   4.586  17.225  0.00  0.00    +0.000 A 
ATOM      7  N   UNL     1       4.902   3.873  16.541  0.00  0.00    +0.000 NA
ATOM      8  C   UNL     1       4.125   3.381  17.483  0.00  0.00    +0.000 A 
ATOM      9  N   UNL     1       4.516   3.768  18.739  0.00  0.00    +0.000 N 
ENDROOT
BRANCH   9  10
ATOM     10  C   UNL     1       3.898   3.365  19.992  0.00  0.00    +0.000 C 
ATOM     11  C   UNL     1       3.074   4.441  20.684  0.00  0.00    +0.000 C 
ATOM     12  C   UNL     1       1.714   4.278  20.050  0.00  0.00    +0.000 C 
ATOM     13  C   UNL     1       1.621   2.774  19.853  0.00  0.00    +0.000 C 
ATOM     14  O   UNL     1       2.974   2.284  19.718  0.00  0.00    +0.000 OA
BRANCH  13  15
ATOM     15  C   UNL     1       0.798   2.400  18.619  0.00  0.00    +0.000 C 
BRANCH  15  16
ATOM     16  O   UNL     1       0.813   3.456  17.663  0.00  0.00    +0.000 OA
ATOM     17  H   UNL     1       1.532   3.254  17.038  0.00  0.00    +0.000 HD
ENDBRANCH  15  16
ENDBRANCH  13  15
ENDBRANCH   9  10
BRANCH   1  18
ATOM     18  N   UNL     1       7.338   5.392  15.450  0.00  0.00    +0.000 N 
ATOM     19  H   UNL     1       6.606   5.228  14.777  0.00  0.00    +0.000 HD
ATOM     20  H   UNL     1       8.300   5.169  15.229  0.00  0.00    +0.000 HD
ENDBRANCH   1  18
TORSDOF 4
ENDMDL
MODEL 5
REMARK VINA RESULT:      -6.7      2.516      5.250
REMARK  Name = 
REMARK  4 active torsions:
REMARK  status: ('A' for Active; 'I' for Inactive)
REMARK    1  A    between atoms: N_1  and  C_2
REMARK    2  A    between atoms: N_10  and  C_11
REMARK    3  A    between atoms: C_14  and  C_15
REMARK    4  A    between atoms: C_15  and  O_16
REMARK                            x       y       z     vdW  Elec       q    Type
REMARK                         _______ _______ _______ _____ _____    ______ ____
ROOT
ATOM      1  C   UNL     1       1.691   3.283  19.533  0.00  0.00    +0.000 A 
ATOM      2  N   UNL     1       1.993   1.986  19.297  0.00  0.00    +0.000 NA
ATOM      3  C   UNL     1       2.993   1.711  18.431  0.00  0.00    +0.000 A 
ATOM      4  N   UNL     1       3.766   2.572  17.729  0.00  0.00    +0.000 NA
ATOM      5  C   UNL     1       3.408   3.842  17.981  0.00  0.00    +0.000 A 
ATOM      6  C   UNL     1       2.407   4.273  18.839  0.00  0.00    +0.000 A 
ATOM      7  N   UNL     1       2.312   5.646  18.848  0.00  0.00    +0.000 NA
ATOM      8  C   UNL     1       3.258   6.044  18.022  0.00  0.00    +0.000 A 
ATOM      9  N   UNL     1       3.936   4.994  17.459  0.00  0.00    +0.000 N 
ENDROOT
BRANCH   9  10
ATOM     10  C   UNL     1       5.061   5.094  16.543  0.00  0.00    +0.000 C 
ATOM     11  C   UNL     1       5.391   6.503  16.072  0.00  0.00    +0.000 C 
ATOM     12  C   UNL     1       6.322   7.005  17.148  0.00  0.00    +0.000 C 
ATOM     13  C   UNL     1       7.103   5.755  17.516  0.00  0.00    +0.000 C 
ATOM     14  O   UNL     1       6.249   4.625  17.226  0.00  0.00    +0.000 OA
BRANCH  13  15
ATOM     15  C   UNL     1       7.516   5.740  18.990  0.00  0.00    +0.000 C 
BRANCH  15  16
ATOM     16  O   UNL     1       6.506   5.132  19.790  0.00  0.00    +0.000 OA
ATOM     17  H   UNL     1       6.700   4.177  19.800  0.00  0.00    +0.000 HD
ENDBRANCH  15  16
ENDBRANCH  13  15
ENDBRANCH   9  10
BRANCH   1  18
ATOM     18  N   UNL     1       0.707   3.580  20.458  0.00  0.00    +0.000 N 
ATOM     19  H   UNL     1       0.690   4.526  20.805  0.00  0.00    +0.000 HD
ATOM     20  H   UNL     1       0.383   2.814  21.034  0.00  0.00    +0.000 HD
ENDBRANCH   1  18
TORSDOF 4
ENDMDL
MODEL 6
REMARK VINA RESULT:      -6.7      1.605      2.445
REMARK  Name = 
REMARK  4 active torsions:
REMARK  status: ('A' for Active; 'I' for Inactive)
REMARK    1  A    between atoms: N_1  and  C_2
REMARK    2  A    between atoms: N_10  and  C_11
REMARK    3  A    between atoms: C_14  and  C_15
REMARK    4  A    between atoms: C_15  and  O_16
REMARK                            x       y       z     vdW  Elec       q    Type
REMARK                         _______ _______ _______ _____ _____    ______ ____
ROOT
ATOM      1  C   UNL     1       6.893   5.580  16.875  0.00  0.00    +0.000 A 
ATOM      2  N   UNL     1       7.886   5.775  17.771  0.00  0.00    +0.000 NA
ATOM      3  C   UNL     1       7.602   5.622  19.083  0.00  0.00    +0.000 A 
ATOM      4  N   UNL     1       6.422   5.297  19.662  0.00  0.00    +0.000 NA
ATOM      5  C   UNL     1       5.467   5.141  18.730  0.00  0.00    +0.000 A 
ATOM      6  C   UNL     1       5.611   5.267  17.356  0.00  0.00    +0.000 A 
ATOM      7  N   UNL     1       4.419   5.043  16.706  0.00  0.00    +0.000 NA
ATOM      8  C   UNL     1       3.567   4.762  17.671  0.00  0.00    +0.000 A 
ATOM      9  N   UNL     1       4.144   4.826  18.913  0.00  0.00    +0.000 N 
ENDROOT
BRANCH   9  10
ATOM     10  C   UNL     1       3.491   4.531  20.177  0.00  0.00    +0.000 C 
ATOM     11  C   UNL     1       2.150   5.221  20.391  0.00  0.00    +0.000 C 
ATOM     12  C   UNL     1       1.178   4.260  19.752  0.00  0.00    +0.000 C 
ATOM     13  C   UNL     1       1.786   2.907  20.081  0.00  0.00    +0.000 C 
ATOM     14  O   UNL     1       3.210   3.111  20.227  0.00  0.00    +0.000 OA
BRANCH  13  15
ATOM     15  C   UNL     1       1.510   1.866  18.995  0.00  0.00    +0.000 C 
BRANCH  15  16
ATOM     16  O   UNL     1       2.728   1.404  18.418  0.00  0.00    +0.000 OA
ATOM     17  H   UNL     1       3.447   1.750  18.977  0.00  0.00    +0.000 HD
ENDBRANCH  15  16
ENDBRANCH  13  15
ENDBRANCH   9  10
BRANCH   1  18
ATOM     18  N   UNL     1       7.182   5.680  15.527  0.00  0.00    +0.000 N 
ATOM     19  H   UNL     1       7.372   4.816  15.045  0.00  0.00    +0.000 HD
ATOM     20  H   UNL     1       7.609   6.546  15.220  0.00  0.00    +0.000 HD
ENDBRANCH   1  18
TORSDOF 4
ENDMDL
MODEL 7
REMARK VINA RESULT:      -6.6      2.967      5.815
REMARK  Name = 
REMARK  4 active torsions:
REMARK  status: ('A' for Active; 'I' for Inactive)
REMARK    1  A    between atoms: N_1  and  C_2
REMARK    2  A    between atoms: N_10  and  C_11
REMARK    3  A    between atoms: C_14  and  C_15
REMARK    4  A    between atoms: C_15  and  O_16
REMARK                            x       y       z     vdW  Elec       q    Type
REMARK                         _______ _______ _______ _____ _____    ______ ____
ROOT
ATOM      1  C   UNL     1       1.408   2.966  19.188  0.00  0.00    +0.000 A 
ATOM      2  N   UNL     1       1.159   3.518  20.397  0.00  0.00    +0.000 NA
ATOM      3  C   UNL     1       1.957   4.524  20.816  0.00  0.00    +0.000 A 
ATOM      4  N   UNL     1       3.018   5.082  20.187  0.00  0.00    +0.000 NA
ATOM      5  C   UNL     1       3.236   4.480  19.006  0.00  0.00    +0.000 A 
ATOM      6  C   UNL     1       2.505   3.441  18.450  0.00  0.00    +0.000 A 
ATOM      7  N   UNL     1       3.015   3.068  17.228  0.00  0.00    +0.000 NA
ATOM      8  C   UNL     1       4.030   3.886  17.034  0.00  0.00    +0.000 A 
ATOM      9  N   UNL     1       4.217   4.745  18.085  0.00  0.00    +0.000 N 
ENDROOT
BRANCH   9  10
ATOM     10  C   UNL     1       5.219   5.795  18.165  0.00  0.00    +0.000 C 
ATOM     11  C   UNL     1       6.483   5.428  18.930  0.00  0.00    +0.000 C 
ATOM     12  C   UNL     1       7.344   4.795  17.865  0.00  0.00    +0.000 C 
ATOM     13  C   UNL     1       7.000   5.614  16.633  0.00  0.00    +0.000 C 
ATOM     14  O   UNL     1       5.656   6.114  16.822  0.00  0.00    +0.000 OA
BRANCH  13  15
ATOM     15  C   UNL     1       7.081   4.791  15.346  0.00  0.00    +0.000 C 
BRANCH  15  16
ATOM     16  O   UNL     1       7.813   5.491  14.344  0.00  0.00    +0.000 OA
ATOM     17  H   UNL     1       7.261   5.481  13.540  0.00  0.00    +0.000 HD
ENDBRANCH  15  16
ENDBRANCH  13  15
ENDBRANCH   9  10
BRANCH   1  18
ATOM     18  N   UNL     1       0.567   1.972  18.723  0.00  0.00    +0.000 N 
ATOM     19  H   UNL     1       0.171   2.114  17.807  0.00  0.00    +0.000 HD
ATOM     20  H   UNL     1       0.066   1.440  19.424  0.00  0.00    +0.000 HD
ENDBRANCH   1  18
TORSDOF 4
ENDMDL
MODEL 8
REMARK VINA RESULT:      -6.6      1.292      1.420
REMARK  Name = 
REMARK  4 active torsions:
REMARK  status: ('A' for Active; 'I' for Inactive)
REMARK    1  A    between atoms: N_1  and  C_2
REMARK    2  A    between atoms: N_10  and  C_11
REMARK    3  A    between atoms: C_14  and  C_15
REMARK    4  A    between atoms: C_15  and  O_16
REMARK                            x       y       z     vdW  Elec       q    Type
REMARK                         _______ _______ _______ _____ _____    ______ ____
ROOT
ATOM      1  C   UNL     1       6.976   6.124  18.162  0.00  0.00    +0.000 A 
ATOM      2  N   UNL     1       6.831   6.893  17.059  0.00  0.00    +0.000 NA
ATOM      3  C   UNL     1       5.744   6.696  16.283  0.00  0.00    +0.000 A 
ATOM      4  N   UNL     1       4.738   5.803  16.443  0.00  0.00    +0.000 NA
ATOM      5  C   UNL     1       4.946   5.050  17.536  0.00  0.00    +0.000 A 
ATOM      6  C   UNL     1       6.011   5.137  18.421  0.00  0.00    +0.000 A 
ATOM      7  N   UNL     1       5.903   4.204  19.426  0.00  0.00    +0.000 NA
ATOM      8  C   UNL     1       4.776   3.573  19.168  0.00  0.00    +0.000 A 
ATOM      9  N   UNL     1       4.169   4.033  18.028  0.00  0.00    +0.000 N 
ENDROOT
BRANCH   9  10
ATOM     10  C   UNL     1       2.896   3.579  17.493  0.00  0.00    +0.000 C 
ATOM     11  C   UNL     1       2.574   2.112  17.741  0.00  0.00    +0.000 C 
ATOM     12  C   UNL     1       1.906   2.143  19.094  0.00  0.00    +0.000 C 
ATOM     13  C   UNL     1       1.131   3.449  19.050  0.00  0.00    +0.000 C 
ATOM     14  O   UNL     1       1.836   4.324  18.140  0.00  0.00    +0.000 OA
BRANCH  13  15
ATOM     15  C   UNL     1       1.015   4.103  20.428  0.00  0.00    +0.000 C 
BRANCH  15  16
ATOM     16  O   UNL     1       1.614   3.284  21.427  0.00  0.00    +0.000 OA
ATOM     17  H   UNL     1       1.155   3.487  22.263  0.00  0.00    +0.000 HD
ENDBRANCH  15  16
ENDBRANCH  13  15
ENDBRANCH   9  10
BRANCH   1  18
ATOM     18  N   UNL     1       8.056   6.351  18.995  0.00  0.00    +0.000 N 
ATOM     19  H   UNL     1       8.034   5.892  19.891  0.00  0.00    +0.000 HD
ATOM     20  H   UNL     1       8.536   7.235  18.880  0.00  0.00    +0.000 HD
ENDBRANCH   1  18
TORSDOF 4
ENDMDL
MODEL 9
REMARK VINA RESULT:      -6.5      1.701      2.421
REMARK  Name = 
REMARK  4 active torsions:
REMARK  status: ('A' for Active; 'I' for Inactive)
REMARK    1  A    between atoms: N_1  and  C_2
REMARK    2  A    between atoms: N_10  and  C_11
REMARK    3  A    between atoms: C_14  and  C_15
REMARK    4  A    between atoms: C_15  and  O_16
REMARK                            x       y       z     vdW  Elec       q    Type
REMARK                         _______ _______ _______ _____ _____    ______ ____
ROOT
ATOM      1  C   UNL     1       6.727   5.399  15.839  0.00  0.00    +0.000 A 
ATOM      2  N   UNL     1       7.525   6.260  16.510  0.00  0.00    +0.000 NA
ATOM      3  C   UNL     1       7.295   6.447  17.828  0.00  0.00    +0.000 A 
ATOM      4  N   UNL     1       6.343   5.887  18.611  0.00  0.00    +0.000 NA
ATOM      5  C   UNL     1       5.565   5.063  17.889  0.00  0.00    +0.000 A 
ATOM      6  C   UNL     1       5.680   4.776  16.538  0.00  0.00    +0.000 A 
ATOM      7  N   UNL     1       4.707   3.891  16.130  0.00  0.00    +0.000 NA
ATOM      8  C   UNL     1       4.024   3.628  17.225  0.00  0.00    +0.000 A 
ATOM      9  N   UNL     1       4.490   4.324  18.311  0.00  0.00    +0.000 N 
ENDROOT
BRANCH   9  10
ATOM     10  C   UNL     1       3.985   4.227  19.671  0.00  0.00    +0.000 C 
ATOM     11  C   UNL     1       3.092   5.377  20.115  0.00  0.00    +0.000 C 
ATOM     12  C   UNL     1       1.725   4.931  19.658  0.00  0.00    +0.000 C 
ATOM     13  C   UNL     1       1.777   3.429  19.877  0.00  0.00    +0.000 C 
ATOM     14  O   UNL     1       3.165   3.037  19.770  0.00  0.00    +0.000 OA
BRANCH  13  15
ATOM     15  C   UNL     1       0.932   2.663  18.857  0.00  0.00    +0.000 C 
BRANCH  15  16
ATOM     16  O   UNL     1       1.611   1.489  18.419  0.00  0.00    +0.000 OA
ATOM     17  H   UNL     1       1.991   1.698  17.546  0.00  0.00    +0.000 HD
ENDBRANCH  15  16
ENDBRANCH  13  15
ENDBRANCH   9  10
BRANCH   1  18
ATOM     18  N   UNL     1       6.984   5.156  14.503  0.00  0.00    +0.000 N 
ATOM     19  H   UNL     1       7.425   5.903  13.989  0.00  0.00    +0.000 HD
ATOM     20  H   UNL     1       6.367   4.504  14.036  0.00  0.00    +0.000 HD
ENDBRANCH   1  18
TORSDOF 4
ENDMDL
