MODEL 1
REMARK VINA RESULT:      -9.1      0.000      0.000
REMARK  Name = 
REMARK  10 active torsions:
REMARK  status: ('A' for Active; 'I' for Inactive)
REMARK    1  A    between atoms: C_1  and  C_2
REMARK    2  A    between atoms: C_6  and  C_7
REMARK    3  A    between atoms: C_7  and  N_8
REMARK    4  A    between atoms: N_8  and  C_9
REMARK    5  A    between atoms: C_9  and  C_10
REMARK    6  A    between atoms: C_10  and  C_11
REMARK    7  A    between atoms: C_16  and  C_17
REMARK    8  A    between atoms: N_20  and  C_21
REMARK    9  A    between atoms: C_21  and  C_22
REMARK   10  A    between atoms: C_33  and  C_34
REMARK                            x       y       z     vdW  Elec       q    Type
REMARK                         _______ _______ _______ _____ _____    ______ ____
ROOT
ATOM      1  N   UNL     1       0.927   9.663  19.270  0.00  0.00    +0.000 N 
ATOM      2  C   UNL     1       1.750   8.724  18.635  0.00  0.00    +0.000 C 
ATOM      3  O   UNL     1       2.061   8.794  17.445  0.00  0.00    +0.000 OA
ATOM      4  N   UNL     1       2.158   7.677  19.415  0.00  0.00    +0.000 N 
ATOM      5  H   UNL     1       2.153   7.774  20.417  0.00  0.00    +0.000 HD
ENDROOT
BRANCH   1   6
ATOM      6  C   UNL     1       0.389   9.428  20.621  0.00  0.00    +0.000 C 
BRANCH   6  12
ATOM      7  C   UNL     1       0.038  16.846  22.475  0.00  0.00    +0.000 C 
ATOM      8  C   UNL     1      -0.456  15.425  22.537  0.00  0.00    +0.000 A 
ATOM      9  C   UNL     1       0.216  14.411  21.821  0.00  0.00    +0.000 A 
ATOM     10  C   UNL     1      -0.177  13.073  21.942  0.00  0.00    +0.000 A 
ATOM     11  C   UNL     1       0.352  11.987  21.104  0.00  0.00    +0.000 A 
ATOM     12  C   UNL     1       0.099  10.694  21.402  0.00  0.00    +0.000 A 
ATOM     13  C   UNL     1      -0.618  10.401  22.684  0.00  0.00    +0.000 A 
ATOM     14  O   UNL     1      -0.561   9.295  23.212  0.00  0.00    +0.000 OA
ATOM     15  N   UNL     1      -1.374  11.412  23.207  0.00  0.00    +0.000 N 
ATOM     16  C   UNL     1      -1.176  12.753  22.864  0.00  0.00    +0.000 A 
ATOM     17  C   UNL     1      -1.915  13.746  23.500  0.00  0.00    +0.000 A 
ATOM     18  C   UNL     1      -1.595  15.094  23.302  0.00  0.00    +0.000 A 
ATOM     19  C   UNL     1      -2.460  16.151  23.934  0.00  0.00    +0.000 C 
ATOM     20  H   UNL     1      -1.930  11.180  24.018  0.00  0.00    +0.000 HD
ENDBRANCH   6  12
ENDBRANCH   1   6
BRANCH   1  21
ATOM     21  C   UNL     1       0.176  10.522  18.328  0.00  0.00    +0.000 C 
BRANCH  21  22
ATOM     22  C   UNL     1      -1.058  10.000  17.552  0.00  0.00    +0.000 C 
BRANCH  22  23
ATOM     23  C   UNL     1      -2.400  10.687  17.698  0.00  0.00    +0.000 A 
ATOM     24  C   UNL     1      -2.706  11.427  18.850  0.00  0.00    +0.000 A 
ATOM     25  C   UNL     1      -3.954  12.027  19.013  0.00  0.00    +0.000 A 
ATOM     26  C   UNL     1      -4.908  11.936  18.007  0.00  0.00    +0.000 A 
ATOM     27  C   UNL     1      -4.609  11.256  16.830  0.00  0.00    +0.000 A 
ATOM     28  C   UNL     1      -3.364  10.626  16.659  0.00  0.00    +0.000 A 
ATOM     29  C   UNL     1      -3.116   9.889  15.367  0.00  0.00    +0.000 C 
ENDBRANCH  22  23
ENDBRANCH  21  22
ENDBRANCH   1  21
BRANCH   4  30
ATOM     30  C   UNL     1       2.971   6.592  18.916  0.00  0.00    +0.000 C 
BRANCH  30  31
ATOM     31  C   UNL     1       2.263   5.270  19.094  0.00  0.00    +0.000 A 
ATOM     32  C   UNL     1       1.726   4.893  20.337  0.00  0.00    +0.000 A 
ATOM     33  C   UNL     1       1.074   3.668  20.492  0.00  0.00    +0.000 A 
ATOM     34  C   UNL     1       0.930   2.816  19.401  0.00  0.00    +0.000 A 
ATOM     35  C   UNL     1       1.435   3.188  18.156  0.00  0.00    +0.000 A 
ATOM     36  C   UNL     1       2.095   4.409  18.002  0.00  0.00    +0.000 A 
ENDBRANCH  30  31
ENDBRANCH   4  30
TORSDOF 7
ENDMDL
MODEL 2
REMARK VINA RESULT:      -8.9      0.726      1.658
REMARK  Name = 
REMARK  10 active torsions:
REMARK  status: ('A' for Active; 'I' for Inactive)
REMARK    1  A    between atoms: C_1  and  C_2
REMARK    2  A    between atoms: C_6  and  C_7
REMARK    3  A    between atoms: C_7  and  N_8
REMARK    4  A    between atoms: N_8  and  C_9
REMARK    5  A    between atoms: C_9  and  C_10
REMARK    6  A    between atoms: C_10  and  C_11
REMARK    7  A    between atoms: C_16  and  C_17
REMARK    8  A    between atoms: N_20  and  C_21
REMARK    9  A    between atoms: C_21  and  C_22
REMARK   10  A    between atoms: C_33  and  C_34
REMARK                            x       y       z     vdW  Elec       q    Type
REMARK                         _______ _______ _______ _____ _____    ______ ____
ROOT
ATOM      1  N   UNL     1       1.036   9.814  19.505  0.00  0.00    +0.000 N 
ATOM      2  C   UNL     1       1.607   8.843  18.672  0.00  0.00    +0.000 C 
ATOM      3  O   UNL     1       1.480   8.846  17.446  0.00  0.00    +0.000 OA
ATOM      4  N   UNL     1       2.285   7.843  19.313  0.00  0.00    +0.000 N 
ATOM      5  H   UNL     1       2.627   7.996  20.247  0.00  0.00    +0.000 HD
ENDROOT
BRANCH   1   6
ATOM      6  C   UNL     1       1.009   9.653  20.969  0.00  0.00    +0.000 C 
BRANCH   6  12
ATOM      7  C   UNL     1      -1.301  16.708  22.835  0.00  0.00    +0.000 C 
ATOM      8  C   UNL     1      -1.467  15.212  22.790  0.00  0.00    +0.000 A 
ATOM      9  C   UNL     1      -0.475  14.408  22.189  0.00  0.00    +0.000 A 
ATOM     10  C   UNL     1      -0.573  13.012  22.221  0.00  0.00    +0.000 A 
ATOM     11  C   UNL     1       0.319  12.113  21.473  0.00  0.00    +0.000 A 
ATOM     12  C   UNL     1       0.315  10.782  21.704  0.00  0.00    +0.000 A 
ATOM     13  C   UNL     1      -0.522  10.273  22.837  0.00  0.00    +0.000 A 
ATOM     14  O   UNL     1      -0.309   9.180  23.351  0.00  0.00    +0.000 OA
ATOM     15  N   UNL     1      -1.562  11.066  23.233  0.00  0.00    +0.000 N 
ATOM     16  C   UNL     1      -1.615  12.434  22.948  0.00  0.00    +0.000 A 
ATOM     17  C   UNL     1      -2.654  13.206  23.458  0.00  0.00    +0.000 A 
ATOM     18  C   UNL     1      -2.615  14.601  23.339  0.00  0.00    +0.000 A 
ATOM     19  C   UNL     1      -3.789  15.409  23.823  0.00  0.00    +0.000 C 
ATOM     20  H   UNL     1      -2.180  10.676  23.930  0.00  0.00    +0.000 HD
ENDBRANCH   6  12
ENDBRANCH   1   6
BRANCH   1  21
ATOM     21  C   UNL     1      -0.016  10.615  18.843  0.00  0.00    +0.000 C 
BRANCH  21  22
ATOM     22  C   UNL     1      -1.504  10.187  18.860  0.00  0.00    +0.000 C 
BRANCH  22  23
ATOM     23  C   UNL     1      -2.374  10.398  17.638  0.00  0.00    +0.000 A 
ATOM     24  C   UNL     1      -2.085   9.747  16.430  0.00  0.00    +0.000 A 
ATOM     25  C   UNL     1      -2.855   9.968  15.288  0.00  0.00    +0.000 A 
ATOM     26  C   UNL     1      -3.957  10.811  15.343  0.00  0.00    +0.000 A 
ATOM     27  C   UNL     1      -4.300  11.424  16.544  0.00  0.00    +0.000 A 
ATOM     28  C   UNL     1      -3.521  11.231  17.699  0.00  0.00    +0.000 A 
ATOM     29  C   UNL     1      -3.938  11.944  18.961  0.00  0.00    +0.000 C 
ENDBRANCH  22  23
ENDBRANCH  21  22
ENDBRANCH   1  21
BRANCH   4  30
ATOM     30  C   UNL     1       2.897   6.734  18.617  0.00  0.00    +0.000 C 
BRANCH  30  31
ATOM     31  C   UNL     1       2.194   5.440  18.954  0.00  0.00    +0.000 A 
ATOM     32  C   UNL     1       1.916   4.483  17.962  0.00  0.00    +0.000 A 
ATOM     33  C   UNL     1       1.264   3.291  18.282  0.00  0.00    +0.000 A 
ATOM     34  C   UNL     1       0.904   3.029  19.601  0.00  0.00    +0.000 A 
ATOM     35  C   UNL     1       1.197   3.957  20.599  0.00  0.00    +0.000 A 
ATOM     36  C   UNL     1       1.841   5.154  20.279  0.00  0.00    +0.000 A 
ENDBRANCH  30  31
ENDBRANCH   4  30
TORSDOF 7
ENDMDL
MODEL 3
REMARK VINA RESULT:      -8.6      1.398      1.998
REMARK  Name = 
REMARK  10 active torsions:
REMARK  status: ('A' for Active; 'I' for Inactive)
REMARK    1  A    between atoms: C_1  and  C_2
REMARK    2  A    between atoms: C_6  and  C_7
REMARK    3  A    between atoms: C_7  and  N_8
REMARK    4  A    between atoms: N_8  and  C_9
REMARK    5  A    between atoms: C_9  and  C_10
REMARK    6  A    between atoms: C_10  and  C_11
REMARK    7  A    between atoms: C_16  and  C_17
REMARK    8  A    between atoms: N_20  and  C_21
REMARK    9  A    between atoms: C_21  and  C_22
REMARK   10  A    between atoms: C_33  and  C_34
REMARK                            x       y       z     vdW  Elec       q    Type
REMARK                         _______ _______ _______ _____ _____    ______ ____
ROOT
ATOM      1  N   UNL     1       0.848  10.086  19.128  0.00  0.00    +0.000 N 
ATOM      2  C   UNL     1       1.493   9.069  18.412  0.00  0.00    +0.000 C 
ATOM      3  O   UNL     1       1.333   8.887  17.204  0.00  0.00    +0.000 OA
ATOM      4  N   UNL     1       2.289   8.240  19.155  0.00  0.00    +0.000 N 
ATOM      5  H   UNL     1       2.640   8.556  20.044  0.00  0.00    +0.000 HD
ENDROOT
BRANCH   1   6
ATOM      6  C   UNL     1       0.879  10.130  20.599  0.00  0.00    +0.000 C 
BRANCH   6  12
ATOM      7  C   UNL     1      -5.079  13.487  24.036  0.00  0.00    +0.000 C 
ATOM      8  C   UNL     1      -3.621  13.393  23.674  0.00  0.00    +0.000 A 
ATOM      9  C   UNL     1      -3.159  12.326  22.875  0.00  0.00    +0.000 A 
ATOM     10  C   UNL     1      -1.824  12.275  22.456  0.00  0.00    +0.000 A 
ATOM     11  C   UNL     1      -1.225  11.118  21.773  0.00  0.00    +0.000 A 
ATOM     12  C   UNL     1      -0.002  11.204  21.206  0.00  0.00    +0.000 A 
ATOM     13  C   UNL     1       0.659  12.547  21.174  0.00  0.00    +0.000 A 
ATOM     14  O   UNL     1       1.559  12.800  20.379  0.00  0.00    +0.000 OA
ATOM     15  N   UNL     1       0.243  13.457  22.105  0.00  0.00    +0.000 N 
ATOM     16  C   UNL     1      -0.991  13.353  22.756  0.00  0.00    +0.000 A 
ATOM     17  C   UNL     1      -1.399  14.361  23.625  0.00  0.00    +0.000 A 
ATOM     18  C   UNL     1      -2.703  14.362  24.133  0.00  0.00    +0.000 A 
ATOM     19  C   UNL     1      -3.096  15.413  25.136  0.00  0.00    +0.000 C 
ATOM     20  H   UNL     1       0.757  14.325  22.141  0.00  0.00    +0.000 HD
ENDBRANCH   6  12
ENDBRANCH   1   6
BRANCH   1  21
ATOM     21  C   UNL     1      -0.298  10.679  18.406  0.00  0.00    +0.000 C 
BRANCH  21  22
ATOM     22  C   UNL     1      -1.655   9.945  18.283  0.00  0.00    +0.000 C 
BRANCH  22  23
ATOM     23  C   UNL     1      -2.919  10.720  17.971  0.00  0.00    +0.000 A 
ATOM     24  C   UNL     1      -3.553  11.486  18.961  0.00  0.00    +0.000 A 
ATOM     25  C   UNL     1      -4.741  12.169  18.695  0.00  0.00    +0.000 A 
ATOM     26  C   UNL     1      -5.294  12.135  17.421  0.00  0.00    +0.000 A 
ATOM     27  C   UNL     1      -4.654  11.429  16.408  0.00  0.00    +0.000 A 
ATOM     28  C   UNL     1      -3.469  10.716  16.664  0.00  0.00    +0.000 A 
ATOM     29  C   UNL     1      -2.840   9.956  15.523  0.00  0.00    +0.000 C 
ENDBRANCH  22  23
ENDBRANCH  21  22
ENDBRANCH   1  21
BRANCH   4  30
ATOM     30  C   UNL     1       2.993   7.110  18.593  0.00  0.00    +0.000 C 
BRANCH  30  31
ATOM     31  C   UNL     1       2.309   5.816  18.966  0.00  0.00    +0.000 A 
ATOM     32  C   UNL     1       1.950   5.541  20.298  0.00  0.00    +0.000 A 
ATOM     33  C   UNL     1       1.320   4.342  20.634  0.00  0.00    +0.000 A 
ATOM     34  C   UNL     1       1.018   3.414  19.641  0.00  0.00    +0.000 A 
ATOM     35  C   UNL     1       1.344   3.685  18.313  0.00  0.00    +0.000 A 
ATOM     36  C   UNL     1       1.983   4.880  17.977  0.00  0.00    +0.000 A 
ENDBRANCH  30  31
ENDBRANCH   4  30
TORSDOF 7
ENDMDL
MODEL 4
REMARK VINA RESULT:      -8.6      2.611      7.378
REMARK  Name = 
REMARK  10 active torsions:
REMARK  status: ('A' for Active; 'I' for Inactive)
REMARK    1  A    between atoms: C_1  and  C_2
REMARK    2  A    between atoms: C_6  and  C_7
REMARK    3  A    between atoms: C_7  and  N_8
REMARK    4  A    between atoms: N_8  and  C_9
REMARK    5  A    between atoms: C_9  and  C_10
REMARK    6  A    between atoms: C_10  and  C_11
REMARK    7  A    between atoms: C_16  and  C_17
REMARK    8  A    between atoms: N_20  and  C_21
REMARK    9  A    between atoms: C_21  and  C_22
REMARK   10  A    between atoms: C_33  and  C_34
REMARK                            x       y       z     vdW  Elec       q    Type
REMARK                         _______ _______ _______ _____ _____    ______ ____
ROOT
ATOM      1  N   UNL     1       0.297   9.557  21.235  0.00  0.00    +0.000 N 
ATOM      2  C   UNL     1      -0.136  10.107  22.448  0.00  0.00    +0.000 C 
ATOM      3  O   UNL     1       0.218   9.678  23.548  0.00  0.00    +0.000 OA
ATOM      4  N   UNL     1      -1.031  11.136  22.342  0.00  0.00    +0.000 N 
ATOM      5  H   UNL     1      -1.086  11.658  21.484  0.00  0.00    +0.000 HD
ENDROOT
BRANCH   1   6
ATOM      6  C   UNL     1      -0.321   9.938  19.953  0.00  0.00    +0.000 C 
BRANCH   6  12
ATOM      7  C   UNL     1       0.952  17.333  18.439  0.00  0.00    +0.000 C 
ATOM      8  C   UNL     1       1.374  15.889  18.516  0.00  0.00    +0.000 A 
ATOM      9  C   UNL     1       0.461  14.909  18.958  0.00  0.00    +0.000 A 
ATOM     10  C   UNL     1       0.811  13.553  18.949  0.00  0.00    +0.000 A 
ATOM     11  C   UNL     1      -0.012  12.493  19.552  0.00  0.00    +0.000 A 
ATOM     12  C   UNL     1       0.266  11.190  19.330  0.00  0.00    +0.000 A 
ATOM     13  C   UNL     1       1.346  10.864  18.345  0.00  0.00    +0.000 A 
ATOM     14  O   UNL     1       1.414   9.762  17.809  0.00  0.00    +0.000 OA
ATOM     15  N   UNL     1       2.276  11.838  18.113  0.00  0.00    +0.000 N 
ATOM     16  C   UNL     1       2.038  13.186  18.396  0.00  0.00    +0.000 A 
ATOM     17  C   UNL     1       2.989  14.142  18.052  0.00  0.00    +0.000 A 
ATOM     18  C   UNL     1       2.684  15.504  18.157  0.00  0.00    +0.000 A 
ATOM     19  C   UNL     1       3.755  16.519  17.859  0.00  0.00    +0.000 C 
ATOM     20  H   UNL     1       3.054  11.579  17.523  0.00  0.00    +0.000 HD
ENDBRANCH   6  12
ENDBRANCH   1   6
BRANCH   1  21
ATOM     21  C   UNL     1       0.907   8.218  21.378  0.00  0.00    +0.000 C 
BRANCH  21  22
ATOM     22  C   UNL     1       1.992   7.704  20.400  0.00  0.00    +0.000 C 
BRANCH  22  23
ATOM     23  C   UNL     1       1.967   6.270  19.914  0.00  0.00    +0.000 A 
ATOM     24  C   UNL     1       1.278   5.281  20.631  0.00  0.00    +0.000 A 
ATOM     25  C   UNL     1       1.285   3.950  20.215  0.00  0.00    +0.000 A 
ATOM     26  C   UNL     1       1.945   3.587  19.048  0.00  0.00    +0.000 A 
ATOM     27  C   UNL     1       2.589   4.560  18.288  0.00  0.00    +0.000 A 
ATOM     28  C   UNL     1       2.611   5.902  18.705  0.00  0.00    +0.000 A 
ATOM     29  C   UNL     1       3.346   6.898  17.843  0.00  0.00    +0.000 C 
ENDBRANCH  22  23
ENDBRANCH  21  22
ENDBRANCH   1  21
BRANCH   4  30
ATOM     30  C   UNL     1      -1.619  11.790  23.488  0.00  0.00    +0.000 C 
BRANCH  30  31
ATOM     31  C   UNL     1      -3.013  12.276  23.168  0.00  0.00    +0.000 A 
ATOM     32  C   UNL     1      -3.964  12.482  24.183  0.00  0.00    +0.000 A 
ATOM     33  C   UNL     1      -5.250  12.930  23.878  0.00  0.00    +0.000 A 
ATOM     34  C   UNL     1      -5.595  13.200  22.556  0.00  0.00    +0.000 A 
ATOM     35  C   UNL     1      -4.655  13.025  21.542  0.00  0.00    +0.000 A 
ATOM     36  C   UNL     1      -3.371  12.569  21.845  0.00  0.00    +0.000 A 
ENDBRANCH  30  31
ENDBRANCH   4  30
TORSDOF 7
ENDMDL
MODEL 5
REMARK VINA RESULT:      -8.5      2.215      4.616
REMARK  Name = 
REMARK  10 active torsions:
REMARK  status: ('A' for Active; 'I' for Inactive)
REMARK    1  A    between atoms: C_1  and  C_2
REMARK    2  A    between atoms: C_6  and  C_7
REMARK    3  A    between atoms: C_7  and  N_8
REMARK    4  A    between atoms: N_8  and  C_9
REMARK    5  A    between atoms: C_9  and  C_10
REMARK    6  A    between atoms: C_10  and  C_11
REMARK    7  A    between atoms: C_16  and  C_17
REMARK    8  A    between atoms: N_20  and  C_21
REMARK    9  A    between atoms: C_21  and  C_22
REMARK   10  A    between atoms: C_33  and  C_34
REMARK                            x       y       z     vdW  Elec       q    Type
REMARK                         _______ _______ _______ _____ _____    ______ ____
ROOT
ATOM      1  N   UNL     1       0.333   9.585  20.594  0.00  0.00    +0.000 N 
ATOM      2  C   UNL     1       1.310   8.590  20.727  0.00  0.00    +0.000 C 
ATOM      3  O   UNL     1       1.857   8.319  21.798  0.00  0.00    +0.000 OA
ATOM      4  N   UNL     1       1.667   7.957  19.568  0.00  0.00    +0.000 N 
ATOM      5  H   UNL     1       1.037   7.968  18.783  0.00  0.00    +0.000 HD
ENDROOT
BRANCH   1   6
ATOM      6  C   UNL     1      -0.127  10.040  19.271  0.00  0.00    +0.000 C 
BRANCH   6  12
ATOM      7  C   UNL     1      -0.671  17.619  18.346  0.00  0.00    +0.000 C 
ATOM      8  C   UNL     1       0.101  16.354  18.615  0.00  0.00    +0.000 A 
ATOM      9  C   UNL     1      -0.566  15.111  18.638  0.00  0.00    +0.000 A 
ATOM     10  C   UNL     1       0.152  13.920  18.797  0.00  0.00    +0.000 A 
ATOM     11  C   UNL     1      -0.478  12.607  19.005  0.00  0.00    +0.000 A 
ATOM     12  C   UNL     1       0.250  11.470  18.941  0.00  0.00    +0.000 A 
ATOM     13  C   UNL     1       1.681  11.581  18.515  0.00  0.00    +0.000 A 
ATOM     14  O   UNL     1       2.296  10.616  18.073  0.00  0.00    +0.000 OA
ATOM     15  N   UNL     1       2.279  12.798  18.689  0.00  0.00    +0.000 N 
ATOM     16  C   UNL     1       1.546  13.982  18.826  0.00  0.00    +0.000 A 
ATOM     17  C   UNL     1       2.213  15.201  18.907  0.00  0.00    +0.000 A 
ATOM     18  C   UNL     1       1.491  16.399  18.854  0.00  0.00    +0.000 A 
ATOM     19  C   UNL     1       2.224  17.702  19.027  0.00  0.00    +0.000 C 
ATOM     20  H   UNL     1       3.268  12.842  18.490  0.00  0.00    +0.000 HD
ENDBRANCH   6  12
ENDBRANCH   1   6
BRANCH   1  21
ATOM     21  C   UNL     1       0.278  10.515  21.742  0.00  0.00    +0.000 C 
BRANCH  21  22
ATOM     22  C   UNL     1      -1.061  11.095  22.261  0.00  0.00    +0.000 C 
BRANCH  22  23
ATOM     23  C   UNL     1      -1.170  12.563  22.620  0.00  0.00    +0.000 A 
ATOM     24  C   UNL     1      -0.172  13.472  22.237  0.00  0.00    +0.000 A 
ATOM     25  C   UNL     1      -0.242  14.817  22.600  0.00  0.00    +0.000 A 
ATOM     26  C   UNL     1      -1.334  15.290  23.316  0.00  0.00    +0.000 A 
ATOM     27  C   UNL     1      -2.365  14.420  23.659  0.00  0.00    +0.000 A 
ATOM     28  C   UNL     1      -2.299  13.057  23.321  0.00  0.00    +0.000 A 
ATOM     29  C   UNL     1      -3.442  12.168  23.743  0.00  0.00    +0.000 C 
ENDBRANCH  22  23
ENDBRANCH  21  22
ENDBRANCH   1  21
BRANCH   4  30
ATOM     30  C   UNL     1       2.691   6.939  19.508  0.00  0.00    +0.000 C 
BRANCH  30  31
ATOM     31  C   UNL     1       2.071   5.564  19.416  0.00  0.00    +0.000 A 
ATOM     32  C   UNL     1       1.997   4.880  18.189  0.00  0.00    +0.000 A 
ATOM     33  C   UNL     1       1.422   3.611  18.112  0.00  0.00    +0.000 A 
ATOM     34  C   UNL     1       0.935   2.999  19.264  0.00  0.00    +0.000 A 
ATOM     35  C   UNL     1       1.025   3.654  20.492  0.00  0.00    +0.000 A 
ATOM     36  C   UNL     1       1.593   4.928  20.568  0.00  0.00    +0.000 A 
ENDBRANCH  30  31
ENDBRANCH   4  30
TORSDOF 7
ENDMDL
MODEL 6
REMARK VINA RESULT:      -8.5      2.445      4.527
REMARK  Name = 
REMARK  10 active torsions:
REMARK  status: ('A' for Active; 'I' for Inactive)
REMARK    1  A    between atoms: C_1  and  C_2
REMARK    2  A    between atoms: C_6  and  C_7
REMARK    3  A    between atoms: C_7  and  N_8
REMARK    4  A    between atoms: N_8  and  C_9
REMARK    5  A    between atoms: C_9  and  C_10
REMARK    6  A    between atoms: C_10  and  C_11
REMARK    7  A    between atoms: C_16  and  C_17
REMARK    8  A    between atoms: N_20  and  C_21
REMARK    9  A    between atoms: C_21  and  C_22
REMARK   10  A    between atoms: C_33  and  C_34
REMARK                            x       y       z     vdW  Elec       q    Type
REMARK                         _______ _______ _______ _____ _____    ______ ____
ROOT
ATOM      1  N   UNL     1       0.183   9.635  20.618  0.00  0.00    +0.000 N 
ATOM      2  C   UNL     1       1.162   8.658  20.839  0.00  0.00    +0.000 C 
ATOM      3  O   UNL     1       1.621   8.401  21.954  0.00  0.00    +0.000 OA
ATOM      4  N   UNL     1       1.628   8.027  19.718  0.00  0.00    +0.000 N 
ATOM      5  H   UNL     1       1.066   8.024  18.883  0.00  0.00    +0.000 HD
ENDROOT
BRANCH   1   6
ATOM      6  C   UNL     1      -0.172  10.076  19.259  0.00  0.00    +0.000 C 
BRANCH   6  12
ATOM      7  C   UNL     1       1.435  17.511  18.406  0.00  0.00    +0.000 C 
ATOM      8  C   UNL     1       1.819  16.057  18.471  0.00  0.00    +0.000 A 
ATOM      9  C   UNL     1       0.831  15.074  18.695  0.00  0.00    +0.000 A 
ATOM     10  C   UNL     1       1.160  13.714  18.668  0.00  0.00    +0.000 A 
ATOM     11  C   UNL     1       0.233  12.641  19.061  0.00  0.00    +0.000 A 
ATOM     12  C   UNL     1       0.528  11.346  18.816  0.00  0.00    +0.000 A 
ATOM     13  C   UNL     1       1.756  11.050  18.012  0.00  0.00    +0.000 A 
ATOM     14  O   UNL     1       1.901   9.978  17.433  0.00  0.00    +0.000 OA
ATOM     15  N   UNL     1       2.725  12.014  17.997  0.00  0.00    +0.000 N 
ATOM     16  C   UNL     1       2.459  13.350  18.312  0.00  0.00    +0.000 A 
ATOM     17  C   UNL     1       3.467  14.302  18.189  0.00  0.00    +0.000 A 
ATOM     18  C   UNL     1       3.165  15.662  18.319  0.00  0.00    +0.000 A 
ATOM     19  C   UNL     1       4.284  16.668  18.264  0.00  0.00    +0.000 C 
ATOM     20  H   UNL     1       3.589  11.770  17.534  0.00  0.00    +0.000 HD
ENDBRANCH   6  12
ENDBRANCH   1   6
BRANCH   1  21
ATOM     21  C   UNL     1       0.013  10.568  21.753  0.00  0.00    +0.000 C 
BRANCH  21  22
ATOM     22  C   UNL     1      -1.311  11.334  21.991  0.00  0.00    +0.000 C 
BRANCH  22  23
ATOM     23  C   UNL     1      -1.348  12.845  21.892  0.00  0.00    +0.000 A 
ATOM     24  C   UNL     1      -0.295  13.624  22.396  0.00  0.00    +0.000 A 
ATOM     25  C   UNL     1      -0.340  15.017  22.349  0.00  0.00    +0.000 A 
ATOM     26  C   UNL     1      -1.419  15.660  21.755  0.00  0.00    +0.000 A 
ATOM     27  C   UNL     1      -2.449  14.909  21.196  0.00  0.00    +0.000 A 
ATOM     28  C   UNL     1      -2.431  13.505  21.256  0.00  0.00    +0.000 A 
ATOM     29  C   UNL     1      -3.590  12.756  20.648  0.00  0.00    +0.000 C 
ENDBRANCH  22  23
ENDBRANCH  21  22
ENDBRANCH   1  21
BRANCH   4  30
ATOM     30  C   UNL     1       2.671   7.028  19.751  0.00  0.00    +0.000 C 
BRANCH  30  31
ATOM     31  C   UNL     1       2.098   5.651  19.511  0.00  0.00    +0.000 A 
ATOM     32  C   UNL     1       1.527   4.907  20.559  0.00  0.00    +0.000 A 
ATOM     33  C   UNL     1       1.001   3.635  20.328  0.00  0.00    +0.000 A 
ATOM     34  C   UNL     1       1.017   3.100  19.043  0.00  0.00    +0.000 A 
ATOM     35  C   UNL     1       1.555   3.837  17.989  0.00  0.00    +0.000 A 
ATOM     36  C   UNL     1       2.089   5.106  18.220  0.00  0.00    +0.000 A 
ENDBRANCH  30  31
ENDBRANCH   4  30
TORSDOF 7
ENDMDL
MODEL 7
REMARK VINA RESULT:      -8.5      2.614      7.514
REMARK  Name = 
REMARK  10 active torsions:
REMARK  status: ('A' for Active; 'I' for Inactive)
REMARK    1  A    between atoms: C_1  and  C_2
REMARK    2  A    between atoms: C_6  and  C_7
REMARK    3  A    between atoms: C_7  and  N_8
REMARK    4  A    between atoms: N_8  and  C_9
REMARK    5  A    between atoms: C_9  and  C_10
REMARK    6  A    between atoms: C_10  and  C_11
REMARK    7  A    between atoms: C_16  and  C_17
REMARK    8  A    between atoms: N_20  and  C_21
REMARK    9  A    between atoms: C_21  and  C_22
REMARK   10  A    between atoms: C_33  and  C_34
REMARK                            x       y       z     vdW  Elec       q    Type
REMARK                         _______ _______ _______ _____ _____    ______ ____
ROOT
ATOM      1  N   UNL     1       0.802   9.493  20.973  0.00  0.00    +0.000 N 
ATOM      2  C   UNL     1       0.251   9.912  22.191  0.00  0.00    +0.000 C 
ATOM      3  O   UNL     1       0.611   9.468  23.283  0.00  0.00    +0.000 OA
ATOM      4  N   UNL     1      -0.764  10.825  22.095  0.00  0.00    +0.000 N 
ATOM      5  H   UNL     1      -0.849  11.385  21.263  0.00  0.00    +0.000 HD
ENDROOT
BRANCH   1   6
ATOM      6  C   UNL     1       0.195   9.868  19.684  0.00  0.00    +0.000 C 
BRANCH   6  12
ATOM      7  C   UNL     1       1.121  17.371  18.488  0.00  0.00    +0.000 C 
ATOM      8  C   UNL     1       1.606  15.946  18.492  0.00  0.00    +0.000 A 
ATOM      9  C   UNL     1       0.744  14.907  18.904  0.00  0.00    +0.000 A 
ATOM     10  C   UNL     1       1.151  13.570  18.827  0.00  0.00    +0.000 A 
ATOM     11  C   UNL     1       0.386  12.449  19.395  0.00  0.00    +0.000 A 
ATOM     12  C   UNL     1       0.715  11.170  19.109  0.00  0.00    +0.000 A 
ATOM     13  C   UNL     1       1.790  10.936  18.092  0.00  0.00    +0.000 A 
ATOM     14  O   UNL     1       1.894   9.864  17.505  0.00  0.00    +0.000 OA
ATOM     15  N   UNL     1       2.673  11.960  17.889  0.00  0.00    +0.000 N 
ATOM     16  C   UNL     1       2.383  13.282  18.237  0.00  0.00    +0.000 A 
ATOM     17  C   UNL     1       3.285  14.293  17.920  0.00  0.00    +0.000 A 
ATOM     18  C   UNL     1       2.923  15.635  18.093  0.00  0.00    +0.000 A 
ATOM     19  C   UNL     1       3.944  16.707  17.823  0.00  0.00    +0.000 C 
ATOM     20  H   UNL     1       3.450  11.762  17.275  0.00  0.00    +0.000 HD
ENDBRANCH   6  12
ENDBRANCH   1   6
BRANCH   1  21
ATOM     21  C   UNL     1       1.573   8.235  21.076  0.00  0.00    +0.000 C 
BRANCH  21  22
ATOM     22  C   UNL     1       2.103   7.496  19.822  0.00  0.00    +0.000 C 
BRANCH  22  23
ATOM     23  C   UNL     1       2.153   5.983  19.791  0.00  0.00    +0.000 A 
ATOM     24  C   UNL     1       1.395   5.221  20.693  0.00  0.00    +0.000 A 
ATOM     25  C   UNL     1       1.468   3.828  20.701  0.00  0.00    +0.000 A 
ATOM     26  C   UNL     1       2.266   3.166  19.777  0.00  0.00    +0.000 A 
ATOM     27  C   UNL     1       2.984   3.897  18.835  0.00  0.00    +0.000 A 
ATOM     28  C   UNL     1       2.940   5.302  18.828  0.00  0.00    +0.000 A 
ATOM     29  C   UNL     1       3.759   6.030  17.791  0.00  0.00    +0.000 C 
ENDBRANCH  22  23
ENDBRANCH  21  22
ENDBRANCH   1  21
BRANCH   4  30
ATOM     30  C   UNL     1      -1.479  11.332  23.244  0.00  0.00    +0.000 C 
BRANCH  30  31
ATOM     31  C   UNL     1      -2.633  12.205  22.810  0.00  0.00    +0.000 A 
ATOM     32  C   UNL     1      -2.739  12.667  21.486  0.00  0.00    +0.000 A 
ATOM     33  C   UNL     1      -3.808  13.474  21.095  0.00  0.00    +0.000 A 
ATOM     34  C   UNL     1      -4.798  13.810  22.015  0.00  0.00    +0.000 A 
ATOM     35  C   UNL     1      -4.719  13.337  23.324  0.00  0.00    +0.000 A 
ATOM     36  C   UNL     1      -3.645  12.537  23.719  0.00  0.00    +0.000 A 
ENDBRANCH  30  31
ENDBRANCH   4  30
TORSDOF 7
ENDMDL
MODEL 8
REMARK VINA RESULT:      -8.4      2.362      3.505
REMARK  Name = 
REMARK  10 active torsions:
REMARK  status: ('A' for Active; 'I' for Inactive)
REMARK    1  A    between atoms: C_1  and  C_2
REMARK    2  A    between atoms: C_6  and  C_7
REMARK    3  A    between atoms: C_7  and  N_8
REMARK    4  A    between atoms: N_8  and  C_9
REMARK    5  A    between atoms: C_9  and  C_10
REMARK    6  A    between atoms: C_10  and  C_11
REMARK    7  A    between atoms: C_16  and  C_17
REMARK    8  A    between atoms: N_20  and  C_21
REMARK    9  A    between atoms: C_21  and  C_22
REMARK   10  A    between atoms: C_33  and  C_34
REMARK                            x       y       z     vdW  Elec       q    Type
REMARK                         _______ _______ _______ _____ _____    ______ ____
ROOT
ATOM      1  N   UNL     1       1.248   9.796  19.398  0.00  0.00    +0.000 N 
ATOM      2  C   UNL     1       1.938   8.870  18.605  0.00  0.00    +0.000 C 
ATOM      3  O   UNL     1       2.492   9.169  17.545  0.00  0.00    +0.000 OA
ATOM      4  N   UNL     1       1.919   7.579  19.057  0.00  0.00    +0.000 N 
ATOM      5  H   UNL     1       1.733   7.397  20.029  0.00  0.00    +0.000 HD
ENDROOT
BRANCH   1   6
ATOM      6  C   UNL     1       0.406   9.366  20.527  0.00  0.00    +0.000 C 
BRANCH   6  12
ATOM      7  C   UNL     1      -4.332  15.349  21.122  0.00  0.00    +0.000 C 
ATOM      8  C   UNL     1      -3.683  14.096  21.649  0.00  0.00    +0.000 A 
ATOM      9  C   UNL     1      -2.747  13.398  20.857  0.00  0.00    +0.000 A 
ATOM     10  C   UNL     1      -2.071  12.285  21.368  0.00  0.00    +0.000 A 
ATOM     11  C   UNL     1      -1.216  11.403  20.557  0.00  0.00    +0.000 A 
ATOM     12  C   UNL     1      -0.425  10.476  21.139  0.00  0.00    +0.000 A 
ATOM     13  C   UNL     1      -0.342  10.470  22.635  0.00  0.00    +0.000 A 
ATOM     14  O   UNL     1       0.598   9.945  23.223  0.00  0.00    +0.000 OA
ATOM     15  N   UNL     1      -1.389  11.034  23.308  0.00  0.00    +0.000 N 
ATOM     16  C   UNL     1      -2.263  11.946  22.708  0.00  0.00    +0.000 A 
ATOM     17  C   UNL     1      -3.254  12.557  23.471  0.00  0.00    +0.000 A 
ATOM     18  C   UNL     1      -4.009  13.604  22.931  0.00  0.00    +0.000 A 
ATOM     19  C   UNL     1      -5.129  14.193  23.745  0.00  0.00    +0.000 C 
ATOM     20  H   UNL     1      -1.374  10.942  24.314  0.00  0.00    +0.000 HD
ENDBRANCH   6  12
ENDBRANCH   1   6
BRANCH   1  21
ATOM     21  C   UNL     1       0.929  11.055  18.692  0.00  0.00    +0.000 C 
BRANCH  21  22
ATOM     22  C   UNL     1       1.970  12.191  18.534  0.00  0.00    +0.000 C 
BRANCH  22  23
ATOM     23  C   UNL     1       1.534  13.640  18.580  0.00  0.00    +0.000 A 
ATOM     24  C   UNL     1       0.186  13.979  18.773  0.00  0.00    +0.000 A 
ATOM     25  C   UNL     1      -0.232  15.309  18.773  0.00  0.00    +0.000 A 
ATOM     26  C   UNL     1       0.696  16.332  18.624  0.00  0.00    +0.000 A 
ATOM     27  C   UNL     1       2.047  16.025  18.488  0.00  0.00    +0.000 A 
ATOM     28  C   UNL     1       2.483  14.688  18.462  0.00  0.00    +0.000 A 
ATOM     29  C   UNL     1       3.958  14.429  18.290  0.00  0.00    +0.000 C 
ENDBRANCH  22  23
ENDBRANCH  21  22
ENDBRANCH   1  21
BRANCH   4  30
ATOM     30  C   UNL     1       2.538   6.485  18.343  0.00  0.00    +0.000 C 
BRANCH  30  31
ATOM     31  C   UNL     1       2.013   5.159  18.842  0.00  0.00    +0.000 A 
ATOM     32  C   UNL     1       1.693   4.966  20.197  0.00  0.00    +0.000 A 
ATOM     33  C   UNL     1       1.210   3.737  20.649  0.00  0.00    +0.000 A 
ATOM     34  C   UNL     1       1.018   2.693  19.748  0.00  0.00    +0.000 A 
ATOM     35  C   UNL     1       1.306   2.878  18.397  0.00  0.00    +0.000 A 
ATOM     36  C   UNL     1       1.798   4.104  17.945  0.00  0.00    +0.000 A 
ENDBRANCH  30  31
ENDBRANCH   4  30
TORSDOF 7
ENDMDL
MODEL 9
REMARK VINA RESULT:      -8.4      1.328      2.450
REMARK  Name = 
REMARK  10 active torsions:
REMARK  status: ('A' for Active; 'I' for Inactive)
REMARK    1  A    between atoms: C_1  and  C_2
REMARK    2  A    between atoms: C_6  and  C_7
REMARK    3  A    between atoms: C_7  and  N_8
REMARK    4  A    between atoms: N_8  and  C_9
REMARK    5  A    between atoms: C_9  and  C_10
REMARK    6  A    between atoms: C_10  and  C_11
REMARK    7  A    between atoms: C_16  and  C_17
REMARK    8  A    between atoms: N_20  and  C_21
REMARK    9  A    between atoms: C_21  and  C_22
REMARK   10  A    between atoms: C_33  and  C_34
REMARK                            x       y       z     vdW  Elec       q    Type
REMARK                         _______ _______ _______ _____ _____    ______ ____
ROOT
ATOM      1  N   UNL     1       1.075   9.750  19.337  0.00  0.00    +0.000 N 
ATOM      2  C   UNL     1       1.739   8.702  18.688  0.00  0.00    +0.000 C 
ATOM      3  O   UNL     1       1.695   8.526  17.469  0.00  0.00    +0.000 OA
ATOM      4  N   UNL     1       2.415   7.837  19.506  0.00  0.00    +0.000 N 
ATOM      5  H   UNL     1       2.688   8.138  20.426  0.00  0.00    +0.000 HD
ENDROOT
BRANCH   1   6
ATOM      6  C   UNL     1       0.958   9.796  20.805  0.00  0.00    +0.000 C 
BRANCH   6  12
ATOM      7  C   UNL     1      -4.912  13.535  23.993  0.00  0.00    +0.000 C 
ATOM      8  C   UNL     1      -3.459  13.386  23.625  0.00  0.00    +0.000 A 
ATOM      9  C   UNL     1      -3.022  12.246  22.919  0.00  0.00    +0.000 A 
ATOM     10  C   UNL     1      -1.693  12.138  22.492  0.00  0.00    +0.000 A 
ATOM     11  C   UNL     1      -1.118  10.916  21.908  0.00  0.00    +0.000 A 
ATOM     12  C   UNL     1       0.099  10.932  21.324  0.00  0.00    +0.000 A 
ATOM     13  C   UNL     1       0.780  12.257  21.167  0.00  0.00    +0.000 A 
ATOM     14  O   UNL     1       1.674  12.425  20.344  0.00  0.00    +0.000 OA
ATOM     15  N   UNL     1       0.387  13.251  22.018  0.00  0.00    +0.000 N 
ATOM     16  C   UNL     1      -0.840  13.225  22.688  0.00  0.00    +0.000 A 
ATOM     17  C   UNL     1      -1.224  14.311  23.469  0.00  0.00    +0.000 A 
ATOM     18  C   UNL     1      -2.522  14.377  23.988  0.00  0.00    +0.000 A 
ATOM     19  C   UNL     1      -2.888  15.519  24.898  0.00  0.00    +0.000 C 
ATOM     20  H   UNL     1       0.915  14.111  21.973  0.00  0.00    +0.000 HD
ENDBRANCH   6  12
ENDBRANCH   1   6
BRANCH   1  21
ATOM     21  C   UNL     1       0.038  10.397  18.505  0.00  0.00    +0.000 C 
BRANCH  21  22
ATOM     22  C   UNL     1      -1.442   9.943  18.543  0.00  0.00    +0.000 C 
BRANCH  22  23
ATOM     23  C   UNL     1      -2.372  10.268  17.392  0.00  0.00    +0.000 A 
ATOM     24  C   UNL     1      -2.193   9.672  16.135  0.00  0.00    +0.000 A 
ATOM     25  C   UNL     1      -3.017   9.997  15.057  0.00  0.00    +0.000 A 
ATOM     26  C   UNL     1      -4.065  10.892  15.227  0.00  0.00    +0.000 A 
ATOM     27  C   UNL     1      -4.299  11.454  16.479  0.00  0.00    +0.000 A 
ATOM     28  C   UNL     1      -3.464  11.155  17.569  0.00  0.00    +0.000 A 
ATOM     29  C   UNL     1      -3.764  11.816  18.892  0.00  0.00    +0.000 C 
ENDBRANCH  22  23
ENDBRANCH  21  22
ENDBRANCH   1  21
BRANCH   4  30
ATOM     30  C   UNL     1       3.117   6.674  19.014  0.00  0.00    +0.000 C 
BRANCH  30  31
ATOM     31  C   UNL     1       2.306   5.422  19.252  0.00  0.00    +0.000 A 
ATOM     32  C   UNL     1       1.921   4.591  18.185  0.00  0.00    +0.000 A 
ATOM     33  C   UNL     1       1.170   3.436  18.414  0.00  0.00    +0.000 A 
ATOM     34  C   UNL     1       0.815   3.086  19.714  0.00  0.00    +0.000 A 
ATOM     35  C   UNL     1       1.212   3.886  20.784  0.00  0.00    +0.000 A 
ATOM     36  C   UNL     1       1.956   5.046  20.555  0.00  0.00    +0.000 A 
ENDBRANCH  30  31
ENDBRANCH   4  30
TORSDOF 7
ENDMDL
