MODEL 1
REMARK VINA RESULT:      -8.1      0.000      0.000
REMARK  Name = 
REMARK  7 active torsions:
REMARK  status: ('A' for Active; 'I' for Inactive)
REMARK    1  A    between atoms: C_1  and  C_2
REMARK    2  A    between atoms: C_14  and  C_16
REMARK    3  A    between atoms: C_16  and  O_17
REMARK    4  A    between atoms: O_17  and  C_18
REMARK    5  A    between atoms: C_18  and  C_20
REMARK    6  A    between atoms: C_20  and  N_21
REMARK    7  A    between atoms: C_22  and  C_24
REMARK                            x       y       z     vdW  Elec       q    Type
REMARK                         _______ _______ _______ _____ _____    ______ ____
ROOT
ATOM      1  C   UNL     1       2.087   2.717  18.198  0.00  0.00    +0.000 C 
ATOM      2  C   UNL     1       2.254   3.400  19.568  0.00  0.00    +0.000 C 
ATOM      3  C   UNL     1       3.098   2.550  20.531  0.00  0.00    +0.000 C 
ATOM      4  C   UNL     1       4.517   2.400  20.023  0.00  0.00    +0.000 C 
ATOM      5  O   UNL     1       4.959   1.349  19.572  0.00  0.00    +0.000 OA
ATOM      6  N   UNL     1       5.222   3.600  20.049  0.00  0.00    +0.000 N 
ATOM      7  C   UNL     1       5.063   4.360  18.858  0.00  0.00    +0.000 A 
ATOM      8  C   UNL     1       6.131   4.447  17.969  0.00  0.00    +0.000 A 
ATOM      9  C   UNL     1       6.001   5.221  16.818  0.00  0.00    +0.000 A 
ATOM     10  C   UNL     1       4.806   5.893  16.554  0.00  0.00    +0.000 A 
ATOM     11  C   UNL     1       3.733   5.799  17.442  0.00  0.00    +0.000 A 
ATOM     12  C   UNL     1       3.854   5.044  18.613  0.00  0.00    +0.000 A 
ATOM     13  N   UNL     1       2.719   4.817  19.450  0.00  0.00    +0.000 N 
ATOM     14  C   UNL     1       1.985   5.843  20.069  0.00  0.00    +0.000 C 
ATOM     15  O   UNL     1       0.994   5.594  20.765  0.00  0.00    +0.000 OA
ATOM     16  H   UNL     1       4.842   4.155  20.813  0.00  0.00    +0.000 HD
ENDROOT
BRANCH  14  17
ATOM     17  C   UNL     1       2.474   7.294  19.905  0.00  0.00    +0.000 C 
BRANCH  17  18
ATOM     18  O   UNL     1       1.403   8.245  19.833  0.00  0.00    +0.000 OA
BRANCH  18  19
ATOM     19  C   UNL     1       1.176   8.991  20.945  0.00  0.00    +0.000 C 
ATOM     20  O   UNL     1       1.565   8.707  22.072  0.00  0.00    +0.000 OA
BRANCH  19  21
ATOM     21  C   UNL     1       0.457  10.291  20.591  0.00  0.00    +0.000 C 
BRANCH  21  22
ATOM     22  N   UNL     1      -0.420  10.156  19.436  0.00  0.00    +0.000 N 
ATOM     23  C   UNL     1      -1.480  11.023  19.247  0.00  0.00    +0.000 C 
ATOM     24  O   UNL     1      -1.751  11.922  20.031  0.00  0.00    +0.000 OA
ATOM     25  H   UNL     1      -0.181   9.471  18.734  0.00  0.00    +0.000 HD
BRANCH  23  26
ATOM     26  C   UNL     1      -2.287  10.855  18.005  0.00  0.00    +0.000 A 
ATOM     27  C   UNL     1      -1.920   9.970  16.981  0.00  0.00    +0.000 A 
ATOM     28  C   UNL     1      -2.725   9.840  15.842  0.00  0.00    +0.000 A 
ATOM     29  C   UNL     1      -3.896  10.587  15.726  0.00  0.00    +0.000 A 
ATOM     30  C   UNL     1      -4.262  11.454  16.750  0.00  0.00    +0.000 A 
ATOM     31  F   UNL     1      -5.389  12.165  16.638  0.00  0.00    +0.000 F 
ATOM     32  C   UNL     1      -3.472  11.590  17.888  0.00  0.00    +0.000 A 
ENDBRANCH  23  26
ENDBRANCH  21  22
ENDBRANCH  19  21
ENDBRANCH  18  19
ENDBRANCH  17  18
ENDBRANCH  14  17
TORSDOF 6
ENDMDL
MODEL 2
REMARK VINA RESULT:      -8.0      3.149      4.990
REMARK  Name = 
REMARK  7 active torsions:
REMARK  status: ('A' for Active; 'I' for Inactive)
REMARK    1  A    between atoms: C_1  and  C_2
REMARK    2  A    between atoms: C_14  and  C_16
REMARK    3  A    between atoms: C_16  and  O_17
REMARK    4  A    between atoms: O_17  and  C_18
REMARK    5  A    between atoms: C_18  and  C_20
REMARK    6  A    between atoms: C_20  and  N_21
REMARK    7  A    between atoms: C_22  and  C_24
REMARK                            x       y       z     vdW  Elec       q    Type
REMARK                         _______ _______ _______ _____ _____    ______ ____
ROOT
ATOM      1  C   UNL     1       4.895   6.713  15.767  0.00  0.00    +0.000 C 
ATOM      2  C   UNL     1       4.544   5.217  15.655  0.00  0.00    +0.000 C 
ATOM      3  C   UNL     1       5.376   4.516  14.570  0.00  0.00    +0.000 C 
ATOM      4  C   UNL     1       6.848   4.519  14.925  0.00  0.00    +0.000 C 
ATOM      5  O   UNL     1       7.675   5.213  14.344  0.00  0.00    +0.000 OA
ATOM      6  N   UNL     1       7.132   3.720  16.029  0.00  0.00    +0.000 N 
ATOM      7  C   UNL     1       7.013   4.417  17.261  0.00  0.00    +0.000 A 
ATOM      8  C   UNL     1       8.172   4.749  17.960  0.00  0.00    +0.000 A 
ATOM      9  C   UNL     1       8.066   5.398  19.189  0.00  0.00    +0.000 A 
ATOM     10  C   UNL     1       6.811   5.721  19.708  0.00  0.00    +0.000 A 
ATOM     11  C   UNL     1       5.651   5.395  19.003  0.00  0.00    +0.000 A 
ATOM     12  C   UNL     1       5.738   4.725  17.778  0.00  0.00    +0.000 A 
ATOM     13  N   UNL     1       4.571   4.522  16.979  0.00  0.00    +0.000 N 
ATOM     14  C   UNL     1       3.444   3.801  17.407  0.00  0.00    +0.000 C 
ATOM     15  O   UNL     1       2.449   3.674  16.685  0.00  0.00    +0.000 OA
ATOM     16  H   UNL     1       6.445   2.969  16.040  0.00  0.00    +0.000 HD
ENDROOT
BRANCH  14  17
ATOM     17  C   UNL     1       3.493   3.118  18.788  0.00  0.00    +0.000 C 
BRANCH  17  18
ATOM     18  O   UNL     1       2.280   3.274  19.536  0.00  0.00    +0.000 OA
BRANCH  18  19
ATOM     19  C   UNL     1       2.312   4.157  20.568  0.00  0.00    +0.000 C 
ATOM     20  O   UNL     1       2.194   3.859  21.751  0.00  0.00    +0.000 OA
BRANCH  19  21
ATOM     21  C   UNL     1       2.618   5.568  20.068  0.00  0.00    +0.000 C 
BRANCH  21  22
ATOM     22  N   UNL     1       1.882   6.596  20.792  0.00  0.00    +0.000 N 
ATOM     23  C   UNL     1       1.652   7.834  20.224  0.00  0.00    +0.000 C 
ATOM     24  O   UNL     1       2.062   8.143  19.112  0.00  0.00    +0.000 OA
ATOM     25  H   UNL     1       1.468   6.350  21.680  0.00  0.00    +0.000 HD
BRANCH  23  26
ATOM     26  C   UNL     1       0.834   8.805  21.005  0.00  0.00    +0.000 A 
ATOM     27  C   UNL     1       0.708   8.733  22.400  0.00  0.00    +0.000 A 
ATOM     28  C   UNL     1      -0.061   9.681  23.086  0.00  0.00    +0.000 A 
ATOM     29  C   UNL     1      -0.700  10.702  22.384  0.00  0.00    +0.000 A 
ATOM     30  C   UNL     1      -0.560  10.777  21.002  0.00  0.00    +0.000 A 
ATOM     31  F   UNL     1      -1.169  11.762  20.333  0.00  0.00    +0.000 F 
ATOM     32  C   UNL     1       0.203   9.842  20.309  0.00  0.00    +0.000 A 
ENDBRANCH  23  26
ENDBRANCH  21  22
ENDBRANCH  19  21
ENDBRANCH  18  19
ENDBRANCH  17  18
ENDBRANCH  14  17
TORSDOF 6
ENDMDL
MODEL 3
REMARK VINA RESULT:      -8.0      1.585      3.129
REMARK  Name = 
REMARK  7 active torsions:
REMARK  status: ('A' for Active; 'I' for Inactive)
REMARK    1  A    between atoms: C_1  and  C_2
REMARK    2  A    between atoms: C_14  and  C_16
REMARK    3  A    between atoms: C_16  and  O_17
REMARK    4  A    between atoms: O_17  and  C_18
REMARK    5  A    between atoms: C_18  and  C_20
REMARK    6  A    between atoms: C_20  and  N_21
REMARK    7  A    between atoms: C_22  and  C_24
REMARK                            x       y       z     vdW  Elec       q    Type
REMARK                         _______ _______ _______ _____ _____    ______ ____
ROOT
ATOM      1  C   UNL     1       5.339   4.885  19.148  0.00  0.00    +0.000 C 
ATOM      2  C   UNL     1       4.240   5.624  18.361  0.00  0.00    +0.000 C 
ATOM      3  C   UNL     1       3.999   4.989  16.983  0.00  0.00    +0.000 C 
ATOM      4  C   UNL     1       3.465   3.579  17.118  0.00  0.00    +0.000 C 
ATOM      5  O   UNL     1       4.130   2.583  16.857  0.00  0.00    +0.000 OA
ATOM      6  N   UNL     1       2.178   3.546  17.649  0.00  0.00    +0.000 N 
ATOM      7  C   UNL     1       2.167   3.498  19.069  0.00  0.00    +0.000 A 
ATOM      8  C   UNL     1       1.809   2.309  19.700  0.00  0.00    +0.000 A 
ATOM      9  C   UNL     1       1.756   2.262  21.091  0.00  0.00    +0.000 A 
ATOM     10  C   UNL     1       2.071   3.394  21.845  0.00  0.00    +0.000 A 
ATOM     11  C   UNL     1       2.437   4.583  21.213  0.00  0.00    +0.000 A 
ATOM     12  C   UNL     1       2.474   4.654  19.817  0.00  0.00    +0.000 A 
ATOM     13  N   UNL     1       2.991   5.814  19.163  0.00  0.00    +0.000 N 
ATOM     14  C   UNL     1       2.453   7.104  19.314  0.00  0.00    +0.000 C 
ATOM     15  O   UNL     1       2.953   8.080  18.745  0.00  0.00    +0.000 OA
ATOM     16  H   UNL     1       1.716   4.410  17.373  0.00  0.00    +0.000 HD
ENDROOT
BRANCH  14  17
ATOM     17  C   UNL     1       1.182   7.270  20.169  0.00  0.00    +0.000 C 
BRANCH  17  18
ATOM     18  O   UNL     1       1.339   8.221  21.230  0.00  0.00    +0.000 OA
BRANCH  18  19
ATOM     19  C   UNL     1       0.370   9.166  21.348  0.00  0.00    +0.000 C 
ATOM     20  O   UNL     1      -0.493   9.182  22.218  0.00  0.00    +0.000 OA
BRANCH  19  21
ATOM     21  C   UNL     1       0.558  10.271  20.310  0.00  0.00    +0.000 C 
BRANCH  21  22
ATOM     22  N   UNL     1      -0.438  10.223  19.247  0.00  0.00    +0.000 N 
ATOM     23  C   UNL     1      -1.519  11.083  19.252  0.00  0.00    +0.000 C 
ATOM     24  O   UNL     1      -1.713  11.903  20.139  0.00  0.00    +0.000 OA
ATOM     25  H   UNL     1      -0.269   9.609  18.464  0.00  0.00    +0.000 HD
BRANCH  23  26
ATOM     26  C   UNL     1      -2.454  11.013  18.093  0.00  0.00    +0.000 A 
ATOM     27  C   UNL     1      -3.709  11.637  18.098  0.00  0.00    +0.000 A 
ATOM     28  C   UNL     1      -4.541  11.552  16.974  0.00  0.00    +0.000 A 
ATOM     29  C   UNL     1      -4.120  10.851  15.845  0.00  0.00    +0.000 A 
ATOM     30  C   UNL     1      -2.869  10.244  15.840  0.00  0.00    +0.000 A 
ATOM     31  F   UNL     1      -2.466   9.577  14.754  0.00  0.00    +0.000 F 
ATOM     32  C   UNL     1      -2.032  10.324  16.950  0.00  0.00    +0.000 A 
ENDBRANCH  23  26
ENDBRANCH  21  22
ENDBRANCH  19  21
ENDBRANCH  18  19
ENDBRANCH  17  18
ENDBRANCH  14  17
TORSDOF 6
ENDMDL
MODEL 4
REMARK VINA RESULT:      -8.0      2.073      3.255
REMARK  Name = 
REMARK  7 active torsions:
REMARK  status: ('A' for Active; 'I' for Inactive)
REMARK    1  A    between atoms: C_1  and  C_2
REMARK    2  A    between atoms: C_14  and  C_16
REMARK    3  A    between atoms: C_16  and  O_17
REMARK    4  A    between atoms: O_17  and  C_18
REMARK    5  A    between atoms: C_18  and  C_20
REMARK    6  A    between atoms: C_20  and  N_21
REMARK    7  A    between atoms: C_22  and  C_24
REMARK                            x       y       z     vdW  Elec       q    Type
REMARK                         _______ _______ _______ _____ _____    ______ ____
ROOT
ATOM      1  C   UNL     1       5.490   4.618  19.248  0.00  0.00    +0.000 C 
ATOM      2  C   UNL     1       4.926   5.164  17.922  0.00  0.00    +0.000 C 
ATOM      3  C   UNL     1       4.838   4.072  16.845  0.00  0.00    +0.000 C 
ATOM      4  C   UNL     1       3.853   2.994  17.243  0.00  0.00    +0.000 C 
ATOM      5  O   UNL     1       4.194   1.867  17.586  0.00  0.00    +0.000 OA
ATOM      6  N   UNL     1       2.538   3.452  17.257  0.00  0.00    +0.000 N 
ATOM      7  C   UNL     1       2.162   4.012  18.508  0.00  0.00    +0.000 A 
ATOM      8  C   UNL     1       1.287   3.301  19.327  0.00  0.00    +0.000 A 
ATOM      9  C   UNL     1       0.879   3.857  20.537  0.00  0.00    +0.000 A 
ATOM     10  C   UNL     1       1.353   5.110  20.930  0.00  0.00    +0.000 A 
ATOM     11  C   UNL     1       2.235   5.818  20.112  0.00  0.00    +0.000 A 
ATOM     12  C   UNL     1       2.638   5.284  18.884  0.00  0.00    +0.000 A 
ATOM     13  N   UNL     1       3.653   5.927  18.112  0.00  0.00    +0.000 N 
ATOM     14  C   UNL     1       3.551   7.240  17.621  0.00  0.00    +0.000 C 
ATOM     15  O   UNL     1       4.470   7.759  16.978  0.00  0.00    +0.000 OA
ATOM     16  H   UNL     1       2.471   4.193  16.563  0.00  0.00    +0.000 HD
ENDROOT
BRANCH  14  17
ATOM     17  C   UNL     1       2.237   8.009  17.856  0.00  0.00    +0.000 C 
BRANCH  17  18
ATOM     18  O   UNL     1       2.257   9.336  17.313  0.00  0.00    +0.000 OA
BRANCH  18  19
ATOM     19  C   UNL     1       1.872  10.339  18.144  0.00  0.00    +0.000 C 
ATOM     20  O   UNL     1       2.293  11.489  18.099  0.00  0.00    +0.000 OA
BRANCH  19  21
ATOM     21  C   UNL     1       0.761   9.871  19.084  0.00  0.00    +0.000 C 
BRANCH  21  22
ATOM     22  N   UNL     1      -0.572  10.101  18.542  0.00  0.00    +0.000 N 
ATOM     23  C   UNL     1      -1.325  11.184  18.952  0.00  0.00    +0.000 C 
ATOM     24  O   UNL     1      -0.936  11.986  19.791  0.00  0.00    +0.000 OA
ATOM     25  H   UNL     1      -0.892   9.501  17.796  0.00  0.00    +0.000 HD
BRANCH  23  26
ATOM     26  C   UNL     1      -2.650  11.382  18.298  0.00  0.00    +0.000 A 
ATOM     27  C   UNL     1      -2.909  10.978  16.981  0.00  0.00    +0.000 A 
ATOM     28  C   UNL     1      -4.178  11.173  16.422  0.00  0.00    +0.000 A 
ATOM     29  C   UNL     1      -5.189  11.767  17.176  0.00  0.00    +0.000 A 
ATOM     30  C   UNL     1      -4.932  12.154  18.486  0.00  0.00    +0.000 A 
ATOM     31  F   UNL     1      -5.906  12.717  19.209  0.00  0.00    +0.000 F 
ATOM     32  C   UNL     1      -3.675  11.963  19.054  0.00  0.00    +0.000 A 
ENDBRANCH  23  26
ENDBRANCH  21  22
ENDBRANCH  19  21
ENDBRANCH  18  19
ENDBRANCH  17  18
ENDBRANCH  14  17
TORSDOF 6
ENDMDL
MODEL 5
REMARK VINA RESULT:      -7.7      1.953      3.327
REMARK  Name = 
REMARK  7 active torsions:
REMARK  status: ('A' for Active; 'I' for Inactive)
REMARK    1  A    between atoms: C_1  and  C_2
REMARK    2  A    between atoms: C_14  and  C_16
REMARK    3  A    between atoms: C_16  and  O_17
REMARK    4  A    between atoms: O_17  and  C_18
REMARK    5  A    between atoms: C_18  and  C_20
REMARK    6  A    between atoms: C_20  and  N_21
REMARK    7  A    between atoms: C_22  and  C_24
REMARK                            x       y       z     vdW  Elec       q    Type
REMARK                         _______ _______ _______ _____ _____    ______ ____
ROOT
ATOM      1  C   UNL     1       5.524   4.214  19.211  0.00  0.00    +0.000 C 
ATOM      2  C   UNL     1       5.020   4.616  17.812  0.00  0.00    +0.000 C 
ATOM      3  C   UNL     1       4.750   3.389  16.927  0.00  0.00    +0.000 C 
ATOM      4  C   UNL     1       3.625   2.548  17.491  0.00  0.00    +0.000 C 
ATOM      5  O   UNL     1       3.805   1.453  18.014  0.00  0.00    +0.000 OA
ATOM      6  N   UNL     1       2.393   3.192  17.426  0.00  0.00    +0.000 N 
ATOM      7  C   UNL     1       2.128   3.996  18.567  0.00  0.00    +0.000 A 
ATOM      8  C   UNL     1       1.175   3.565  19.487  0.00  0.00    +0.000 A 
ATOM      9  C   UNL     1       0.879   4.364  20.590  0.00  0.00    +0.000 A 
ATOM     10  C   UNL     1       1.539   5.579  20.774  0.00  0.00    +0.000 A 
ATOM     11  C   UNL     1       2.499   6.008  19.856  0.00  0.00    +0.000 A 
ATOM     12  C   UNL     1       2.794   5.228  18.733  0.00  0.00    +0.000 A 
ATOM     13  N   UNL     1       3.877   5.580  17.870  0.00  0.00    +0.000 N 
ATOM     14  C   UNL     1       3.959   6.796  17.172  0.00  0.00    +0.000 C 
ATOM     15  O   UNL     1       4.930   7.063  16.456  0.00  0.00    +0.000 OA
ATOM     16  H   UNL     1       2.421   3.813  16.620  0.00  0.00    +0.000 HD
ENDROOT
BRANCH  14  17
ATOM     17  C   UNL     1       2.777   7.780  17.273  0.00  0.00    +0.000 C 
BRANCH  17  18
ATOM     18  O   UNL     1       2.907   8.705  18.361  0.00  0.00    +0.000 OA
BRANCH  18  19
ATOM     19  C   UNL     1       2.254   9.889  18.233  0.00  0.00    +0.000 C 
ATOM     20  O   UNL     1       2.620  10.820  17.525  0.00  0.00    +0.000 OA
BRANCH  19  21
ATOM     21  C   UNL     1       0.940   9.873  19.011  0.00  0.00    +0.000 C 
BRANCH  21  22
ATOM     22  N   UNL     1      -0.228  10.019  18.152  0.00  0.00    +0.000 N 
ATOM     23  C   UNL     1      -1.337  10.724  18.580  0.00  0.00    +0.000 C 
ATOM     24  O   UNL     1      -1.413  11.237  19.688  0.00  0.00    +0.000 OA
ATOM     25  H   UNL     1      -0.170   9.670  17.207  0.00  0.00    +0.000 HD
BRANCH  23  26
ATOM     26  C   UNL     1      -2.461  10.882  17.613  0.00  0.00    +0.000 A 
ATOM     27  C   UNL     1      -3.668  11.508  17.957  0.00  0.00    +0.000 A 
ATOM     28  C   UNL     1      -4.685  11.644  17.004  0.00  0.00    +0.000 A 
ATOM     29  C   UNL     1      -4.499  11.162  15.710  0.00  0.00    +0.000 A 
ATOM     30  C   UNL     1      -3.295  10.554  15.370  0.00  0.00    +0.000 A 
ATOM     31  F   UNL     1      -3.117  10.098  14.126  0.00  0.00    +0.000 F 
ATOM     32  C   UNL     1      -2.276  10.415  16.307  0.00  0.00    +0.000 A 
ENDBRANCH  23  26
ENDBRANCH  21  22
ENDBRANCH  19  21
ENDBRANCH  18  19
ENDBRANCH  17  18
ENDBRANCH  14  17
TORSDOF 6
ENDMDL
MODEL 6
REMARK VINA RESULT:      -7.7      1.621      2.038
REMARK  Name = 
REMARK  7 active torsions:
REMARK  status: ('A' for Active; 'I' for Inactive)
REMARK    1  A    between atoms: C_1  and  C_2
REMARK    2  A    between atoms: C_14  and  C_16
REMARK    3  A    between atoms: C_16  and  O_17
REMARK    4  A    between atoms: O_17  and  C_18
REMARK    5  A    between atoms: C_18  and  C_20
REMARK    6  A    between atoms: C_20  and  N_21
REMARK    7  A    between atoms: C_22  and  C_24
REMARK                            x       y       z     vdW  Elec       q    Type
REMARK                         _______ _______ _______ _____ _____    ______ ____
ROOT
ATOM      1  C   UNL     1       2.538   3.162  17.572  0.00  0.00    +0.000 C 
ATOM      2  C   UNL     1       2.641   4.217  18.690  0.00  0.00    +0.000 C 
ATOM      3  C   UNL     1       3.279   3.640  19.963  0.00  0.00    +0.000 C 
ATOM      4  C   UNL     1       4.715   3.230  19.716  0.00  0.00    +0.000 C 
ATOM      5  O   UNL     1       5.077   2.060  19.657  0.00  0.00    +0.000 OA
ATOM      6  N   UNL     1       5.547   4.321  19.480  0.00  0.00    +0.000 N 
ATOM      7  C   UNL     1       5.600   4.689  18.108  0.00  0.00    +0.000 A 
ATOM      8  C   UNL     1       6.758   4.415  17.383  0.00  0.00    +0.000 A 
ATOM      9  C   UNL     1       6.837   4.807  16.048  0.00  0.00    +0.000 A 
ATOM     10  C   UNL     1       5.760   5.457  15.442  0.00  0.00    +0.000 A 
ATOM     11  C   UNL     1       4.598   5.725  16.167  0.00  0.00    +0.000 A 
ATOM     12  C   UNL     1       4.510   5.357  17.514  0.00  0.00    +0.000 A 
ATOM     13  N   UNL     1       3.276   5.488  18.221  0.00  0.00    +0.000 N 
ATOM     14  C   UNL     1       2.605   6.709  18.407  0.00  0.00    +0.000 C 
ATOM     15  O   UNL     1       1.526   6.764  19.007  0.00  0.00    +0.000 OA
ATOM     16  H   UNL     1       5.157   5.112  19.989  0.00  0.00    +0.000 HD
ENDROOT
BRANCH  14  17
ATOM     17  C   UNL     1       3.272   7.997  17.889  0.00  0.00    +0.000 C 
BRANCH  17  18
ATOM     18  O   UNL     1       2.349   8.897  17.262  0.00  0.00    +0.000 OA
BRANCH  18  19
ATOM     19  C   UNL     1       2.217  10.124  17.828  0.00  0.00    +0.000 C 
ATOM     20  O   UNL     1       2.892  11.106  17.540  0.00  0.00    +0.000 OA
BRANCH  19  21
ATOM     21  C   UNL     1       1.041  10.152  18.803  0.00  0.00    +0.000 C 
BRANCH  21  22
ATOM     22  N   UNL     1      -0.234  10.406  18.144  0.00  0.00    +0.000 N 
ATOM     23  C   UNL     1      -1.355  10.740  18.879  0.00  0.00    +0.000 C 
ATOM     24  O   UNL     1      -1.351  10.820  20.100  0.00  0.00    +0.000 OA
ATOM     25  H   UNL     1      -0.254  10.419  17.135  0.00  0.00    +0.000 HD
BRANCH  23  26
ATOM     26  C   UNL     1      -2.602  11.049  18.122  0.00  0.00    +0.000 A 
ATOM     27  C   UNL     1      -3.691  11.713  18.703  0.00  0.00    +0.000 A 
ATOM     28  C   UNL     1      -4.832  11.993  17.940  0.00  0.00    +0.000 A 
ATOM     29  C   UNL     1      -4.885  11.615  16.600  0.00  0.00    +0.000 A 
ATOM     30  C   UNL     1      -3.797  10.969  16.024  0.00  0.00    +0.000 A 
ATOM     31  F   UNL     1      -3.849  10.613  14.736  0.00  0.00    +0.000 F 
ATOM     32  C   UNL     1      -2.656  10.687  16.771  0.00  0.00    +0.000 A 
ENDBRANCH  23  26
ENDBRANCH  21  22
ENDBRANCH  19  21
ENDBRANCH  18  19
ENDBRANCH  17  18
ENDBRANCH  14  17
TORSDOF 6
ENDMDL
MODEL 7
REMARK VINA RESULT:      -7.7      3.413      5.169
REMARK  Name = 
REMARK  7 active torsions:
REMARK  status: ('A' for Active; 'I' for Inactive)
REMARK    1  A    between atoms: C_1  and  C_2
REMARK    2  A    between atoms: C_14  and  C_16
REMARK    3  A    between atoms: C_16  and  O_17
REMARK    4  A    between atoms: O_17  and  C_18
REMARK    5  A    between atoms: C_18  and  C_20
REMARK    6  A    between atoms: C_20  and  N_21
REMARK    7  A    between atoms: C_22  and  C_24
REMARK                            x       y       z     vdW  Elec       q    Type
REMARK                         _______ _______ _______ _____ _____    ______ ____
ROOT
ATOM      1  C   UNL     1       4.799   6.685  16.141  0.00  0.00    +0.000 C 
ATOM      2  C   UNL     1       4.499   5.183  15.976  0.00  0.00    +0.000 C 
ATOM      3  C   UNL     1       5.278   4.570  14.802  0.00  0.00    +0.000 C 
ATOM      4  C   UNL     1       6.770   4.617  15.054  0.00  0.00    +0.000 C 
ATOM      5  O   UNL     1       7.527   5.372  14.454  0.00  0.00    +0.000 OA
ATOM      6  N   UNL     1       7.161   3.777  16.093  0.00  0.00    +0.000 N 
ATOM      7  C   UNL     1       7.104   4.408  17.365  0.00  0.00    +0.000 A 
ATOM      8  C   UNL     1       8.295   4.753  17.999  0.00  0.00    +0.000 A 
ATOM      9  C   UNL     1       8.253   5.336  19.264  0.00  0.00    +0.000 A 
ATOM     10  C   UNL     1       7.026   5.582  19.884  0.00  0.00    +0.000 A 
ATOM     11  C   UNL     1       5.833   5.242  19.245  0.00  0.00    +0.000 A 
ATOM     12  C   UNL     1       5.858   4.637  17.984  0.00  0.00    +0.000 A 
ATOM     13  N   UNL     1       4.646   4.425  17.258  0.00  0.00    +0.000 N 
ATOM     14  C   UNL     1       3.580   3.638  17.725  0.00  0.00    +0.000 C 
ATOM     15  O   UNL     1       2.542   3.506  17.067  0.00  0.00    +0.000 OA
ATOM     16  H   UNL     1       6.506   2.999  16.113  0.00  0.00    +0.000 HD
ENDROOT
BRANCH  14  17
ATOM     17  C   UNL     1       3.753   2.891  19.061  0.00  0.00    +0.000 C 
BRANCH  17  18
ATOM     18  O   UNL     1       3.293   3.646  20.191  0.00  0.00    +0.000 OA
BRANCH  18  19
ATOM     19  C   UNL     1       2.184   4.407  20.002  0.00  0.00    +0.000 C 
ATOM     20  O   UNL     1       1.032   4.025  20.178  0.00  0.00    +0.000 OA
BRANCH  19  21
ATOM     21  C   UNL     1       2.562   5.842  19.641  0.00  0.00    +0.000 C 
BRANCH  21  22
ATOM     22  N   UNL     1       1.860   6.832  20.448  0.00  0.00    +0.000 N 
ATOM     23  C   UNL     1       1.630   8.105  19.963  0.00  0.00    +0.000 C 
ATOM     24  O   UNL     1       2.012   8.477  18.861  0.00  0.00    +0.000 OA
ATOM     25  H   UNL     1       1.469   6.537  21.330  0.00  0.00    +0.000 HD
BRANCH  23  26
ATOM     26  C   UNL     1       0.847   9.035  20.826  0.00  0.00    +0.000 A 
ATOM     27  C   UNL     1       0.101  10.101  20.303  0.00  0.00    +0.000 A 
ATOM     28  C   UNL     1      -0.631  10.933  21.159  0.00  0.00    +0.000 A 
ATOM     29  C   UNL     1      -0.622  10.702  22.534  0.00  0.00    +0.000 A 
ATOM     30  C   UNL     1       0.108   9.635  23.046  0.00  0.00    +0.000 A 
ATOM     31  F   UNL     1       0.109   9.412  24.365  0.00  0.00    +0.000 F 
ATOM     32  C   UNL     1       0.837   8.799  22.205  0.00  0.00    +0.000 A 
ENDBRANCH  23  26
ENDBRANCH  21  22
ENDBRANCH  19  21
ENDBRANCH  18  19
ENDBRANCH  17  18
ENDBRANCH  14  17
TORSDOF 6
ENDMDL
MODEL 8
REMARK VINA RESULT:      -7.7      3.363      4.659
REMARK  Name = 
REMARK  7 active torsions:
REMARK  status: ('A' for Active; 'I' for Inactive)
REMARK    1  A    between atoms: C_1  and  C_2
REMARK    2  A    between atoms: C_14  and  C_16
REMARK    3  A    between atoms: C_16  and  O_17
REMARK    4  A    between atoms: O_17  and  C_18
REMARK    5  A    between atoms: C_18  and  C_20
REMARK    6  A    between atoms: C_20  and  N_21
REMARK    7  A    between atoms: C_22  and  C_24
REMARK                            x       y       z     vdW  Elec       q    Type
REMARK                         _______ _______ _______ _____ _____    ______ ____
ROOT
ATOM      1  C   UNL     1       5.475   4.589  19.217  0.00  0.00    +0.000 C 
ATOM      2  C   UNL     1       4.891   5.141  17.903  0.00  0.00    +0.000 C 
ATOM      3  C   UNL     1       4.820   4.061  16.812  0.00  0.00    +0.000 C 
ATOM      4  C   UNL     1       3.861   2.956  17.201  0.00  0.00    +0.000 C 
ATOM      5  O   UNL     1       4.230   1.833  17.526  0.00  0.00    +0.000 OA
ATOM      6  N   UNL     1       2.537   3.385  17.230  0.00  0.00    +0.000 N 
ATOM      7  C   UNL     1       2.157   3.919  18.490  0.00  0.00    +0.000 A 
ATOM      8  C   UNL     1       1.303   3.178  19.305  0.00  0.00    +0.000 A 
ATOM      9  C   UNL     1       0.892   3.708  20.526  0.00  0.00    +0.000 A 
ATOM     10  C   UNL     1       1.340   4.966  20.932  0.00  0.00    +0.000 A 
ATOM     11  C   UNL     1       2.201   5.705  20.119  0.00  0.00    +0.000 A 
ATOM     12  C   UNL     1       2.607   5.197  18.881  0.00  0.00    +0.000 A 
ATOM     13  N   UNL     1       3.603   5.873  18.111  0.00  0.00    +0.000 N 
ATOM     14  C   UNL     1       3.468   7.189  17.639  0.00  0.00    +0.000 C 
ATOM     15  O   UNL     1       4.371   7.737  16.997  0.00  0.00    +0.000 OA
ATOM     16  H   UNL     1       2.448   4.134  16.546  0.00  0.00    +0.000 HD
ENDROOT
BRANCH  14  17
ATOM     17  C   UNL     1       2.139   7.925  17.893  0.00  0.00    +0.000 C 
BRANCH  17  18
ATOM     18  O   UNL     1       2.153   9.285  17.438  0.00  0.00    +0.000 OA
BRANCH  18  19
ATOM     19  C   UNL     1       1.859  10.238  18.361  0.00  0.00    +0.000 C 
ATOM     20  O   UNL     1       2.084  11.436  18.229  0.00  0.00    +0.000 OA
BRANCH  19  21
ATOM     21  C   UNL     1       1.113   9.634  19.549  0.00  0.00    +0.000 C 
BRANCH  21  22
ATOM     22  N   UNL     1       0.235  10.590  20.210  0.00  0.00    +0.000 N 
ATOM     23  C   UNL     1       0.260  10.741  21.584  0.00  0.00    +0.000 C 
ATOM     24  O   UNL     1       0.989  10.081  22.312  0.00  0.00    +0.000 OA
ATOM     25  H   UNL     1      -0.325  11.200  19.634  0.00  0.00    +0.000 HD
BRANCH  23  26
ATOM     26  C   UNL     1      -0.622  11.788  22.173  0.00  0.00    +0.000 A 
ATOM     27  C   UNL     1      -1.750  11.476  22.945  0.00  0.00    +0.000 A 
ATOM     28  C   UNL     1      -2.535  12.501  23.489  0.00  0.00    +0.000 A 
ATOM     29  C   UNL     1      -2.195  13.834  23.267  0.00  0.00    +0.000 A 
ATOM     30  C   UNL     1      -1.068  14.138  22.511  0.00  0.00    +0.000 A 
ATOM     31  F   UNL     1      -0.740  15.418  22.305  0.00  0.00    +0.000 F 
ATOM     32  C   UNL     1      -0.278  13.129  21.968  0.00  0.00    +0.000 A 
ENDBRANCH  23  26
ENDBRANCH  21  22
ENDBRANCH  19  21
ENDBRANCH  18  19
ENDBRANCH  17  18
ENDBRANCH  14  17
TORSDOF 6
ENDMDL
MODEL 9
REMARK VINA RESULT:      -7.7      0.979      1.294
REMARK  Name = 
REMARK  7 active torsions:
REMARK  status: ('A' for Active; 'I' for Inactive)
REMARK    1  A    between atoms: C_1  and  C_2
REMARK    2  A    between atoms: C_14  and  C_16
REMARK    3  A    between atoms: C_16  and  O_17
REMARK    4  A    between atoms: O_17  and  C_18
REMARK    5  A    between atoms: C_18  and  C_20
REMARK    6  A    between atoms: C_20  and  N_21
REMARK    7  A    between atoms: C_22  and  C_24
REMARK                            x       y       z     vdW  Elec       q    Type
REMARK                         _______ _______ _______ _____ _____    ______ ____
ROOT
ATOM      1  C   UNL     1       1.817   3.226  17.300  0.00  0.00    +0.000 C 
ATOM      2  C   UNL     1       1.920   3.442  18.822  0.00  0.00    +0.000 C 
ATOM      3  C   UNL     1       2.562   2.237  19.528  0.00  0.00    +0.000 C 
ATOM      4  C   UNL     1       3.999   2.051  19.089  0.00  0.00    +0.000 C 
ATOM      5  O   UNL     1       4.365   1.132  18.365  0.00  0.00    +0.000 OA
ATOM      6  N   UNL     1       4.827   3.082  19.527  0.00  0.00    +0.000 N 
ATOM      7  C   UNL     1       4.875   4.174  18.620  0.00  0.00    +0.000 A 
ATOM      8  C   UNL     1       6.032   4.374  17.869  0.00  0.00    +0.000 A 
ATOM      9  C   UNL     1       6.106   5.466  17.006  0.00  0.00    +0.000 A 
ATOM     10  C   UNL     1       5.027   6.342  16.887  0.00  0.00    +0.000 A 
ATOM     11  C   UNL     1       3.865   6.137  17.634  0.00  0.00    +0.000 A 
ATOM     12  C   UNL     1       3.782   5.059  18.521  0.00  0.00    +0.000 A 
ATOM     13  N   UNL     1       2.549   4.752  19.174  0.00  0.00    +0.000 N 
ATOM     14  C   UNL     1       1.875   5.638  20.031  0.00  0.00    +0.000 C 
ATOM     15  O   UNL     1       0.797   5.333  20.553  0.00  0.00    +0.000 OA
ATOM     16  H   UNL     1       4.436   3.431  20.399  0.00  0.00    +0.000 HD
ENDROOT
BRANCH  14  17
ATOM     17  C   UNL     1       2.537   6.992  20.353  0.00  0.00    +0.000 C 
BRANCH  17  18
ATOM     18  O   UNL     1       1.829   8.110  19.800  0.00  0.00    +0.000 OA
BRANCH  18  19
ATOM     19  C   UNL     1       1.100   8.857  20.669  0.00  0.00    +0.000 C 
ATOM     20  O   UNL     1       0.799   8.516  21.807  0.00  0.00    +0.000 OA
BRANCH  19  21
ATOM     21  C   UNL     1       0.788  10.230  20.078  0.00  0.00    +0.000 C 
BRANCH  21  22
ATOM     22  N   UNL     1      -0.465  10.254  19.334  0.00  0.00    +0.000 N 
ATOM     23  C   UNL     1      -0.999  11.448  18.886  0.00  0.00    +0.000 C 
ATOM     24  O   UNL     1      -0.475  12.533  19.100  0.00  0.00    +0.000 OA
ATOM     25  H   UNL     1      -0.884   9.373  19.079  0.00  0.00    +0.000 HD
BRANCH  23  26
ATOM     26  C   UNL     1      -2.248  11.377  18.077  0.00  0.00    +0.000 A 
ATOM     27  C   UNL     1      -3.511  11.669  18.612  0.00  0.00    +0.000 A 
ATOM     28  C   UNL     1      -4.651  11.602  17.801  0.00  0.00    +0.000 A 
ATOM     29  C   UNL     1      -4.533  11.250  16.458  0.00  0.00    +0.000 A 
ATOM     30  C   UNL     1      -3.277  10.974  15.928  0.00  0.00    +0.000 A 
ATOM     31  F   UNL     1      -3.166  10.642  14.638  0.00  0.00    +0.000 F 
ATOM     32  C   UNL     1      -2.136  11.040  16.723  0.00  0.00    +0.000 A 
ENDBRANCH  23  26
ENDBRANCH  21  22
ENDBRANCH  19  21
ENDBRANCH  18  19
ENDBRANCH  17  18
ENDBRANCH  14  17
TORSDOF 6
ENDMDL
