MODEL 1
REMARK VINA RESULT:      -7.3      0.000      0.000
REMARK  Name = 
REMARK  9 active torsions:
REMARK  status: ('A' for Active; 'I' for Inactive)
REMARK    1  A    between atoms: C_1  and  C_2
REMARK    2  A    between atoms: C_2  and  C_3
REMARK    3  A    between atoms: C_2  and  C_4
REMARK    4  A    between atoms: C_4  and  O_5
REMARK    5  A    between atoms: O_5  and  C_6
REMARK    6  A    between atoms: C_6  and  C_7
REMARK    7  A    between atoms: C_7  and  N_8
REMARK    8  A    between atoms: C_7  and  C_17
REMARK    9  A    between atoms: C_9  and  C_11
REMARK                            x       y       z     vdW  Elec       q    Type
REMARK                         _______ _______ _______ _____ _____    ______ ____
ROOT
ATOM      1  C   UNL     1       5.162   5.403  18.150  0.00  0.00    +0.000 C 
ENDROOT
BRANCH   1   2
ATOM      2  C   UNL     1       4.010   6.352  18.209  0.00  0.00    +0.000 A 
ATOM      3  C   UNL     1       3.632   7.414  17.409  0.00  0.00    +0.000 A 
ATOM      4  C   UNL     1       2.544   8.044  18.061  0.00  0.00    +0.000 A 
ATOM      5  C   UNL     1       2.308   7.315  19.202  0.00  0.00    +0.000 A 
ATOM      6  O   UNL     1       3.189   6.287  19.304  0.00  0.00    +0.000 OA
ENDBRANCH   1   2
BRANCH   1   7
ATOM      7  N   UNL     1       5.424   5.019  16.770  0.00  0.00    +0.000 N 
ATOM      8  C   UNL     1       6.545   5.450  16.086  0.00  0.00    +0.000 C 
ATOM      9  O   UNL     1       7.384   6.207  16.576  0.00  0.00    +0.000 OA
ATOM     10  H   UNL     1       4.854   4.309  16.326  0.00  0.00    +0.000 HD
BRANCH   8  11
ATOM     11  C   UNL     1       6.706   4.950  14.687  0.00  0.00    +0.000 A 
ATOM     12  C   UNL     1       5.849   3.955  14.222  0.00  0.00    +0.000 A 
ATOM     13  C   UNL     1       6.003   3.504  12.914  0.00  0.00    +0.000 A 
ATOM     14  C   UNL     1       7.004   4.056  12.122  0.00  0.00    +0.000 A 
ATOM     15  C   UNL     1       7.817   5.036  12.672  0.00  0.00    +0.000 A 
ATOM     16  N   UNL     1       7.698   5.504  13.938  0.00  0.00    +0.000 NA
ENDBRANCH   8  11
ENDBRANCH   1   7
BRANCH   1  17
ATOM     17  C   UNL     1       4.886   4.203  19.066  0.00  0.00    +0.000 C 
BRANCH  17  18
ATOM     18  O   UNL     1       4.291   3.126  18.339  0.00  0.00    +0.000 OA
BRANCH  18  19
ATOM     19  C   UNL     1       3.564   2.257  19.204  0.00  0.00    +0.000 C 
BRANCH  19  21
ATOM     20  C   UNL     1       1.104   2.711  19.109  0.00  0.00    +0.000 C 
ATOM     21  C   UNL     1       2.407   3.035  19.831  0.00  0.00    +0.000 C 
ATOM     22  C   UNL     1       2.287   2.736  21.327  0.00  0.00    +0.000 C 
ENDBRANCH  19  21
ENDBRANCH  18  19
ENDBRANCH  17  18
ENDBRANCH   1  17
TORSDOF 7
ENDMDL
MODEL 2
REMARK VINA RESULT:      -7.2      2.074      6.515
REMARK  Name = 
REMARK  9 active torsions:
REMARK  status: ('A' for Active; 'I' for Inactive)
REMARK    1  A    between atoms: C_1  and  C_2
REMARK    2  A    between atoms: C_2  and  C_3
REMARK    3  A    between atoms: C_2  and  C_4
REMARK    4  A    between atoms: C_4  and  O_5
REMARK    5  A    between atoms: O_5  and  C_6
REMARK    6  A    between atoms: C_6  and  C_7
REMARK    7  A    between atoms: C_7  and  N_8
REMARK    8  A    between atoms: C_7  and  C_17
REMARK    9  A    between atoms: C_9  and  C_11
REMARK                            x       y       z     vdW  Elec       q    Type
REMARK                         _______ _______ _______ _____ _____    ______ ____
ROOT
ATOM      1  C   UNL     1       5.445   4.960  16.339  0.00  0.00    +0.000 C 
ENDROOT
BRANCH   1   2
ATOM      2  C   UNL     1       6.479   5.799  17.014  0.00  0.00    +0.000 A 
ATOM      3  C   UNL     1       7.312   5.568  18.093  0.00  0.00    +0.000 A 
ATOM      4  C   UNL     1       7.956   6.796  18.378  0.00  0.00    +0.000 A 
ATOM      5  C   UNL     1       7.500   7.693  17.441  0.00  0.00    +0.000 A 
ATOM      6  O   UNL     1       6.604   7.101  16.609  0.00  0.00    +0.000 OA
ENDBRANCH   1   2
BRANCH   1   7
ATOM      7  N   UNL     1       4.565   4.355  17.329  0.00  0.00    +0.000 N 
ATOM      8  C   UNL     1       3.506   5.042  17.889  0.00  0.00    +0.000 C 
ATOM      9  O   UNL     1       3.243   6.214  17.620  0.00  0.00    +0.000 OA
ATOM     10  H   UNL     1       4.632   3.364  17.526  0.00  0.00    +0.000 HD
BRANCH   8  11
ATOM     11  C   UNL     1       2.663   4.287  18.867  0.00  0.00    +0.000 A 
ATOM     12  C   UNL     1       1.610   3.507  18.391  0.00  0.00    +0.000 A 
ATOM     13  C   UNL     1       0.839   2.802  19.310  0.00  0.00    +0.000 A 
ATOM     14  C   UNL     1       1.141   2.900  20.663  0.00  0.00    +0.000 A 
ATOM     15  C   UNL     1       2.203   3.708  21.047  0.00  0.00    +0.000 A 
ATOM     16  N   UNL     1       2.979   4.408  20.185  0.00  0.00    +0.000 NA
ENDBRANCH   8  11
ENDBRANCH   1   7
BRANCH   1  17
ATOM     17  C   UNL     1       6.132   3.928  15.433  0.00  0.00    +0.000 C 
BRANCH  17  18
ATOM     18  O   UNL     1       5.538   3.908  14.134  0.00  0.00    +0.000 OA
BRANCH  18  19
ATOM     19  C   UNL     1       6.530   3.833  13.113  0.00  0.00    +0.000 C 
BRANCH  19  21
ATOM     20  C   UNL     1       6.216   1.845  11.625  0.00  0.00    +0.000 C 
ATOM     21  C   UNL     1       5.881   3.319  11.827  0.00  0.00    +0.000 C 
ATOM     22  C   UNL     1       4.366   3.533  11.848  0.00  0.00    +0.000 C 
ENDBRANCH  19  21
ENDBRANCH  18  19
ENDBRANCH  17  18
ENDBRANCH   1  17
TORSDOF 7
ENDMDL
MODEL 3
REMARK VINA RESULT:      -7.2      2.148      6.380
REMARK  Name = 
REMARK  9 active torsions:
REMARK  status: ('A' for Active; 'I' for Inactive)
REMARK    1  A    between atoms: C_1  and  C_2
REMARK    2  A    between atoms: C_2  and  C_3
REMARK    3  A    between atoms: C_2  and  C_4
REMARK    4  A    between atoms: C_4  and  O_5
REMARK    5  A    between atoms: O_5  and  C_6
REMARK    6  A    between atoms: C_6  and  C_7
REMARK    7  A    between atoms: C_7  and  N_8
REMARK    8  A    between atoms: C_7  and  C_17
REMARK    9  A    between atoms: C_9  and  C_11
REMARK                            x       y       z     vdW  Elec       q    Type
REMARK                         _______ _______ _______ _____ _____    ______ ____
ROOT
ATOM      1  C   UNL     1       5.703   4.942  16.561  0.00  0.00    +0.000 C 
ENDROOT
BRANCH   1   2
ATOM      2  C   UNL     1       6.605   5.701  17.478  0.00  0.00    +0.000 A 
ATOM      3  C   UNL     1       7.235   6.926  17.367  0.00  0.00    +0.000 A 
ATOM      4  C   UNL     1       8.097   7.040  18.484  0.00  0.00    +0.000 A 
ATOM      5  C   UNL     1       7.921   5.894  19.221  0.00  0.00    +0.000 A 
ATOM      6  O   UNL     1       7.020   5.074  18.622  0.00  0.00    +0.000 OA
ENDBRANCH   1   2
BRANCH   1   7
ATOM      7  N   UNL     1       4.622   4.327  17.317  0.00  0.00    +0.000 N 
ATOM      8  C   UNL     1       3.544   5.053  17.785  0.00  0.00    +0.000 C 
ATOM      9  O   UNL     1       3.428   6.269  17.625  0.00  0.00    +0.000 OA
ATOM     10  H   UNL     1       4.571   3.318  17.397  0.00  0.00    +0.000 HD
BRANCH   8  11
ATOM     11  C   UNL     1       2.489   4.287  18.516  0.00  0.00    +0.000 A 
ATOM     12  C   UNL     1       2.073   3.057  18.009  0.00  0.00    +0.000 A 
ATOM     13  C   UNL     1       1.097   2.348  18.703  0.00  0.00    +0.000 A 
ATOM     14  C   UNL     1       0.571   2.889  19.871  0.00  0.00    +0.000 A 
ATOM     15  C   UNL     1       1.039   4.124  20.297  0.00  0.00    +0.000 A 
ATOM     16  N   UNL     1       1.988   4.844  19.652  0.00  0.00    +0.000 NA
ENDBRANCH   8  11
ENDBRANCH   1   7
BRANCH   1  17
ATOM     17  C   UNL     1       6.526   3.928  15.754  0.00  0.00    +0.000 C 
BRANCH  17  18
ATOM     18  O   UNL     1       6.648   4.335  14.389  0.00  0.00    +0.000 OA
BRANCH  18  19
ATOM     19  C   UNL     1       5.428   4.134  13.679  0.00  0.00    +0.000 C 
BRANCH  19  21
ATOM     20  C   UNL     1       4.503   3.282  11.514  0.00  0.00    +0.000 C 
ATOM     21  C   UNL     1       5.706   3.266  12.452  0.00  0.00    +0.000 C 
ATOM     22  C   UNL     1       6.969   3.727  11.722  0.00  0.00    +0.000 C 
ENDBRANCH  19  21
ENDBRANCH  18  19
ENDBRANCH  17  18
ENDBRANCH   1  17
TORSDOF 7
ENDMDL
MODEL 4
REMARK VINA RESULT:      -7.1      2.084      6.438
REMARK  Name = 
REMARK  9 active torsions:
REMARK  status: ('A' for Active; 'I' for Inactive)
REMARK    1  A    between atoms: C_1  and  C_2
REMARK    2  A    between atoms: C_2  and  C_3
REMARK    3  A    between atoms: C_2  and  C_4
REMARK    4  A    between atoms: C_4  and  O_5
REMARK    5  A    between atoms: O_5  and  C_6
REMARK    6  A    between atoms: C_6  and  C_7
REMARK    7  A    between atoms: C_7  and  N_8
REMARK    8  A    between atoms: C_7  and  C_17
REMARK    9  A    between atoms: C_9  and  C_11
REMARK                            x       y       z     vdW  Elec       q    Type
REMARK                         _______ _______ _______ _____ _____    ______ ____
ROOT
ATOM      1  C   UNL     1       5.859   5.508  16.318  0.00  0.00    +0.000 C 
ENDROOT
BRANCH   1   2
ATOM      2  C   UNL     1       6.849   6.289  17.119  0.00  0.00    +0.000 A 
ATOM      3  C   UNL     1       7.556   6.000  18.270  0.00  0.00    +0.000 A 
ATOM      4  C   UNL     1       8.213   7.194  18.653  0.00  0.00    +0.000 A 
ATOM      5  C   UNL     1       7.889   8.130  17.700  0.00  0.00    +0.000 A 
ATOM      6  O   UNL     1       7.063   7.595  16.765  0.00  0.00    +0.000 OA
ENDBRANCH   1   2
BRANCH   1   7
ATOM      7  N   UNL     1       4.826   4.966  17.189  0.00  0.00    +0.000 N 
ATOM      8  C   UNL     1       3.761   5.727  17.632  0.00  0.00    +0.000 C 
ATOM      9  O   UNL     1       3.620   6.918  17.350  0.00  0.00    +0.000 OA
ATOM     10  H   UNL     1       4.795   3.971  17.377  0.00  0.00    +0.000 HD
BRANCH   8  11
ATOM     11  C   UNL     1       2.756   5.032  18.492  0.00  0.00    +0.000 A 
ATOM     12  C   UNL     1       2.508   5.522  19.773  0.00  0.00    +0.000 A 
ATOM     13  C   UNL     1       1.563   4.873  20.561  0.00  0.00    +0.000 A 
ATOM     14  C   UNL     1       0.904   3.761  20.048  0.00  0.00    +0.000 A 
ATOM     15  C   UNL     1       1.221   3.338  18.765  0.00  0.00    +0.000 A 
ATOM     16  N   UNL     1       2.132   3.944  17.966  0.00  0.00    +0.000 NA
ENDBRANCH   8  11
ENDBRANCH   1   7
BRANCH   1  17
ATOM     17  C   UNL     1       6.590   4.429  15.508  0.00  0.00    +0.000 C 
BRANCH  17  18
ATOM     18  O   UNL     1       6.420   4.636  14.104  0.00  0.00    +0.000 OA
BRANCH  18  19
ATOM     19  C   UNL     1       5.362   3.833  13.588  0.00  0.00    +0.000 C 
BRANCH  19  21
ATOM     20  C   UNL     1       6.708   2.646  11.843  0.00  0.00    +0.000 C 
ATOM     21  C   UNL     1       5.574   3.637  12.087  0.00  0.00    +0.000 C 
ATOM     22  C   UNL     1       4.288   3.168  11.402  0.00  0.00    +0.000 C 
ENDBRANCH  19  21
ENDBRANCH  18  19
ENDBRANCH  17  18
ENDBRANCH   1  17
TORSDOF 7
ENDMDL
MODEL 5
REMARK VINA RESULT:      -7.0      2.092      6.167
REMARK  Name = 
REMARK  9 active torsions:
REMARK  status: ('A' for Active; 'I' for Inactive)
REMARK    1  A    between atoms: C_1  and  C_2
REMARK    2  A    between atoms: C_2  and  C_3
REMARK    3  A    between atoms: C_2  and  C_4
REMARK    4  A    between atoms: C_4  and  O_5
REMARK    5  A    between atoms: O_5  and  C_6
REMARK    6  A    between atoms: C_6  and  C_7
REMARK    7  A    between atoms: C_7  and  N_8
REMARK    8  A    between atoms: C_7  and  C_17
REMARK    9  A    between atoms: C_9  and  C_11
REMARK                            x       y       z     vdW  Elec       q    Type
REMARK                         _______ _______ _______ _____ _____    ______ ____
ROOT
ATOM      1  C   UNL     1       6.050   5.446  16.121  0.00  0.00    +0.000 C 
ENDROOT
BRANCH   1   2
ATOM      2  C   UNL     1       6.850   6.129  17.181  0.00  0.00    +0.000 A 
ATOM      3  C   UNL     1       7.410   7.390  17.263  0.00  0.00    +0.000 A 
ATOM      4  C   UNL     1       8.198   7.407  18.440  0.00  0.00    +0.000 A 
ATOM      5  C   UNL     1       8.049   6.169  19.017  0.00  0.00    +0.000 A 
ATOM      6  O   UNL     1       7.235   5.385  18.265  0.00  0.00    +0.000 OA
ENDBRANCH   1   2
BRANCH   1   7
ATOM      7  N   UNL     1       5.096   4.528  16.726  0.00  0.00    +0.000 N 
ATOM      8  C   UNL     1       3.932   4.967  17.328  0.00  0.00    +0.000 C 
ATOM      9  O   UNL     1       3.629   6.157  17.423  0.00  0.00    +0.000 OA
ATOM     10  H   UNL     1       5.202   3.529  16.595  0.00  0.00    +0.000 HD
BRANCH   8  11
ATOM     11  C   UNL     1       3.026   3.913  17.877  0.00  0.00    +0.000 A 
ATOM     12  C   UNL     1       1.690   4.228  18.118  0.00  0.00    +0.000 A 
ATOM     13  C   UNL     1       0.854   3.235  18.621  0.00  0.00    +0.000 A 
ATOM     14  C   UNL     1       1.377   1.971  18.867  0.00  0.00    +0.000 A 
ATOM     15  C   UNL     1       2.722   1.750  18.605  0.00  0.00    +0.000 A 
ATOM     16  N   UNL     1       3.568   2.687  18.114  0.00  0.00    +0.000 NA
ENDBRANCH   8  11
ENDBRANCH   1   7
BRANCH   1  17
ATOM     17  C   UNL     1       6.996   4.760  15.125  0.00  0.00    +0.000 C 
BRANCH  17  18
ATOM     18  O   UNL     1       6.318   3.739  14.391  0.00  0.00    +0.000 OA
BRANCH  18  19
ATOM     19  C   UNL     1       6.423   3.956  12.986  0.00  0.00    +0.000 C 
BRANCH  19  21
ATOM     20  C   UNL     1       4.512   3.306  11.506  0.00  0.00    +0.000 C 
ATOM     21  C   UNL     1       5.741   2.800  12.253  0.00  0.00    +0.000 C 
ATOM     22  C   UNL     1       6.711   2.104  11.295  0.00  0.00    +0.000 C 
ENDBRANCH  19  21
ENDBRANCH  18  19
ENDBRANCH  17  18
ENDBRANCH   1  17
TORSDOF 7
ENDMDL
MODEL 6
REMARK VINA RESULT:      -7.0      2.074      6.311
REMARK  Name = 
REMARK  9 active torsions:
REMARK  status: ('A' for Active; 'I' for Inactive)
REMARK    1  A    between atoms: C_1  and  C_2
REMARK    2  A    between atoms: C_2  and  C_3
REMARK    3  A    between atoms: C_2  and  C_4
REMARK    4  A    between atoms: C_4  and  O_5
REMARK    5  A    between atoms: O_5  and  C_6
REMARK    6  A    between atoms: C_6  and  C_7
REMARK    7  A    between atoms: C_7  and  N_8
REMARK    8  A    between atoms: C_7  and  C_17
REMARK    9  A    between atoms: C_9  and  C_11
REMARK                            x       y       z     vdW  Elec       q    Type
REMARK                         _______ _______ _______ _____ _____    ______ ____
ROOT
ATOM      1  C   UNL     1       5.839   5.189  15.763  0.00  0.00    +0.000 C 
ENDROOT
BRANCH   1   2
ATOM      2  C   UNL     1       6.737   5.899  16.723  0.00  0.00    +0.000 A 
ATOM      3  C   UNL     1       7.402   5.485  17.862  0.00  0.00    +0.000 A 
ATOM      4  C   UNL     1       7.963   6.646  18.447  0.00  0.00    +0.000 A 
ATOM      5  C   UNL     1       7.629   7.691  17.619  0.00  0.00    +0.000 A 
ATOM      6  O   UNL     1       6.886   7.252  16.571  0.00  0.00    +0.000 OA
ENDBRANCH   1   2
BRANCH   1   7
ATOM      7  N   UNL     1       4.904   4.340  16.486  0.00  0.00    +0.000 N 
ATOM      8  C   UNL     1       3.865   4.859  17.235  0.00  0.00    +0.000 C 
ATOM      9  O   UNL     1       3.669   6.068  17.371  0.00  0.00    +0.000 OA
ATOM     10  H   UNL     1       4.914   3.337  16.341  0.00  0.00    +0.000 HD
BRANCH   8  11
ATOM     11  C   UNL     1       2.959   3.871  17.896  0.00  0.00    +0.000 A 
ATOM     12  C   UNL     1       3.498   2.683  18.386  0.00  0.00    +0.000 A 
ATOM     13  C   UNL     1       2.647   1.774  19.008  0.00  0.00    +0.000 A 
ATOM     14  C   UNL     1       1.295   2.080  19.116  0.00  0.00    +0.000 A 
ATOM     15  C   UNL     1       0.845   3.283  18.591  0.00  0.00    +0.000 A 
ATOM     16  N   UNL     1       1.640   4.194  17.981  0.00  0.00    +0.000 NA
ENDBRANCH   8  11
ENDBRANCH   1   7
BRANCH   1  17
ATOM     17  C   UNL     1       6.687   4.418  14.742  0.00  0.00    +0.000 C 
BRANCH  17  18
ATOM     18  O   UNL     1       5.874   3.897  13.688  0.00  0.00    +0.000 OA
BRANCH  18  19
ATOM     19  C   UNL     1       6.636   3.691  12.501  0.00  0.00    +0.000 C 
BRANCH  19  21
ATOM     20  C   UNL     1       5.993   1.509  11.457  0.00  0.00    +0.000 C 
ATOM     21  C   UNL     1       5.751   3.015  11.454  0.00  0.00    +0.000 C 
ATOM     22  C   UNL     1       4.272   3.327  11.695  0.00  0.00    +0.000 C 
ENDBRANCH  19  21
ENDBRANCH  18  19
ENDBRANCH  17  18
ENDBRANCH   1  17
TORSDOF 7
ENDMDL
MODEL 7
REMARK VINA RESULT:      -7.0      2.138      6.438
REMARK  Name = 
REMARK  9 active torsions:
REMARK  status: ('A' for Active; 'I' for Inactive)
REMARK    1  A    between atoms: C_1  and  C_2
REMARK    2  A    between atoms: C_2  and  C_3
REMARK    3  A    between atoms: C_2  and  C_4
REMARK    4  A    between atoms: C_4  and  O_5
REMARK    5  A    between atoms: O_5  and  C_6
REMARK    6  A    between atoms: C_6  and  C_7
REMARK    7  A    between atoms: C_7  and  N_8
REMARK    8  A    between atoms: C_7  and  C_17
REMARK    9  A    between atoms: C_9  and  C_11
REMARK                            x       y       z     vdW  Elec       q    Type
REMARK                         _______ _______ _______ _____ _____    ______ ____
ROOT
ATOM      1  C   UNL     1       4.870   6.779  16.790  0.00  0.00    +0.000 C 
ENDROOT
BRANCH   1   2
ATOM      2  C   UNL     1       6.221   6.833  17.424  0.00  0.00    +0.000 A 
ATOM      3  C   UNL     1       6.865   6.005  18.324  0.00  0.00    +0.000 A 
ATOM      4  C   UNL     1       8.065   6.661  18.690  0.00  0.00    +0.000 A 
ATOM      5  C   UNL     1       8.094   7.833  17.974  0.00  0.00    +0.000 A 
ATOM      6  O   UNL     1       6.982   7.950  17.203  0.00  0.00    +0.000 OA
ENDBRANCH   1   2
BRANCH   1   7
ATOM      7  N   UNL     1       4.053   5.761  17.436  0.00  0.00    +0.000 N 
ATOM      8  C   UNL     1       2.983   6.083  18.248  0.00  0.00    +0.000 C 
ATOM      9  O   UNL     1       2.657   7.241  18.508  0.00  0.00    +0.000 OA
ATOM     10  H   UNL     1       4.172   4.786  17.189  0.00  0.00    +0.000 HD
BRANCH   8  11
ATOM     11  C   UNL     1       2.210   4.937  18.818  0.00  0.00    +0.000 A 
ATOM     12  C   UNL     1       1.902   4.939  20.177  0.00  0.00    +0.000 A 
ATOM     13  C   UNL     1       1.174   3.871  20.694  0.00  0.00    +0.000 A 
ATOM     14  C   UNL     1       0.783   2.844  19.843  0.00  0.00    +0.000 A 
ATOM     15  C   UNL     1       1.142   2.922  18.505  0.00  0.00    +0.000 A 
ATOM     16  N   UNL     1       1.846   3.943  17.962  0.00  0.00    +0.000 NA
ENDBRANCH   8  11
ENDBRANCH   1   7
BRANCH   1  17
ATOM     17  C   UNL     1       5.020   6.559  15.278  0.00  0.00    +0.000 C 
BRANCH  17  18
ATOM     18  O   UNL     1       6.087   5.651  14.994  0.00  0.00    +0.000 OA
BRANCH  18  19
ATOM     19  C   UNL     1       5.590   4.405  14.511  0.00  0.00    +0.000 C 
BRANCH  19  21
ATOM     20  C   UNL     1       5.717   3.335  12.252  0.00  0.00    +0.000 C 
ATOM     21  C   UNL     1       6.527   3.886  13.420  0.00  0.00    +0.000 C 
ATOM     22  C   UNL     1       7.485   4.982  12.947  0.00  0.00    +0.000 C 
ENDBRANCH  19  21
ENDBRANCH  18  19
ENDBRANCH  17  18
ENDBRANCH   1  17
TORSDOF 7
ENDMDL
MODEL 8
REMARK VINA RESULT:      -7.0      0.971      1.095
REMARK  Name = 
REMARK  9 active torsions:
REMARK  status: ('A' for Active; 'I' for Inactive)
REMARK    1  A    between atoms: C_1  and  C_2
REMARK    2  A    between atoms: C_2  and  C_3
REMARK    3  A    between atoms: C_2  and  C_4
REMARK    4  A    between atoms: C_4  and  O_5
REMARK    5  A    between atoms: O_5  and  C_6
REMARK    6  A    between atoms: C_6  and  C_7
REMARK    7  A    between atoms: C_7  and  N_8
REMARK    8  A    between atoms: C_7  and  C_17
REMARK    9  A    between atoms: C_9  and  C_11
REMARK                            x       y       z     vdW  Elec       q    Type
REMARK                         _______ _______ _______ _____ _____    ______ ____
ROOT
ATOM      1  C   UNL     1       5.010   4.536  17.762  0.00  0.00    +0.000 C 
ENDROOT
BRANCH   1   2
ATOM      2  C   UNL     1       4.008   5.627  17.953  0.00  0.00    +0.000 A 
ATOM      3  C   UNL     1       2.662   5.615  18.264  0.00  0.00    +0.000 A 
ATOM      4  C   UNL     1       2.207   6.950  18.143  0.00  0.00    +0.000 A 
ATOM      5  C   UNL     1       3.305   7.698  17.792  0.00  0.00    +0.000 A 
ATOM      6  O   UNL     1       4.403   6.908  17.674  0.00  0.00    +0.000 OA
ENDBRANCH   1   2
BRANCH   1   7
ATOM      7  N   UNL     1       5.377   4.434  16.357  0.00  0.00    +0.000 N 
ATOM      8  C   UNL     1       6.560   4.952  15.865  0.00  0.00    +0.000 C 
ATOM      9  O   UNL     1       7.373   5.559  16.563  0.00  0.00    +0.000 OA
ATOM     10  H   UNL     1       4.830   3.853  15.732  0.00  0.00    +0.000 HD
BRANCH   8  11
ATOM     11  C   UNL     1       6.825   4.744  14.409  0.00  0.00    +0.000 A 
ATOM     12  C   UNL     1       6.090   3.783  13.718  0.00  0.00    +0.000 A 
ATOM     13  C   UNL     1       6.339   3.604  12.361  0.00  0.00    +0.000 A 
ATOM     14  C   UNL     1       7.310   4.384  11.743  0.00  0.00    +0.000 A 
ATOM     15  C   UNL     1       8.000   5.311  12.512  0.00  0.00    +0.000 A 
ATOM     16  N   UNL     1       7.786   5.517  13.833  0.00  0.00    +0.000 NA
ENDBRANCH   8  11
ENDBRANCH   1   7
BRANCH   1  17
ATOM     17  C   UNL     1       4.458   3.224  18.337  0.00  0.00    +0.000 C 
BRANCH  17  18
ATOM     18  O   UNL     1       4.815   3.076  19.713  0.00  0.00    +0.000 OA
BRANCH  18  19
ATOM     19  C   UNL     1       3.869   2.266  20.407  0.00  0.00    +0.000 C 
BRANCH  19  21
ATOM     20  C   UNL     1       1.476   2.134  19.685  0.00  0.00    +0.000 C 
ATOM     21  C   UNL     1       2.516   2.979  20.413  0.00  0.00    +0.000 C 
ATOM     22  C   UNL     1       2.061   3.288  21.841  0.00  0.00    +0.000 C 
ENDBRANCH  19  21
ENDBRANCH  18  19
ENDBRANCH  17  18
ENDBRANCH   1  17
TORSDOF 7
ENDMDL
MODEL 9
REMARK VINA RESULT:      -6.9      2.080      6.373
REMARK  Name = 
REMARK  9 active torsions:
REMARK  status: ('A' for Active; 'I' for Inactive)
REMARK    1  A    between atoms: C_1  and  C_2
REMARK    2  A    between atoms: C_2  and  C_3
REMARK    3  A    between atoms: C_2  and  C_4
REMARK    4  A    between atoms: C_4  and  O_5
REMARK    5  A    between atoms: O_5  and  C_6
REMARK    6  A    between atoms: C_6  and  C_7
REMARK    7  A    between atoms: C_7  and  N_8
REMARK    8  A    between atoms: C_7  and  C_17
REMARK    9  A    between atoms: C_9  and  C_11
REMARK                            x       y       z     vdW  Elec       q    Type
REMARK                         _______ _______ _______ _____ _____    ______ ____
ROOT
ATOM      1  C   UNL     1       5.094   6.327  16.580  0.00  0.00    +0.000 C 
ENDROOT
BRANCH   1   2
ATOM      2  C   UNL     1       6.280   6.637  17.433  0.00  0.00    +0.000 A 
ATOM      3  C   UNL     1       7.195   7.673  17.422  0.00  0.00    +0.000 A 
ATOM      4  C   UNL     1       8.197   7.339  18.365  0.00  0.00    +0.000 A 
ATOM      5  C   UNL     1       7.820   6.136  18.913  0.00  0.00    +0.000 A 
ATOM      6  O   UNL     1       6.661   5.699  18.356  0.00  0.00    +0.000 OA
ENDBRANCH   1   2
BRANCH   1   7
ATOM      7  N   UNL     1       4.196   5.420  17.280  0.00  0.00    +0.000 N 
ATOM      8  C   UNL     1       3.130   5.875  18.032  0.00  0.00    +0.000 C 
ATOM      9  O   UNL     1       2.876   7.070  18.189  0.00  0.00    +0.000 OA
ATOM     10  H   UNL     1       4.255   4.423  17.116  0.00  0.00    +0.000 HD
BRANCH   8  11
ATOM     11  C   UNL     1       2.268   4.832  18.668  0.00  0.00    +0.000 A 
ATOM     12  C   UNL     1       1.905   3.711  17.925  0.00  0.00    +0.000 A 
ATOM     13  C   UNL     1       1.110   2.742  18.531  0.00  0.00    +0.000 A 
ATOM     14  C   UNL     1       0.706   2.926  19.848  0.00  0.00    +0.000 A 
ATOM     15  C   UNL     1       1.108   4.079  20.508  0.00  0.00    +0.000 A 
ATOM     16  N   UNL     1       1.883   5.043  19.956  0.00  0.00    +0.000 NA
ENDBRANCH   8  11
ENDBRANCH   1   7
BRANCH   1  17
ATOM     17  C   UNL     1       5.566   5.780  15.225  0.00  0.00    +0.000 C 
BRANCH  17  18
ATOM     18  O   UNL     1       5.265   4.388  15.100  0.00  0.00    +0.000 OA
BRANCH  18  19
ATOM     19  C   UNL     1       6.252   3.714  14.323  0.00  0.00    +0.000 C 
BRANCH  19  21
ATOM     20  C   UNL     1       7.369   4.556  12.247  0.00  0.00    +0.000 C 
ATOM     21  C   UNL     1       6.054   4.073  12.850  0.00  0.00    +0.000 C 
ATOM     22  C   UNL     1       5.499   2.885  12.061  0.00  0.00    +0.000 C 
ENDBRANCH  19  21
ENDBRANCH  18  19
ENDBRANCH  17  18
ENDBRANCH   1  17
TORSDOF 7
ENDMDL
