MODEL 1
REMARK VINA RESULT:      -9.0      0.000      0.000
REMARK  Name = 
REMARK  4 active torsions:
REMARK  status: ('A' for Active; 'I' for Inactive)
REMARK    1  A    between atoms: C_1  and  O_2
REMARK    2  A    between atoms: O_2  and  C_3
REMARK    3  A    between atoms: C_6  and  C_7
REMARK    4  A    between atoms: N_12  and  C_13
REMARK                            x       y       z     vdW  Elec       q    Type
REMARK                         _______ _______ _______ _____ _____    ______ ____
ROOT
ATOM      1  C   UNL     1       4.088   4.277  19.443  0.00  0.00    +0.000 C 
ATOM      2  S   UNL     1       4.087   2.478  19.674  0.00  0.00    +0.000 S 
ATOM      3  C   UNL     1       2.390   2.461  20.270  0.00  0.00    +0.000 C 
ATOM      4  C   UNL     1       1.811   3.837  20.028  0.00  0.00    +0.000 C 
ATOM      5  O   UNL     1       0.677   4.139  20.390  0.00  0.00    +0.000 OA
ATOM      6  N   UNL     1       2.693   4.676  19.336  0.00  0.00    +0.000 N 
ENDROOT
BRANCH   6   7
ATOM      7  C   UNL     1       2.405   6.061  19.277  0.00  0.00    +0.000 A 
ATOM      8  C   UNL     1       2.539   6.786  18.084  0.00  0.00    +0.000 A 
ATOM      9  C   UNL     1       2.142   8.123  18.037  0.00  0.00    +0.000 A 
ATOM     10  C   UNL     1       1.654   8.722  19.194  0.00  0.00    +0.000 A 
ATOM     11  O   UNL     1       1.121  10.018  19.083  0.00  0.00    +0.000 OA
ATOM     12  C   UNL     1       0.441  10.567  20.164  0.00  0.00    +0.000 A 
ATOM     13  O   UNL     1      -0.347  11.498  20.048  0.00  0.00    +0.000 OA
ATOM     14  C   UNL     1       0.762  10.007  21.489  0.00  0.00    +0.000 A 
ATOM     15  C   UNL     1       1.305   8.793  21.615  0.00  0.00    +0.000 A 
ATOM     16  C   UNL     1       1.636   8.046  20.414  0.00  0.00    +0.000 A 
ATOM     17  C   UNL     1       1.982   6.698  20.449  0.00  0.00    +0.000 A 
ENDBRANCH   6   7
BRANCH   1  21
ATOM     18  C   UNL     1       6.787   5.377  16.220  0.00  0.00    +0.000 A 
ATOM     19  C   UNL     1       5.682   4.566  15.964  0.00  0.00    +0.000 A 
ATOM     20  C   UNL     1       4.783   4.232  16.985  0.00  0.00    +0.000 A 
ATOM     21  C   UNL     1       4.982   4.688  18.295  0.00  0.00    +0.000 A 
ATOM     22  C   UNL     1       6.097   5.522  18.542  0.00  0.00    +0.000 A 
ATOM     23  C   UNL     1       6.991   5.859  17.512  0.00  0.00    +0.000 A 
BRANCH  18  25
ATOM     24  C   UNL     1       7.268   4.911  13.946  0.00  0.00    +0.000 C 
ATOM     25  O   UNL     1       7.605   5.594  15.147  0.00  0.00    +0.000 OA
ENDBRANCH  18  25
ENDBRANCH   1  21
TORSDOF 3
ENDMDL
MODEL 2
REMARK VINA RESULT:      -8.9      1.418      6.730
REMARK  Name = 
REMARK  4 active torsions:
REMARK  status: ('A' for Active; 'I' for Inactive)
REMARK    1  A    between atoms: C_1  and  O_2
REMARK    2  A    between atoms: O_2  and  C_3
REMARK    3  A    between atoms: C_6  and  C_7
REMARK    4  A    between atoms: N_12  and  C_13
REMARK                            x       y       z     vdW  Elec       q    Type
REMARK                         _______ _______ _______ _____ _____    ______ ____
ROOT
ATOM      1  C   UNL     1       2.453   4.698  19.468  0.00  0.00    +0.000 C 
ATOM      2  S   UNL     1       1.608   3.799  20.798  0.00  0.00    +0.000 S 
ATOM      3  C   UNL     1       2.904   2.558  20.911  0.00  0.00    +0.000 C 
ATOM      4  C   UNL     1       4.067   3.039  20.073  0.00  0.00    +0.000 C 
ATOM      5  O   UNL     1       5.080   2.363  19.916  0.00  0.00    +0.000 OA
ATOM      6  N   UNL     1       3.857   4.320  19.549  0.00  0.00    +0.000 N 
ENDROOT
BRANCH   6   7
ATOM      7  C   UNL     1       4.725   4.788  18.533  0.00  0.00    +0.000 A 
ATOM      8  C   UNL     1       5.784   5.660  18.821  0.00  0.00    +0.000 A 
ATOM      9  C   UNL     1       6.685   6.013  17.816  0.00  0.00    +0.000 A 
ATOM     10  C   UNL     1       6.488   5.518  16.531  0.00  0.00    +0.000 A 
ATOM     11  O   UNL     1       7.489   5.764  15.575  0.00  0.00    +0.000 OA
ATOM     12  C   UNL     1       7.429   5.116  14.347  0.00  0.00    +0.000 A 
ATOM     13  O   UNL     1       8.406   4.981  13.619  0.00  0.00    +0.000 OA
ATOM     14  C   UNL     1       6.099   4.644  13.923  0.00  0.00    +0.000 A 
ATOM     15  C   UNL     1       5.121   4.441  14.810  0.00  0.00    +0.000 A 
ATOM     16  C   UNL     1       5.367   4.753  16.207  0.00  0.00    +0.000 A 
ATOM     17  C   UNL     1       4.498   4.359  17.221  0.00  0.00    +0.000 A 
ENDBRANCH   6   7
BRANCH   1  21
ATOM     18  C   UNL     1       1.498   8.936  19.535  0.00  0.00    +0.000 A 
ATOM     19  C   UNL     1       1.370   8.170  20.693  0.00  0.00    +0.000 A 
ATOM     20  C   UNL     1       1.707   6.811  20.696  0.00  0.00    +0.000 A 
ATOM     21  C   UNL     1       2.165   6.181  19.531  0.00  0.00    +0.000 A 
ATOM     22  C   UNL     1       2.306   6.970  18.366  0.00  0.00    +0.000 A 
ATOM     23  C   UNL     1       1.972   8.334  18.371  0.00  0.00    +0.000 A 
BRANCH  18  25
ATOM     24  C   UNL     1      -0.305  10.467  19.696  0.00  0.00    +0.000 C 
ATOM     25  O   UNL     1       1.097  10.238  19.657  0.00  0.00    +0.000 OA
ENDBRANCH  18  25
ENDBRANCH   1  21
TORSDOF 3
ENDMDL
MODEL 3
REMARK VINA RESULT:      -8.0      1.457      2.347
REMARK  Name = 
REMARK  4 active torsions:
REMARK  status: ('A' for Active; 'I' for Inactive)
REMARK    1  A    between atoms: C_1  and  O_2
REMARK    2  A    between atoms: O_2  and  C_3
REMARK    3  A    between atoms: C_6  and  C_7
REMARK    4  A    between atoms: N_12  and  C_13
REMARK                            x       y       z     vdW  Elec       q    Type
REMARK                         _______ _______ _______ _____ _____    ______ ____
ROOT
ATOM      1  C   UNL     1       4.143   4.113  19.248  0.00  0.00    +0.000 C 
ATOM      2  S   UNL     1       4.400   2.377  18.787  0.00  0.00    +0.000 S 
ATOM      3  C   UNL     1       2.643   1.999  18.863  0.00  0.00    +0.000 C 
ATOM      4  C   UNL     1       1.903   3.311  19.004  0.00  0.00    +0.000 C 
ATOM      5  O   UNL     1       0.683   3.359  19.137  0.00  0.00    +0.000 OA
ATOM      6  N   UNL     1       2.756   4.418  18.931  0.00  0.00    +0.000 N 
ENDROOT
BRANCH   6   7
ATOM      7  C   UNL     1       2.256   5.686  19.314  0.00  0.00    +0.000 A 
ATOM      8  C   UNL     1       1.842   5.941  20.629  0.00  0.00    +0.000 A 
ATOM      9  C   UNL     1       1.457   7.231  20.997  0.00  0.00    +0.000 A 
ATOM     10  C   UNL     1       1.457   8.234  20.033  0.00  0.00    +0.000 A 
ATOM     11  O   UNL     1       1.214   9.552  20.461  0.00  0.00    +0.000 OA
ATOM     12  C   UNL     1       1.409  10.601  19.571  0.00  0.00    +0.000 A 
ATOM     13  O   UNL     1       1.576  11.759  19.937  0.00  0.00    +0.000 OA
ATOM     14  C   UNL     1       1.343  10.262  18.138  0.00  0.00    +0.000 A 
ATOM     15  C   UNL     1       1.532   9.010  17.713  0.00  0.00    +0.000 A 
ATOM     16  C   UNL     1       1.747   7.962  18.696  0.00  0.00    +0.000 A 
ATOM     17  C   UNL     1       2.179   6.688  18.341  0.00  0.00    +0.000 A 
ENDBRANCH   6   7
BRANCH   1  21
ATOM     18  C   UNL     1       7.002   6.826  17.419  0.00  0.00    +0.000 A 
ATOM     19  C   UNL     1       7.231   6.325  18.700  0.00  0.00    +0.000 A 
ATOM     20  C   UNL     1       6.337   5.422  19.289  0.00  0.00    +0.000 A 
ATOM     21  C   UNL     1       5.179   5.013  18.613  0.00  0.00    +0.000 A 
ATOM     22  C   UNL     1       4.963   5.516  17.309  0.00  0.00    +0.000 A 
ATOM     23  C   UNL     1       5.867   6.416  16.722  0.00  0.00    +0.000 A 
BRANCH  18  25
ATOM     24  C   UNL     1       8.171   8.850  17.819  0.00  0.00    +0.000 C 
ATOM     25  O   UNL     1       7.930   7.729  16.978  0.00  0.00    +0.000 OA
ENDBRANCH  18  25
ENDBRANCH   1  21
TORSDOF 3
ENDMDL
MODEL 4
REMARK VINA RESULT:      -7.9      1.848      2.479
REMARK  Name = 
REMARK  4 active torsions:
REMARK  status: ('A' for Active; 'I' for Inactive)
REMARK    1  A    between atoms: C_1  and  O_2
REMARK    2  A    between atoms: O_2  and  C_3
REMARK    3  A    between atoms: C_6  and  C_7
REMARK    4  A    between atoms: N_12  and  C_13
REMARK                            x       y       z     vdW  Elec       q    Type
REMARK                         _______ _______ _______ _____ _____    ______ ____
ROOT
ATOM      1  C   UNL     1       4.171   4.456  18.492  0.00  0.00    +0.000 C 
ATOM      2  S   UNL     1       4.462   2.941  17.539  0.00  0.00    +0.000 S 
ATOM      3  C   UNL     1       2.704   2.591  17.379  0.00  0.00    +0.000 C 
ATOM      4  C   UNL     1       1.954   3.810  17.868  0.00  0.00    +0.000 C 
ATOM      5  O   UNL     1       0.728   3.838  17.929  0.00  0.00    +0.000 OA
ATOM      6  N   UNL     1       2.808   4.871  18.194  0.00  0.00    +0.000 N 
ENDROOT
BRANCH   6   7
ATOM      7  C   UNL     1       2.279   5.969  18.915  0.00  0.00    +0.000 A 
ATOM      8  C   UNL     1       1.975   5.869  20.280  0.00  0.00    +0.000 A 
ATOM      9  C   UNL     1       1.559   7.001  20.982  0.00  0.00    +0.000 A 
ATOM     10  C   UNL     1       1.420   8.204  20.298  0.00  0.00    +0.000 A 
ATOM     11  O   UNL     1       1.149   9.359  21.054  0.00  0.00    +0.000 OA
ATOM     12  C   UNL     1       1.207  10.603  20.437  0.00  0.00    +0.000 A 
ATOM     13  O   UNL     1       1.347  11.647  21.063  0.00  0.00    +0.000 OA
ATOM     14  C   UNL     1       1.028  10.615  18.975  0.00  0.00    +0.000 A 
ATOM     15  C   UNL     1       1.242   9.520  18.242  0.00  0.00    +0.000 A 
ATOM     16  C   UNL     1       1.599   8.284  18.917  0.00  0.00    +0.000 A 
ATOM     17  C   UNL     1       2.063   7.167  18.227  0.00  0.00    +0.000 A 
ENDBRANCH   6   7
BRANCH   1  21
ATOM     18  C   UNL     1       7.361   7.296  17.697  0.00  0.00    +0.000 A 
ATOM     19  C   UNL     1       6.157   7.382  17.000  0.00  0.00    +0.000 A 
ATOM     20  C   UNL     1       5.106   6.495  17.270  0.00  0.00    +0.000 A 
ATOM     21  C   UNL     1       5.245   5.489  18.235  0.00  0.00    +0.000 A 
ATOM     22  C   UNL     1       6.465   5.419  18.946  0.00  0.00    +0.000 A 
ATOM     23  C   UNL     1       7.512   6.315  18.676  0.00  0.00    +0.000 A 
BRANCH  18  25
ATOM     24  C   UNL     1       8.451   9.361  18.111  0.00  0.00    +0.000 C 
ATOM     25  O   UNL     1       8.318   8.194  17.310  0.00  0.00    +0.000 OA
ENDBRANCH  18  25
ENDBRANCH   1  21
TORSDOF 3
ENDMDL
MODEL 5
REMARK VINA RESULT:      -7.8      1.872      2.346
REMARK  Name = 
REMARK  4 active torsions:
REMARK  status: ('A' for Active; 'I' for Inactive)
REMARK    1  A    between atoms: C_1  and  O_2
REMARK    2  A    between atoms: O_2  and  C_3
REMARK    3  A    between atoms: C_6  and  C_7
REMARK    4  A    between atoms: N_12  and  C_13
REMARK                            x       y       z     vdW  Elec       q    Type
REMARK                         _______ _______ _______ _____ _____    ______ ____
ROOT
ATOM      1  C   UNL     1       4.177   4.737  18.560  0.00  0.00    +0.000 C 
ATOM      2  S   UNL     1       4.395   3.062  17.897  0.00  0.00    +0.000 S 
ATOM      3  C   UNL     1       2.664   2.921  17.429  0.00  0.00    +0.000 C 
ATOM      4  C   UNL     1       2.039   4.288  17.586  0.00  0.00    +0.000 C 
ATOM      5  O   UNL     1       0.842   4.483  17.391  0.00  0.00    +0.000 OA
ATOM      6  N   UNL     1       2.974   5.269  17.937  0.00  0.00    +0.000 N 
ENDROOT
BRANCH   6   7
ATOM      7  C   UNL     1       2.503   6.528  18.381  0.00  0.00    +0.000 A 
ATOM      8  C   UNL     1       2.327   7.598  17.493  0.00  0.00    +0.000 A 
ATOM      9  C   UNL     1       1.758   8.789  17.946  0.00  0.00    +0.000 A 
ATOM     10  C   UNL     1       1.409   8.901  19.287  0.00  0.00    +0.000 A 
ATOM     11  O   UNL     1       0.699  10.048  19.685  0.00  0.00    +0.000 OA
ATOM     12  C   UNL     1       0.156  10.102  20.963  0.00  0.00    +0.000 A 
ATOM     13  O   UNL     1      -0.754  10.864  21.265  0.00  0.00    +0.000 OA
ATOM     14  C   UNL     1       0.777   9.227  21.973  0.00  0.00    +0.000 A 
ATOM     15  C   UNL     1       1.487   8.153  21.616  0.00  0.00    +0.000 A 
ATOM     16  C   UNL     1       1.695   7.888  20.203  0.00  0.00    +0.000 A 
ATOM     17  C   UNL     1       2.215   6.683  19.741  0.00  0.00    +0.000 A 
ENDBRANCH   6   7
BRANCH   1  21
ATOM     18  C   UNL     1       7.683   7.263  18.110  0.00  0.00    +0.000 A 
ATOM     19  C   UNL     1       7.628   6.315  19.131  0.00  0.00    +0.000 A 
ATOM     20  C   UNL     1       6.520   5.470  19.268  0.00  0.00    +0.000 A 
ATOM     21  C   UNL     1       5.430   5.567  18.393  0.00  0.00    +0.000 A 
ATOM     22  C   UNL     1       5.501   6.522  17.352  0.00  0.00    +0.000 A 
ATOM     23  C   UNL     1       6.618   7.362  17.217  0.00  0.00    +0.000 A 
BRANCH  18  25
ATOM     24  C   UNL     1       8.595   9.440  18.340  0.00  0.00    +0.000 C 
ATOM     25  O   UNL     1       8.801   8.051  18.113  0.00  0.00    +0.000 OA
ENDBRANCH  18  25
ENDBRANCH   1  21
TORSDOF 3
ENDMDL
MODEL 6
REMARK VINA RESULT:      -7.5      1.266      1.747
REMARK  Name = 
REMARK  4 active torsions:
REMARK  status: ('A' for Active; 'I' for Inactive)
REMARK    1  A    between atoms: C_1  and  O_2
REMARK    2  A    between atoms: O_2  and  C_3
REMARK    3  A    between atoms: C_6  and  C_7
REMARK    4  A    between atoms: N_12  and  C_13
REMARK                            x       y       z     vdW  Elec       q    Type
REMARK                         _______ _______ _______ _____ _____    ______ ____
ROOT
ATOM      1  C   UNL     1       4.136   4.617  19.609  0.00  0.00    +0.000 C 
ATOM      2  S   UNL     1       4.313   2.816  19.479  0.00  0.00    +0.000 S 
ATOM      3  C   UNL     1       2.539   2.540  19.575  0.00  0.00    +0.000 C 
ATOM      4  C   UNL     1       1.863   3.887  19.454  0.00  0.00    +0.000 C 
ATOM      5  O   UNL     1       0.645   4.015  19.543  0.00  0.00    +0.000 OA
ATOM      6  N   UNL     1       2.772   4.922  19.203  0.00  0.00    +0.000 N 
ENDROOT
BRANCH   6   7
ATOM      7  C   UNL     1       2.328   6.260  19.336  0.00  0.00    +0.000 A 
ATOM      8  C   UNL     1       2.280   7.127  18.235  0.00  0.00    +0.000 A 
ATOM      9  C   UNL     1       1.735   8.403  18.380  0.00  0.00    +0.000 A 
ATOM     10  C   UNL     1       1.282   8.803  19.633  0.00  0.00    +0.000 A 
ATOM     11  O   UNL     1       0.601  10.030  19.720  0.00  0.00    +0.000 OA
ATOM     12  C   UNL     1      -0.043  10.366  20.905  0.00  0.00    +0.000 A 
ATOM     13  O   UNL     1      -0.936  11.203  20.960  0.00  0.00    +0.000 OA
ATOM     14  C   UNL     1       0.447   9.701  22.126  0.00  0.00    +0.000 A 
ATOM     15  C   UNL     1       1.130   8.555  22.063  0.00  0.00    +0.000 A 
ATOM     16  C   UNL     1       1.441   7.996  20.759  0.00  0.00    +0.000 A 
ATOM     17  C   UNL     1       1.937   6.704  20.603  0.00  0.00    +0.000 A 
ENDBRANCH   6   7
BRANCH   1  21
ATOM     18  C   UNL     1       7.174   6.830  17.428  0.00  0.00    +0.000 A 
ATOM     19  C   UNL     1       7.453   6.317  18.694  0.00  0.00    +0.000 A 
ATOM     20  C   UNL     1       6.496   5.572  19.395  0.00  0.00    +0.000 A 
ATOM     21  C   UNL     1       5.227   5.338  18.849  0.00  0.00    +0.000 A 
ATOM     22  C   UNL     1       4.958   5.849  17.558  0.00  0.00    +0.000 A 
ATOM     23  C   UNL     1       5.924   6.590  16.858  0.00  0.00    +0.000 A 
BRANCH  18  25
ATOM     24  C   UNL     1       8.424   8.844  17.457  0.00  0.00    +0.000 C 
ATOM     25  O   UNL     1       8.178   7.572  16.871  0.00  0.00    +0.000 OA
ENDBRANCH  18  25
ENDBRANCH   1  21
TORSDOF 3
ENDMDL
MODEL 7
REMARK VINA RESULT:      -7.5      4.290      8.080
REMARK  Name = 
REMARK  4 active torsions:
REMARK  status: ('A' for Active; 'I' for Inactive)
REMARK    1  A    between atoms: C_1  and  O_2
REMARK    2  A    between atoms: O_2  and  C_3
REMARK    3  A    between atoms: C_6  and  C_7
REMARK    4  A    between atoms: N_12  and  C_13
REMARK                            x       y       z     vdW  Elec       q    Type
REMARK                         _______ _______ _______ _____ _____    ______ ____
ROOT
ATOM      1  C   UNL     1      -1.213  11.132  19.817  0.00  0.00    +0.000 C 
ATOM      2  S   UNL     1      -1.761  12.703  20.541  0.00  0.00    +0.000 S 
ATOM      3  C   UNL     1      -0.171  13.004  21.327  0.00  0.00    +0.000 C 
ATOM      4  C   UNL     1       0.802  11.982  20.785  0.00  0.00    +0.000 C 
ATOM      5  O   UNL     1       1.960  11.908  21.188  0.00  0.00    +0.000 OA
ATOM      6  N   UNL     1       0.241  11.185  19.780  0.00  0.00    +0.000 N 
ENDROOT
BRANCH   6   7
ATOM      7  C   UNL     1       0.933  10.020  19.372  0.00  0.00    +0.000 A 
ATOM      8  C   UNL     1       1.584   9.952  18.132  0.00  0.00    +0.000 A 
ATOM      9  C   UNL     1       2.347   8.829  17.811  0.00  0.00    +0.000 A 
ATOM     10  C   UNL     1       2.416   7.778  18.719  0.00  0.00    +0.000 A 
ATOM     11  O   UNL     1       3.310   6.729  18.440  0.00  0.00    +0.000 OA
ATOM     12  C   UNL     1       3.558   5.771  19.415  0.00  0.00    +0.000 A 
ATOM     13  O   UNL     1       4.555   5.059  19.407  0.00  0.00    +0.000 OA
ATOM     14  C   UNL     1       2.517   5.604  20.445  0.00  0.00    +0.000 A 
ATOM     15  C   UNL     1       1.633   6.572  20.700  0.00  0.00    +0.000 A 
ATOM     16  C   UNL     1       1.671   7.783  19.899  0.00  0.00    +0.000 A 
ATOM     17  C   UNL     1       0.952   8.924  20.242  0.00  0.00    +0.000 A 
ENDBRANCH   6   7
BRANCH   1  21
ATOM     18  C   UNL     1      -3.331  10.362  16.102  0.00  0.00    +0.000 A 
ATOM     19  C   UNL     1      -2.555  11.512  16.241  0.00  0.00    +0.000 A 
ATOM     20  C   UNL     1      -1.838  11.757  17.420  0.00  0.00    +0.000 A 
ATOM     21  C   UNL     1      -1.898  10.861  18.496  0.00  0.00    +0.000 A 
ATOM     22  C   UNL     1      -2.677   9.691  18.340  0.00  0.00    +0.000 A 
ATOM     23  C   UNL     1      -3.387   9.449  17.154  0.00  0.00    +0.000 A 
BRANCH  18  25
ATOM     24  C   UNL     1      -3.231   9.990  13.763  0.00  0.00    +0.000 C 
ATOM     25  O   UNL     1      -4.011  10.264  14.920  0.00  0.00    +0.000 OA
ENDBRANCH  18  25
ENDBRANCH   1  21
TORSDOF 3
ENDMDL
MODEL 8
REMARK VINA RESULT:      -7.4      1.967      6.083
REMARK  Name = 
REMARK  4 active torsions:
REMARK  status: ('A' for Active; 'I' for Inactive)
REMARK    1  A    between atoms: C_1  and  O_2
REMARK    2  A    between atoms: O_2  and  C_3
REMARK    3  A    between atoms: C_6  and  C_7
REMARK    4  A    between atoms: N_12  and  C_13
REMARK                            x       y       z     vdW  Elec       q    Type
REMARK                         _______ _______ _______ _____ _____    ______ ____
ROOT
ATOM      1  C   UNL     1       1.926   4.082  18.407  0.00  0.00    +0.000 C 
ATOM      2  S   UNL     1       0.793   2.790  18.989  0.00  0.00    +0.000 S 
ATOM      3  C   UNL     1       1.951   1.469  18.603  0.00  0.00    +0.000 C 
ATOM      4  C   UNL     1       3.276   2.113  18.265  0.00  0.00    +0.000 C 
ATOM      5  O   UNL     1       4.247   1.453  17.903  0.00  0.00    +0.000 OA
ATOM      6  N   UNL     1       3.260   3.502  18.444  0.00  0.00    +0.000 N 
ENDROOT
BRANCH   6   7
ATOM      7  C   UNL     1       4.327   4.266  17.914  0.00  0.00    +0.000 A 
ATOM      8  C   UNL     1       4.443   4.504  16.538  0.00  0.00    +0.000 A 
ATOM      9  C   UNL     1       5.444   5.352  16.063  0.00  0.00    +0.000 A 
ATOM     10  C   UNL     1       6.336   5.916  16.970  0.00  0.00    +0.000 A 
ATOM     11  O   UNL     1       7.236   6.883  16.487  0.00  0.00    +0.000 OA
ATOM     12  C   UNL     1       7.996   7.614  17.391  0.00  0.00    +0.000 A 
ATOM     13  O   UNL     1       8.513   8.688  17.106  0.00  0.00    +0.000 OA
ATOM     14  C   UNL     1       8.207   7.000  18.714  0.00  0.00    +0.000 A 
ATOM     15  C   UNL     1       7.386   6.053  19.176  0.00  0.00    +0.000 A 
ATOM     16  C   UNL     1       6.305   5.586  18.324  0.00  0.00    +0.000 A 
ATOM     17  C   UNL     1       5.275   4.782  18.804  0.00  0.00    +0.000 A 
ENDBRANCH   6   7
BRANCH   1  21
ATOM     18  C   UNL     1       1.527   7.726  20.740  0.00  0.00    +0.000 A 
ATOM     19  C   UNL     1       1.945   7.786  19.411  0.00  0.00    +0.000 A 
ATOM     20  C   UNL     1       2.045   6.624  18.636  0.00  0.00    +0.000 A 
ATOM     21  C   UNL     1       1.745   5.368  19.181  0.00  0.00    +0.000 A 
ATOM     22  C   UNL     1       1.308   5.319  20.525  0.00  0.00    +0.000 A 
ATOM     23  C   UNL     1       1.204   6.489  21.295  0.00  0.00    +0.000 A 
BRANCH  18  25
ATOM     24  C   UNL     1       0.727   9.957  20.809  0.00  0.00    +0.000 C 
ATOM     25  O   UNL     1       1.511   8.926  21.395  0.00  0.00    +0.000 OA
ENDBRANCH  18  25
ENDBRANCH   1  21
TORSDOF 3
ENDMDL
MODEL 9
REMARK VINA RESULT:      -7.2      4.231      8.362
REMARK  Name = 
REMARK  4 active torsions:
REMARK  status: ('A' for Active; 'I' for Inactive)
REMARK    1  A    between atoms: C_1  and  O_2
REMARK    2  A    between atoms: O_2  and  C_3
REMARK    3  A    between atoms: C_6  and  C_7
REMARK    4  A    between atoms: N_12  and  C_13
REMARK                            x       y       z     vdW  Elec       q    Type
REMARK                         _______ _______ _______ _____ _____    ______ ____
ROOT
ATOM      1  C   UNL     1      -1.186  11.899  20.060  0.00  0.00    +0.000 C 
ATOM      2  S   UNL     1      -1.513  13.678  20.195  0.00  0.00    +0.000 S 
ATOM      3  C   UNL     1       0.110  14.019  20.891  0.00  0.00    +0.000 C 
ATOM      4  C   UNL     1       0.934  12.758  20.759  0.00  0.00    +0.000 C 
ATOM      5  O   UNL     1       2.075  12.677  21.204  0.00  0.00    +0.000 OA
ATOM      6  N   UNL     1       0.262  11.749  20.059  0.00  0.00    +0.000 N 
ENDROOT
BRANCH   6   7
ATOM      7  C   UNL     1       0.789  10.435  20.091  0.00  0.00    +0.000 A 
ATOM      8  C   UNL     1       0.607   9.601  21.203  0.00  0.00    +0.000 A 
ATOM      9  C   UNL     1       1.045   8.277  21.156  0.00  0.00    +0.000 A 
ATOM     10  C   UNL     1       1.692   7.823  20.011  0.00  0.00    +0.000 A 
ATOM     11  O   UNL     1       1.986   6.450  19.928  0.00  0.00    +0.000 OA
ATOM     12  C   UNL     1       2.441   5.924  18.725  0.00  0.00    +0.000 A 
ATOM     13  O   UNL     1       2.374   4.731  18.455  0.00  0.00    +0.000 OA
ATOM     14  C   UNL     1       3.074   6.876  17.795  0.00  0.00    +0.000 A 
ATOM     15  C   UNL     1       2.839   8.188  17.880  0.00  0.00    +0.000 A 
ATOM     16  C   UNL     1       1.988   8.679  18.951  0.00  0.00    +0.000 A 
ATOM     17  C   UNL     1       1.506   9.984  18.977  0.00  0.00    +0.000 A 
ENDBRANCH   6   7
BRANCH   1  21
ATOM     18  C   UNL     1      -3.299  10.305  16.614  0.00  0.00    +0.000 A 
ATOM     19  C   UNL     1      -1.960   9.980  16.828  0.00  0.00    +0.000 A 
ATOM     20  C   UNL     1      -1.275  10.457  17.952  0.00  0.00    +0.000 A 
ATOM     21  C   UNL     1      -1.913  11.289  18.882  0.00  0.00    +0.000 A 
ATOM     22  C   UNL     1      -3.275  11.602  18.664  0.00  0.00    +0.000 A 
ATOM     23  C   UNL     1      -3.957  11.114  17.538  0.00  0.00    +0.000 A 
BRANCH  18  25
ATOM     24  C   UNL     1      -3.102  10.048  14.265  0.00  0.00    +0.000 C 
ATOM     25  O   UNL     1      -3.836   9.808  15.459  0.00  0.00    +0.000 OA
ENDBRANCH  18  25
ENDBRANCH   1  21
TORSDOF 3
ENDMDL
