MODEL 1
REMARK VINA RESULT:      -6.9      0.000      0.000
REMARK  Name = 
REMARK  6 active torsions:
REMARK  status: ('A' for Active; 'I' for Inactive)
REMARK    1  A    between atoms: C_1  and  C_2
REMARK    2  A    between atoms: C_2  and  O_3
REMARK    3  A    between atoms: O_3  and  C_4
REMARK    4  A    between atoms: N_10  and  C_11
REMARK    5  A    between atoms: C_11  and  C_12
REMARK    6  A    between atoms: C_16  and  C_17
REMARK                            x       y       z     vdW  Elec       q    Type
REMARK                         _______ _______ _______ _____ _____    ______ ____
ROOT
ATOM      1  C   UNL     1       2.424   4.810  19.893  0.00  0.00    +0.000 C 
ATOM      2  C   UNL     1       2.463   6.292  19.572  0.00  0.00    +0.000 C 
ATOM      3  O   UNL     1       3.749   6.535  18.993  0.00  0.00    +0.000 OA
ATOM      4  C   UNL     1       4.189   5.316  18.361  0.00  0.00    +0.000 C 
ATOM      5  C   UNL     1       5.568   4.973  18.933  0.00  0.00    +0.000 C 
ATOM      6  C   UNL     1       6.644   5.882  18.355  0.00  0.00    +0.000 C 
ATOM      7  N   UNL     1       6.666   5.864  16.882  0.00  0.00    +0.000 NA
ATOM      8  C   UNL     1       5.383   6.389  16.390  0.00  0.00    +0.000 C 
ATOM      9  C   UNL     1       4.186   5.556  16.844  0.00  0.00    +0.000 C 
ATOM     10  C   UNL     1       3.182   4.230  18.725  0.00  0.00    +0.000 C 
ENDROOT
BRANCH   1  11
ATOM     11  O   UNL     1       1.103   4.291  19.992  0.00  0.00    +0.000 OA
BRANCH  11  13
ATOM     12  C   UNL     1       1.591   2.610  21.712  0.00  0.00    +0.000 C 
ATOM     13  C   UNL     1       1.052   2.897  20.321  0.00  0.00    +0.000 C 
ENDBRANCH  11  13
ENDBRANCH   1  11
BRANCH   7  14
ATOM     14  C   UNL     1       6.960   4.540  16.300  0.00  0.00    +0.000 C 
BRANCH  14  15
ATOM     15  C   UNL     1       7.064   4.558  14.793  0.00  0.00    +0.000 A 
ATOM     16  C   UNL     1       8.021   5.351  14.141  0.00  0.00    +0.000 A 
ATOM     17  C   UNL     1       8.059   5.413  12.749  0.00  0.00    +0.000 A 
ATOM     18  C   UNL     1       7.145   4.676  11.996  0.00  0.00    +0.000 A 
ATOM     19  C   UNL     1       6.202   3.866  12.635  0.00  0.00    +0.000 A 
ATOM     20  C   UNL     1       6.162   3.805  14.027  0.00  0.00    +0.000 A 
BRANCH  19  21
ATOM     21  C   UNL     1       5.269   3.106  11.864  0.00  0.00    +0.000 C 
ATOM     22  N   UNL     1       4.510   2.492  11.232  0.00  0.00    +0.000 NA
ENDBRANCH  19  21
ENDBRANCH  14  15
ENDBRANCH   7  14
TORSDOF 5
ENDMDL
MODEL 2
REMARK VINA RESULT:      -6.9      2.872      6.860
REMARK  Name = 
REMARK  6 active torsions:
REMARK  status: ('A' for Active; 'I' for Inactive)
REMARK    1  A    between atoms: C_1  and  C_2
REMARK    2  A    between atoms: C_2  and  O_3
REMARK    3  A    between atoms: O_3  and  C_4
REMARK    4  A    between atoms: N_10  and  C_11
REMARK    5  A    between atoms: C_11  and  C_12
REMARK    6  A    between atoms: C_16  and  C_17
REMARK                            x       y       z     vdW  Elec       q    Type
REMARK                         _______ _______ _______ _____ _____    ______ ____
ROOT
ATOM      1  C   UNL     1       6.149   3.934  13.268  0.00  0.00    +0.000 C 
ATOM      2  C   UNL     1       7.102   5.109  13.389  0.00  0.00    +0.000 C 
ATOM      3  O   UNL     1       6.815   5.718  14.652  0.00  0.00    +0.000 OA
ATOM      4  C   UNL     1       6.294   4.699  15.529  0.00  0.00    +0.000 C 
ATOM      5  C   UNL     1       4.944   5.195  16.059  0.00  0.00    +0.000 C 
ATOM      6  C   UNL     1       5.133   6.274  17.118  0.00  0.00    +0.000 C 
ATOM      7  N   UNL     1       6.003   5.834  18.222  0.00  0.00    +0.000 NA
ATOM      8  C   UNL     1       7.343   5.558  17.679  0.00  0.00    +0.000 C 
ATOM      9  C   UNL     1       7.340   4.453  16.624  0.00  0.00    +0.000 C 
ATOM     10  C   UNL     1       6.100   3.439  14.691  0.00  0.00    +0.000 C 
ENDROOT
BRANCH   1  11
ATOM     11  O   UNL     1       6.603   2.935  12.363  0.00  0.00    +0.000 OA
BRANCH  11  13
ATOM     12  C   UNL     1       4.336   3.246  11.474  0.00  0.00    +0.000 C 
ATOM     13  C   UNL     1       5.556   2.348  11.577  0.00  0.00    +0.000 C 
ENDBRANCH  11  13
ENDBRANCH   1  11
BRANCH   7  14
ATOM     14  C   UNL     1       5.482   4.675  18.974  0.00  0.00    +0.000 C 
BRANCH  14  15
ATOM     15  C   UNL     1       4.003   4.768  19.266  0.00  0.00    +0.000 A 
ATOM     16  C   UNL     1       3.470   5.858  19.972  0.00  0.00    +0.000 A 
ATOM     17  C   UNL     1       2.114   5.896  20.296  0.00  0.00    +0.000 A 
ATOM     18  C   UNL     1       1.278   4.848  19.911  0.00  0.00    +0.000 A 
ATOM     19  C   UNL     1       1.795   3.768  19.190  0.00  0.00    +0.000 A 
ATOM     20  C   UNL     1       3.151   3.728  18.867  0.00  0.00    +0.000 A 
BRANCH  19  21
ATOM     21  C   UNL     1       0.939   2.697  18.790  0.00  0.00    +0.000 C 
ATOM     22  N   UNL     1       0.245   1.820  18.468  0.00  0.00    +0.000 NA
ENDBRANCH  19  21
ENDBRANCH  14  15
ENDBRANCH   7  14
TORSDOF 5
ENDMDL
MODEL 3
REMARK VINA RESULT:      -6.9      2.820      7.376
REMARK  Name = 
REMARK  6 active torsions:
REMARK  status: ('A' for Active; 'I' for Inactive)
REMARK    1  A    between atoms: C_1  and  C_2
REMARK    2  A    between atoms: C_2  and  O_3
REMARK    3  A    between atoms: O_3  and  C_4
REMARK    4  A    between atoms: N_10  and  C_11
REMARK    5  A    between atoms: C_11  and  C_12
REMARK    6  A    between atoms: C_16  and  C_17
REMARK                            x       y       z     vdW  Elec       q    Type
REMARK                         _______ _______ _______ _____ _____    ______ ____
ROOT
ATOM      1  C   UNL     1       6.166   4.186  13.455  0.00  0.00    +0.000 C 
ATOM      2  C   UNL     1       7.090   5.348  13.768  0.00  0.00    +0.000 C 
ATOM      3  O   UNL     1       6.726   5.796  15.078  0.00  0.00    +0.000 OA
ATOM      4  C   UNL     1       6.179   4.671  15.796  0.00  0.00    +0.000 C 
ATOM      5  C   UNL     1       4.795   5.083  16.309  0.00  0.00    +0.000 C 
ATOM      6  C   UNL     1       4.909   6.026  17.499  0.00  0.00    +0.000 C 
ATOM      7  N   UNL     1       5.729   5.465  18.587  0.00  0.00    +0.000 NA
ATOM      8  C   UNL     1       7.099   5.274  18.088  0.00  0.00    +0.000 C 
ATOM      9  C   UNL     1       7.172   4.306  16.909  0.00  0.00    +0.000 C 
ATOM     10  C   UNL     1       6.052   3.520  14.803  0.00  0.00    +0.000 C 
ENDROOT
BRANCH   1  11
ATOM     11  O   UNL     1       6.685   3.310  12.461  0.00  0.00    +0.000 OA
BRANCH  11  13
ATOM     12  C   UNL     1       4.448   3.299  11.448  0.00  0.00    +0.000 C 
ATOM     13  C   UNL     1       5.686   2.502  11.824  0.00  0.00    +0.000 C 
ENDBRANCH  11  13
ENDBRANCH   1  11
BRANCH   7  14
ATOM     14  C   UNL     1       5.191   4.218  19.165  0.00  0.00    +0.000 C 
BRANCH  14  15
ATOM     15  C   UNL     1       3.764   4.347  19.644  0.00  0.00    +0.000 A 
ATOM     16  C   UNL     1       2.898   3.242  19.649  0.00  0.00    +0.000 A 
ATOM     17  C   UNL     1       1.564   3.391  20.027  0.00  0.00    +0.000 A 
ATOM     18  C   UNL     1       1.086   4.644  20.412  0.00  0.00    +0.000 A 
ATOM     19  C   UNL     1       1.946   5.746  20.430  0.00  0.00    +0.000 A 
ATOM     20  C   UNL     1       3.279   5.599  20.051  0.00  0.00    +0.000 A 
BRANCH  19  21
ATOM     21  C   UNL     1       1.460   7.028  20.829  0.00  0.00    +0.000 C 
ATOM     22  N   UNL     1       1.057   8.071  21.152  0.00  0.00    +0.000 NA
ENDBRANCH  19  21
ENDBRANCH  14  15
ENDBRANCH   7  14
TORSDOF 5
ENDMDL
MODEL 4
REMARK VINA RESULT:      -6.6      3.061      7.512
REMARK  Name = 
REMARK  6 active torsions:
REMARK  status: ('A' for Active; 'I' for Inactive)
REMARK    1  A    between atoms: C_1  and  C_2
REMARK    2  A    between atoms: C_2  and  O_3
REMARK    3  A    between atoms: O_3  and  C_4
REMARK    4  A    between atoms: N_10  and  C_11
REMARK    5  A    between atoms: C_11  and  C_12
REMARK    6  A    between atoms: C_16  and  C_17
REMARK                            x       y       z     vdW  Elec       q    Type
REMARK                         _______ _______ _______ _____ _____    ______ ____
ROOT
ATOM      1  C   UNL     1       6.474   3.879  12.614  0.00  0.00    +0.000 C 
ATOM      2  C   UNL     1       7.431   5.032  12.849  0.00  0.00    +0.000 C 
ATOM      3  O   UNL     1       7.034   5.626  14.089  0.00  0.00    +0.000 OA
ATOM      4  C   UNL     1       6.411   4.604  14.892  0.00  0.00    +0.000 C 
ATOM      5  C   UNL     1       5.026   5.117  15.298  0.00  0.00    +0.000 C 
ATOM      6  C   UNL     1       5.130   6.174  16.389  0.00  0.00    +0.000 C 
ATOM      7  N   UNL     1       5.881   5.699  17.564  0.00  0.00    +0.000 NA
ATOM      8  C   UNL     1       7.261   5.406  17.150  0.00  0.00    +0.000 C 
ATOM      9  C   UNL     1       7.342   4.319  16.079  0.00  0.00    +0.000 C 
ATOM     10  C   UNL     1       6.277   3.362  14.017  0.00  0.00    +0.000 C 
ENDROOT
BRANCH   1  11
ATOM     11  O   UNL     1       6.995   2.886  11.739  0.00  0.00    +0.000 OA
BRANCH  11  13
ATOM     12  C   UNL     1       6.487   0.538  11.233  0.00  0.00    +0.000 C 
ATOM     13  C   UNL     1       6.004   1.979  11.238  0.00  0.00    +0.000 C 
ENDBRANCH  11  13
ENDBRANCH   1  11
BRANCH   7  14
ATOM     14  C   UNL     1       5.268   4.539  18.242  0.00  0.00    +0.000 C 
BRANCH  14  15
ATOM     15  C   UNL     1       4.034   4.894  19.037  0.00  0.00    +0.000 A 
ATOM     16  C   UNL     1       3.463   6.174  18.958  0.00  0.00    +0.000 A 
ATOM     17  C   UNL     1       2.366   6.510  19.750  0.00  0.00    +0.000 A 
ATOM     18  C   UNL     1       1.825   5.566  20.623  0.00  0.00    +0.000 A 
ATOM     19  C   UNL     1       2.372   4.282  20.694  0.00  0.00    +0.000 A 
ATOM     20  C   UNL     1       3.470   3.946  19.903  0.00  0.00    +0.000 A 
BRANCH  19  21
ATOM     21  C   UNL     1       1.815   3.312  21.583  0.00  0.00    +0.000 C 
ATOM     22  N   UNL     1       1.367   2.519  22.307  0.00  0.00    +0.000 NA
ENDBRANCH  19  21
ENDBRANCH  14  15
ENDBRANCH   7  14
TORSDOF 5
ENDMDL
MODEL 5
REMARK VINA RESULT:      -6.6      2.960      7.477
REMARK  Name = 
REMARK  6 active torsions:
REMARK  status: ('A' for Active; 'I' for Inactive)
REMARK    1  A    between atoms: C_1  and  C_2
REMARK    2  A    between atoms: C_2  and  O_3
REMARK    3  A    between atoms: O_3  and  C_4
REMARK    4  A    between atoms: N_10  and  C_11
REMARK    5  A    between atoms: C_11  and  C_12
REMARK    6  A    between atoms: C_16  and  C_17
REMARK                            x       y       z     vdW  Elec       q    Type
REMARK                         _______ _______ _______ _____ _____    ______ ____
ROOT
ATOM      1  C   UNL     1       6.662   4.283  12.796  0.00  0.00    +0.000 C 
ATOM      2  C   UNL     1       7.863   5.067  13.287  0.00  0.00    +0.000 C 
ATOM      3  O   UNL     1       7.473   5.640  14.540  0.00  0.00    +0.000 OA
ATOM      4  C   UNL     1       6.471   4.785  15.126  0.00  0.00    +0.000 C 
ATOM      5  C   UNL     1       5.247   5.654  15.432  0.00  0.00    +0.000 C 
ATOM      6  C   UNL     1       5.486   6.527  16.657  0.00  0.00    +0.000 C 
ATOM      7  N   UNL     1       5.885   5.744  17.839  0.00  0.00    +0.000 NA
ATOM      8  C   UNL     1       7.169   5.086  17.552  0.00  0.00    +0.000 C 
ATOM      9  C   UNL     1       7.093   4.127  16.366  0.00  0.00    +0.000 C 
ATOM     10  C   UNL     1       6.118   3.725  14.087  0.00  0.00    +0.000 C 
ENDROOT
BRANCH   1  11
ATOM     11  O   UNL     1       7.001   3.262  11.865  0.00  0.00    +0.000 OA
BRANCH  11  13
ATOM     12  C   UNL     1       6.379   1.036  11.038  0.00  0.00    +0.000 C 
ATOM     13  C   UNL     1       5.909   2.391  11.539  0.00  0.00    +0.000 C 
ENDBRANCH  11  13
ENDBRANCH   1  11
BRANCH   7  14
ATOM     14  C   UNL     1       4.871   4.767  18.284  0.00  0.00    +0.000 C 
BRANCH  14  15
ATOM     15  C   UNL     1       3.759   5.387  19.096  0.00  0.00    +0.000 A 
ATOM     16  C   UNL     1       3.141   4.679  20.139  0.00  0.00    +0.000 A 
ATOM     17  C   UNL     1       2.068   5.236  20.834  0.00  0.00    +0.000 A 
ATOM     18  C   UNL     1       1.608   6.509  20.497  0.00  0.00    +0.000 A 
ATOM     19  C   UNL     1       2.230   7.231  19.474  0.00  0.00    +0.000 A 
ATOM     20  C   UNL     1       3.302   6.674  18.777  0.00  0.00    +0.000 A 
BRANCH  19  21
ATOM     21  C   UNL     1       1.764   8.537  19.132  0.00  0.00    +0.000 C 
ATOM     22  N   UNL     1       1.378   9.598  18.854  0.00  0.00    +0.000 NA
ENDBRANCH  19  21
ENDBRANCH  14  15
ENDBRANCH   7  14
TORSDOF 5
ENDMDL
MODEL 6
REMARK VINA RESULT:      -6.5      1.600      2.617
REMARK  Name = 
REMARK  6 active torsions:
REMARK  status: ('A' for Active; 'I' for Inactive)
REMARK    1  A    between atoms: C_1  and  C_2
REMARK    2  A    between atoms: C_2  and  O_3
REMARK    3  A    between atoms: O_3  and  C_4
REMARK    4  A    between atoms: N_10  and  C_11
REMARK    5  A    between atoms: C_11  and  C_12
REMARK    6  A    between atoms: C_16  and  C_17
REMARK                            x       y       z     vdW  Elec       q    Type
REMARK                         _______ _______ _______ _____ _____    ______ ____
ROOT
ATOM      1  C   UNL     1       1.568   5.845  20.355  0.00  0.00    +0.000 C 
ATOM      2  C   UNL     1       2.300   4.693  21.017  0.00  0.00    +0.000 C 
ATOM      3  O   UNL     1       3.107   4.101  19.995  0.00  0.00    +0.000 OA
ATOM      4  C   UNL     1       3.424   5.124  19.030  0.00  0.00    +0.000 C 
ATOM      5  C   UNL     1       2.987   4.610  17.654  0.00  0.00    +0.000 C 
ATOM      6  C   UNL     1       3.952   3.555  17.130  0.00  0.00    +0.000 C 
ATOM      7  N   UNL     1       5.345   4.034  17.095  0.00  0.00    +0.000 NA
ATOM      8  C   UNL     1       5.772   4.327  18.472  0.00  0.00    +0.000 C 
ATOM      9  C   UNL     1       4.928   5.412  19.138  0.00  0.00    +0.000 C 
ATOM     10  C   UNL     1       2.620   6.365  19.408  0.00  0.00    +0.000 C 
ENDROOT
BRANCH   1  11
ATOM     11  O   UNL     1       1.132   6.836  21.277  0.00  0.00    +0.000 OA
BRANCH  11  13
ATOM     12  C   UNL     1       0.691   9.210  21.720  0.00  0.00    +0.000 C 
ATOM     13  C   UNL     1       1.381   8.180  20.842  0.00  0.00    +0.000 C 
ENDBRANCH  11  13
ENDBRANCH   1  11
BRANCH   7  14
ATOM     14  C   UNL     1       5.562   5.194  16.209  0.00  0.00    +0.000 C 
BRANCH  14  15
ATOM     15  C   UNL     1       6.053   4.813  14.832  0.00  0.00    +0.000 A 
ATOM     16  C   UNL     1       7.353   5.134  14.411  0.00  0.00    +0.000 A 
ATOM     17  C   UNL     1       7.769   4.839  13.114  0.00  0.00    +0.000 A 
ATOM     18  C   UNL     1       6.892   4.213  12.228  0.00  0.00    +0.000 A 
ATOM     19  C   UNL     1       5.602   3.870  12.644  0.00  0.00    +0.000 A 
ATOM     20  C   UNL     1       5.184   4.166  13.941  0.00  0.00    +0.000 A 
BRANCH  19  21
ATOM     21  C   UNL     1       4.705   3.224  11.740  0.00  0.00    +0.000 C 
ATOM     22  N   UNL     1       3.971   2.695  11.009  0.00  0.00    +0.000 NA
ENDBRANCH  19  21
ENDBRANCH  14  15
ENDBRANCH   7  14
TORSDOF 5
ENDMDL
MODEL 7
REMARK VINA RESULT:      -6.5      3.185      7.665
REMARK  Name = 
REMARK  6 active torsions:
REMARK  status: ('A' for Active; 'I' for Inactive)
REMARK    1  A    between atoms: C_1  and  C_2
REMARK    2  A    between atoms: C_2  and  O_3
REMARK    3  A    between atoms: O_3  and  C_4
REMARK    4  A    between atoms: N_10  and  C_11
REMARK    5  A    between atoms: C_11  and  C_12
REMARK    6  A    between atoms: C_16  and  C_17
REMARK                            x       y       z     vdW  Elec       q    Type
REMARK                         _______ _______ _______ _____ _____    ______ ____
ROOT
ATOM      1  C   UNL     1       6.748   5.099  15.224  0.00  0.00    +0.000 C 
ATOM      2  C   UNL     1       7.408   4.258  16.300  0.00  0.00    +0.000 C 
ATOM      3  O   UNL     1       6.656   4.489  17.495  0.00  0.00    +0.000 OA
ATOM      4  C   UNL     1       5.308   4.829  17.113  0.00  0.00    +0.000 C 
ATOM      5  C   UNL     1       4.966   6.168  17.776  0.00  0.00    +0.000 C 
ATOM      6  C   UNL     1       4.699   5.991  19.265  0.00  0.00    +0.000 C 
ATOM      7  N   UNL     1       3.655   4.988  19.535  0.00  0.00    +0.000 NA
ATOM      8  C   UNL     1       4.126   3.681  19.050  0.00  0.00    +0.000 C 
ATOM      9  C   UNL     1       4.399   3.670  17.547  0.00  0.00    +0.000 C 
ATOM     10  C   UNL     1       5.292   4.973  15.595  0.00  0.00    +0.000 C 
ENDROOT
BRANCH   1  11
ATOM     11  O   UNL     1       7.013   4.632  13.906  0.00  0.00    +0.000 OA
BRANCH  11  13
ATOM     12  C   UNL     1       6.366   3.186  12.031  0.00  0.00    +0.000 C 
ATOM     13  C   UNL     1       5.988   3.779  13.378  0.00  0.00    +0.000 C 
ENDBRANCH  11  13
ENDBRANCH   1  11
BRANCH   7  14
ATOM     14  C   UNL     1       2.334   5.325  18.969  0.00  0.00    +0.000 C 
BRANCH  14  15
ATOM     15  C   UNL     1       1.957   6.776  19.152  0.00  0.00    +0.000 A 
ATOM     16  C   UNL     1       1.929   7.661  18.062  0.00  0.00    +0.000 A 
ATOM     17  C   UNL     1       1.648   9.013  18.255  0.00  0.00    +0.000 A 
ATOM     18  C   UNL     1       1.386   9.491  19.539  0.00  0.00    +0.000 A 
ATOM     19  C   UNL     1       1.390   8.614  20.628  0.00  0.00    +0.000 A 
ATOM     20  C   UNL     1       1.673   7.263  20.436  0.00  0.00    +0.000 A 
BRANCH  19  21
ATOM     21  C   UNL     1       1.116   9.101  21.942  0.00  0.00    +0.000 C 
ATOM     22  N   UNL     1       0.888   9.493  23.014  0.00  0.00    +0.000 NA
ENDBRANCH  19  21
ENDBRANCH  14  15
ENDBRANCH   7  14
TORSDOF 5
ENDMDL
MODEL 8
REMARK VINA RESULT:      -6.4      3.394      7.867
REMARK  Name = 
REMARK  6 active torsions:
REMARK  status: ('A' for Active; 'I' for Inactive)
REMARK    1  A    between atoms: C_1  and  C_2
REMARK    2  A    between atoms: C_2  and  O_3
REMARK    3  A    between atoms: O_3  and  C_4
REMARK    4  A    between atoms: N_10  and  C_11
REMARK    5  A    between atoms: C_11  and  C_12
REMARK    6  A    between atoms: C_16  and  C_17
REMARK                            x       y       z     vdW  Elec       q    Type
REMARK                         _______ _______ _______ _____ _____    ______ ____
ROOT
ATOM      1  C   UNL     1       6.111   4.283  14.580  0.00  0.00    +0.000 C 
ATOM      2  C   UNL     1       7.139   4.116  15.683  0.00  0.00    +0.000 C 
ATOM      3  O   UNL     1       6.659   4.890  16.787  0.00  0.00    +0.000 OA
ATOM      4  C   UNL     1       5.221   4.948  16.698  0.00  0.00    +0.000 C 
ATOM      5  C   UNL     1       4.819   6.426  16.718  0.00  0.00    +0.000 C 
ATOM      6  C   UNL     1       4.942   7.010  18.119  0.00  0.00    +0.000 C 
ATOM      7  N   UNL     1       4.179   6.242  19.119  0.00  0.00    +0.000 NA
ATOM      8  C   UNL     1       4.740   4.885  19.193  0.00  0.00    +0.000 C 
ATOM      9  C   UNL     1       4.652   4.132  17.867  0.00  0.00    +0.000 C 
ATOM     10  C   UNL     1       4.826   4.312  15.369  0.00  0.00    +0.000 C 
ENDROOT
BRANCH   1  11
ATOM     11  O   UNL     1       6.137   3.229  13.625  0.00  0.00    +0.000 OA
BRANCH  11  13
ATOM     12  C   UNL     1       4.740   3.092  11.611  0.00  0.00    +0.000 C 
ATOM     13  C   UNL     1       5.980   3.672  12.270  0.00  0.00    +0.000 C 
ENDBRANCH  11  13
ENDBRANCH   1  11
BRANCH   7  14
ATOM     14  C   UNL     1       2.724   6.207  18.868  0.00  0.00    +0.000 C 
BRANCH  14  15
ATOM     15  C   UNL     1       2.040   7.528  19.126  0.00  0.00    +0.000 A 
ATOM     16  C   UNL     1       1.787   8.430  18.080  0.00  0.00    +0.000 A 
ATOM     17  C   UNL     1       1.219   9.676  18.342  0.00  0.00    +0.000 A 
ATOM     18  C   UNL     1       0.891  10.028  19.651  0.00  0.00    +0.000 A 
ATOM     19  C   UNL     1       1.119   9.129  20.697  0.00  0.00    +0.000 A 
ATOM     20  C   UNL     1       1.689   7.884  20.436  0.00  0.00    +0.000 A 
BRANCH  19  21
ATOM     21  C   UNL     1       0.779   9.487  22.038  0.00  0.00    +0.000 C 
ATOM     22  N   UNL     1       0.506   9.774  23.132  0.00  0.00    +0.000 NA
ENDBRANCH  19  21
ENDBRANCH  14  15
ENDBRANCH   7  14
TORSDOF 5
ENDMDL
MODEL 9
REMARK VINA RESULT:      -6.1      3.362      7.874
REMARK  Name = 
REMARK  6 active torsions:
REMARK  status: ('A' for Active; 'I' for Inactive)
REMARK    1  A    between atoms: C_1  and  C_2
REMARK    2  A    between atoms: C_2  and  O_3
REMARK    3  A    between atoms: O_3  and  C_4
REMARK    4  A    between atoms: N_10  and  C_11
REMARK    5  A    between atoms: C_11  and  C_12
REMARK    6  A    between atoms: C_16  and  C_17
REMARK                            x       y       z     vdW  Elec       q    Type
REMARK                         _______ _______ _______ _____ _____    ______ ____
ROOT
ATOM      1  C   UNL     1       6.782   5.057  14.884  0.00  0.00    +0.000 C 
ATOM      2  C   UNL     1       7.058   4.002  15.939  0.00  0.00    +0.000 C 
ATOM      3  O   UNL     1       6.346   4.422  17.108  0.00  0.00    +0.000 OA
ATOM      4  C   UNL     1       5.212   5.204  16.681  0.00  0.00    +0.000 C 
ATOM      5  C   UNL     1       5.285   6.553  17.404  0.00  0.00    +0.000 C 
ATOM      6  C   UNL     1       4.878   6.416  18.865  0.00  0.00    +0.000 C 
ATOM      7  N   UNL     1       3.547   5.804  19.024  0.00  0.00    +0.000 NA
ATOM      8  C   UNL     1       3.594   4.436  18.485  0.00  0.00    +0.000 C 
ATOM      9  C   UNL     1       3.947   4.395  17.000  0.00  0.00    +0.000 C 
ATOM     10  C   UNL     1       5.344   5.405  15.175  0.00  0.00    +0.000 C 
ENDROOT
BRANCH   1  11
ATOM     11  O   UNL     1       6.966   4.582  13.555  0.00  0.00    +0.000 OA
BRANCH  11  13
ATOM     12  C   UNL     1       6.324   2.952  11.835  0.00  0.00    +0.000 C 
ATOM     13  C   UNL     1       5.950   3.666  13.123  0.00  0.00    +0.000 C 
ENDBRANCH  11  13
ENDBRANCH   1  11
BRANCH   7  14
ATOM     14  C   UNL     1       2.450   6.582  18.414  0.00  0.00    +0.000 C 
BRANCH  14  15
ATOM     15  C   UNL     1       1.914   7.669  19.316  0.00  0.00    +0.000 A 
ATOM     16  C   UNL     1       1.666   7.427  20.676  0.00  0.00    +0.000 A 
ATOM     17  C   UNL     1       1.105   8.418  21.480  0.00  0.00    +0.000 A 
ATOM     18  C   UNL     1       0.795   9.663  20.934  0.00  0.00    +0.000 A 
ATOM     19  C   UNL     1       1.058   9.922  19.585  0.00  0.00    +0.000 A 
ATOM     20  C   UNL     1       1.617   8.931  18.780  0.00  0.00    +0.000 A 
BRANCH  19  21
ATOM     21  C   UNL     1       0.747  11.198  19.026  0.00  0.00    +0.000 C 
ATOM     22  N   UNL     1       0.488  12.239  18.575  0.00  0.00    +0.000 NA
ENDBRANCH  19  21
ENDBRANCH  14  15
ENDBRANCH   7  14
TORSDOF 5
ENDMDL
