MODEL 1
REMARK VINA RESULT:      -7.1      0.000      0.000
REMARK  Name = 
REMARK  5 active torsions:
REMARK  status: ('A' for Active; 'I' for Inactive)
REMARK    1  A    between atoms: C_1  and  C_2
REMARK    2  A    between atoms: C_2  and  N_3
REMARK    3  A    between atoms: N_3  and  C_4
REMARK    4  A    between atoms: N_3  and  S_11
REMARK    5  A    between atoms: S_11  and  C_14
REMARK                            x       y       z     vdW  Elec       q    Type
REMARK                         _______ _______ _______ _____ _____    ______ ____
ROOT
ATOM      1  S   UNL     1       4.187   2.945  18.581  0.00  0.00    +0.000 S 
ATOM      2  O   UNL     1       4.771   3.033  19.898  0.00  0.00    +0.000 OA
ATOM      3  O   UNL     1       4.048   1.649  17.941  0.00  0.00    +0.000 OA
ENDROOT
BRANCH   1   4
ATOM      4  C   UNL     1       5.141   3.939  17.441  0.00  0.00    +0.000 A 
ATOM      5  C   UNL     1       5.051   3.590  16.076  0.00  0.00    +0.000 A 
ATOM      6  C   UNL     1       5.730   4.324  15.108  0.00  0.00    +0.000 A 
ATOM      7 CL   UNL     1       5.538   3.933  13.445  0.00  0.00    +0.000 Cl
ATOM      8  C   UNL     1       6.547   5.381  15.484  0.00  0.00    +0.000 A 
ATOM      9  C   UNL     1       6.687   5.694  16.838  0.00  0.00    +0.000 A 
ATOM     10  C   UNL     1       5.988   4.979  17.827  0.00  0.00    +0.000 A 
ATOM     11 CL   UNL     1       6.241   5.506  19.445  0.00  0.00    +0.000 Cl
ENDBRANCH   1   4
BRANCH   1  12
ATOM     12  N   UNL     1       2.659   3.681  18.559  0.00  0.00    +0.000 N 
BRANCH  12  13
ATOM     13  C   UNL     1       2.552   5.078  18.881  0.00  0.00    +0.000 A 
ATOM     14  C   UNL     1       2.651   6.035  17.868  0.00  0.00    +0.000 A 
ATOM     15  C   UNL     1       2.475   7.392  18.160  0.00  0.00    +0.000 A 
ATOM     16  C   UNL     1       2.182   7.796  19.461  0.00  0.00    +0.000 A 
ATOM     17  C   UNL     1       2.087   6.850  20.480  0.00  0.00    +0.000 A 
ATOM     18  C   UNL     1       2.281   5.495  20.198  0.00  0.00    +0.000 A 
ATOM     19 CL   UNL     1       2.129   4.369  21.501  0.00  0.00    +0.000 Cl
ENDBRANCH  12  13
BRANCH  12  21
ATOM     20  C   UNL     1       0.635   2.295  18.818  0.00  0.00    +0.000 C 
ATOM     21  C   UNL     1       1.538   3.035  17.848  0.00  0.00    +0.000 C 
ENDBRANCH  12  21
ENDBRANCH   1  12
TORSDOF 4
ENDMDL
MODEL 2
REMARK VINA RESULT:      -6.7      1.933      5.096
REMARK  Name = 
REMARK  5 active torsions:
REMARK  status: ('A' for Active; 'I' for Inactive)
REMARK    1  A    between atoms: C_1  and  C_2
REMARK    2  A    between atoms: C_2  and  N_3
REMARK    3  A    between atoms: N_3  and  C_4
REMARK    4  A    between atoms: N_3  and  S_11
REMARK    5  A    between atoms: S_11  and  C_14
REMARK                            x       y       z     vdW  Elec       q    Type
REMARK                         _______ _______ _______ _____ _____    ______ ____
ROOT
ATOM      1  S   UNL     1       4.233   3.543  18.546  0.00  0.00    +0.000 S 
ATOM      2  O   UNL     1       3.401   2.510  17.974  0.00  0.00    +0.000 OA
ATOM      3  O   UNL     1       5.209   3.198  19.564  0.00  0.00    +0.000 OA
ENDROOT
BRANCH   1   4
ATOM      4  C   UNL     1       3.196   4.798  19.286  0.00  0.00    +0.000 A 
ATOM      5  C   UNL     1       3.162   6.050  18.635  0.00  0.00    +0.000 A 
ATOM      6  C   UNL     1       2.359   7.080  19.116  0.00  0.00    +0.000 A 
ATOM      7 CL   UNL     1       2.270   8.567  18.260  0.00  0.00    +0.000 Cl
ATOM      8  C   UNL     1       1.619   6.900  20.276  0.00  0.00    +0.000 A 
ATOM      9  C   UNL     1       1.693   5.683  20.957  0.00  0.00    +0.000 A 
ATOM     10  C   UNL     1       2.479   4.623  20.471  0.00  0.00    +0.000 A 
ATOM     11 CL   UNL     1       2.442   3.178  21.406  0.00  0.00    +0.000 Cl
ENDBRANCH   1   4
BRANCH   1  12
ATOM     12  N   UNL     1       5.057   4.385  17.326  0.00  0.00    +0.000 N 
BRANCH  12  13
ATOM     13  C   UNL     1       6.027   5.378  17.697  0.00  0.00    +0.000 A 
ATOM     14  C   UNL     1       6.980   5.088  18.678  0.00  0.00    +0.000 A 
ATOM     15  C   UNL     1       7.974   6.020  18.993  0.00  0.00    +0.000 A 
ATOM     16  C   UNL     1       8.030   7.240  18.320  0.00  0.00    +0.000 A 
ATOM     17  C   UNL     1       7.081   7.541  17.345  0.00  0.00    +0.000 A 
ATOM     18  C   UNL     1       6.075   6.621  17.039  0.00  0.00    +0.000 A 
ATOM     19 CL   UNL     1       4.940   7.047  15.806  0.00  0.00    +0.000 Cl
ENDBRANCH  12  13
BRANCH  12  21
ATOM     20  C   UNL     1       6.508   3.790  15.422  0.00  0.00    +0.000 C 
ATOM     21  C   UNL     1       5.087   3.851  15.950  0.00  0.00    +0.000 C 
ENDBRANCH  12  21
ENDBRANCH   1  12
TORSDOF 4
ENDMDL
MODEL 3
REMARK VINA RESULT:      -6.5      1.085      1.250
REMARK  Name = 
REMARK  5 active torsions:
REMARK  status: ('A' for Active; 'I' for Inactive)
REMARK    1  A    between atoms: C_1  and  C_2
REMARK    2  A    between atoms: C_2  and  N_3
REMARK    3  A    between atoms: N_3  and  C_4
REMARK    4  A    between atoms: N_3  and  S_11
REMARK    5  A    between atoms: S_11  and  C_14
REMARK                            x       y       z     vdW  Elec       q    Type
REMARK                         _______ _______ _______ _____ _____    ______ ____
ROOT
ATOM      1  S   UNL     1       4.881   4.330  18.778  0.00  0.00    +0.000 S 
ATOM      2  O   UNL     1       5.413   5.186  19.812  0.00  0.00    +0.000 OA
ATOM      3  O   UNL     1       4.906   2.889  18.955  0.00  0.00    +0.000 OA
ENDROOT
BRANCH   1   4
ATOM      4  C   UNL     1       5.752   4.636  17.247  0.00  0.00    +0.000 A 
ATOM      5  C   UNL     1       5.197   4.064  16.082  0.00  0.00    +0.000 A 
ATOM      6  C   UNL     1       5.783   4.274  14.838  0.00  0.00    +0.000 A 
ATOM      7 CL   UNL     1       5.042   3.637  13.424  0.00  0.00    +0.000 Cl
ATOM      8  C   UNL     1       6.956   5.009  14.737  0.00  0.00    +0.000 A 
ATOM      9  C   UNL     1       7.543   5.528  15.894  0.00  0.00    +0.000 A 
ATOM     10  C   UNL     1       6.949   5.348  17.155  0.00  0.00    +0.000 A 
ATOM     11 CL   UNL     1       7.777   6.075  18.478  0.00  0.00    +0.000 Cl
ENDBRANCH   1   4
BRANCH   1  12
ATOM     12  N   UNL     1       3.282   4.762  18.413  0.00  0.00    +0.000 N 
BRANCH  12  13
ATOM     13  C   UNL     1       2.850   6.111  18.657  0.00  0.00    +0.000 A 
ATOM     14  C   UNL     1       3.004   7.081  17.663  0.00  0.00    +0.000 A 
ATOM     15  C   UNL     1       2.520   8.378  17.862  0.00  0.00    +0.000 A 
ATOM     16  C   UNL     1       1.866   8.707  19.049  0.00  0.00    +0.000 A 
ATOM     17  C   UNL     1       1.714   7.749  20.049  0.00  0.00    +0.000 A 
ATOM     18  C   UNL     1       2.212   6.456  19.863  0.00  0.00    +0.000 A 
ATOM     19 CL   UNL     1       1.973   5.308  21.132  0.00  0.00    +0.000 Cl
ENDBRANCH  12  13
BRANCH  12  21
ATOM     20  C   UNL     1       1.414   3.157  18.278  0.00  0.00    +0.000 C 
ATOM     21  C   UNL     1       2.477   3.918  17.507  0.00  0.00    +0.000 C 
ENDBRANCH  12  21
ENDBRANCH   1  12
TORSDOF 4
ENDMDL
MODEL 4
REMARK VINA RESULT:      -6.4      1.738      3.069
REMARK  Name = 
REMARK  5 active torsions:
REMARK  status: ('A' for Active; 'I' for Inactive)
REMARK    1  A    between atoms: C_1  and  C_2
REMARK    2  A    between atoms: C_2  and  N_3
REMARK    3  A    between atoms: N_3  and  C_4
REMARK    4  A    between atoms: N_3  and  S_11
REMARK    5  A    between atoms: S_11  and  C_14
REMARK                            x       y       z     vdW  Elec       q    Type
REMARK                         _______ _______ _______ _____ _____    ______ ____
ROOT
ATOM      1  S   UNL     1       5.546   4.471  18.987  0.00  0.00    +0.000 S 
ATOM      2  O   UNL     1       6.376   5.123  19.972  0.00  0.00    +0.000 OA
ATOM      3  O   UNL     1       5.412   3.025  19.003  0.00  0.00    +0.000 OA
ENDROOT
BRANCH   1   4
ATOM      4  C   UNL     1       6.141   4.874  17.349  0.00  0.00    +0.000 A 
ATOM      5  C   UNL     1       5.659   4.074  16.291  0.00  0.00    +0.000 A 
ATOM      6  C   UNL     1       6.037   4.331  14.976  0.00  0.00    +0.000 A 
ATOM      7 CL   UNL     1       5.373   3.397  13.696  0.00  0.00    +0.000 Cl
ATOM      8  C   UNL     1       6.937   5.350  14.698  0.00  0.00    +0.000 A 
ATOM      9  C   UNL     1       7.462   6.108  15.748  0.00  0.00    +0.000 A 
ATOM     10  C   UNL     1       7.071   5.879  17.079  0.00  0.00    +0.000 A 
ATOM     11 CL   UNL     1       7.783   6.916  18.253  0.00  0.00    +0.000 Cl
ENDBRANCH   1   4
BRANCH   1  12
ATOM     12  N   UNL     1       3.980   5.119  19.006  0.00  0.00    +0.000 N 
BRANCH  12  13
ATOM     13  C   UNL     1       2.889   4.297  19.453  0.00  0.00    +0.000 A 
ATOM     14  C   UNL     1       2.531   4.291  20.804  0.00  0.00    +0.000 A 
ATOM     15  C   UNL     1       1.425   3.552  21.237  0.00  0.00    +0.000 A 
ATOM     16  C   UNL     1       0.663   2.829  20.321  0.00  0.00    +0.000 A 
ATOM     17  C   UNL     1       1.016   2.823  18.972  0.00  0.00    +0.000 A 
ATOM     18  C   UNL     1       2.130   3.544  18.537  0.00  0.00    +0.000 A 
ATOM     19 CL   UNL     1       2.503   3.513  16.849  0.00  0.00    +0.000 Cl
ENDBRANCH  12  13
BRANCH  12  21
ATOM     20  C   UNL     1       3.192   7.006  17.626  0.00  0.00    +0.000 C 
ATOM     21  C   UNL     1       3.784   6.582  18.958  0.00  0.00    +0.000 C 
ENDBRANCH  12  21
ENDBRANCH   1  12
TORSDOF 4
ENDMDL
MODEL 5
REMARK VINA RESULT:      -6.2      2.062      4.819
REMARK  Name = 
REMARK  5 active torsions:
REMARK  status: ('A' for Active; 'I' for Inactive)
REMARK    1  A    between atoms: C_1  and  C_2
REMARK    2  A    between atoms: C_2  and  N_3
REMARK    3  A    between atoms: N_3  and  C_4
REMARK    4  A    between atoms: N_3  and  S_11
REMARK    5  A    between atoms: S_11  and  C_14
REMARK                            x       y       z     vdW  Elec       q    Type
REMARK                         _______ _______ _______ _____ _____    ______ ____
ROOT
ATOM      1  S   UNL     1       2.399   3.453  17.927  0.00  0.00    +0.000 S 
ATOM      2  O   UNL     1       2.226   3.683  16.512  0.00  0.00    +0.000 OA
ATOM      3  O   UNL     1       1.529   2.515  18.614  0.00  0.00    +0.000 OA
ENDROOT
BRANCH   1   4
ATOM      4  C   UNL     1       2.220   5.000  18.807  0.00  0.00    +0.000 A 
ATOM      5  C   UNL     1       2.423   6.177  18.055  0.00  0.00    +0.000 A 
ATOM      6  C   UNL     1       2.273   7.430  18.643  0.00  0.00    +0.000 A 
ATOM      7 CL   UNL     1       2.443   8.849  17.688  0.00  0.00    +0.000 Cl
ATOM      8  C   UNL     1       1.972   7.533  19.993  0.00  0.00    +0.000 A 
ATOM      9  C   UNL     1       1.828   6.371  20.755  0.00  0.00    +0.000 A 
ATOM     10  C   UNL     1       1.949   5.097  20.173  0.00  0.00    +0.000 A 
ATOM     11 CL   UNL     1       1.714   3.766  21.237  0.00  0.00    +0.000 Cl
ENDBRANCH   1   4
BRANCH   1  12
ATOM     12  N   UNL     1       3.996   2.993  18.263  0.00  0.00    +0.000 N 
BRANCH  12  13
ATOM     13  C   UNL     1       5.035   3.985  18.209  0.00  0.00    +0.000 A 
ATOM     14  C   UNL     1       5.419   4.653  19.374  0.00  0.00    +0.000 A 
ATOM     15  C   UNL     1       6.479   5.566  19.347  0.00  0.00    +0.000 A 
ATOM     16  C   UNL     1       7.169   5.804  18.159  0.00  0.00    +0.000 A 
ATOM     17  C   UNL     1       6.789   5.147  16.990  0.00  0.00    +0.000 A 
ATOM     18  C   UNL     1       5.719   4.248  17.008  0.00  0.00    +0.000 A 
ATOM     19 CL   UNL     1       5.311   3.450  15.529  0.00  0.00    +0.000 Cl
ENDBRANCH  12  13
BRANCH  12  21
ATOM     20  C   UNL     1       4.533   1.984  20.449  0.00  0.00    +0.000 C 
ATOM     21  C   UNL     1       4.267   1.729  18.977  0.00  0.00    +0.000 C 
ENDBRANCH  12  21
ENDBRANCH   1  12
TORSDOF 4
ENDMDL
MODEL 6
REMARK VINA RESULT:      -6.2      0.911      2.201
REMARK  Name = 
REMARK  5 active torsions:
REMARK  status: ('A' for Active; 'I' for Inactive)
REMARK    1  A    between atoms: C_1  and  C_2
REMARK    2  A    between atoms: C_2  and  N_3
REMARK    3  A    between atoms: N_3  and  C_4
REMARK    4  A    between atoms: N_3  and  S_11
REMARK    5  A    between atoms: S_11  and  C_14
REMARK                            x       y       z     vdW  Elec       q    Type
REMARK                         _______ _______ _______ _____ _____    ______ ____
ROOT
ATOM      1  S   UNL     1       4.359   3.118  18.714  0.00  0.00    +0.000 S 
ATOM      2  O   UNL     1       4.783   3.025  20.091  0.00  0.00    +0.000 OA
ATOM      3  O   UNL     1       4.372   1.932  17.876  0.00  0.00    +0.000 OA
ENDROOT
BRANCH   1   4
ATOM      4  C   UNL     1       5.375   4.315  17.859  0.00  0.00    +0.000 A 
ATOM      5  C   UNL     1       6.266   5.066  18.656  0.00  0.00    +0.000 A 
ATOM      6  C   UNL     1       7.122   5.999  18.078  0.00  0.00    +0.000 A 
ATOM      7 CL   UNL     1       8.257   6.841  19.057  0.00  0.00    +0.000 Cl
ATOM      8  C   UNL     1       7.071   6.237  16.712  0.00  0.00    +0.000 A 
ATOM      9  C   UNL     1       6.150   5.540  15.927  0.00  0.00    +0.000 A 
ATOM     10  C   UNL     1       5.296   4.575  16.489  0.00  0.00    +0.000 A 
ATOM     11 CL   UNL     1       4.241   3.780  15.386  0.00  0.00    +0.000 Cl
ENDBRANCH   1   4
BRANCH   1  12
ATOM     12  N   UNL     1       2.802   3.783  18.615  0.00  0.00    +0.000 N 
BRANCH  12  13
ATOM     13  C   UNL     1       2.606   5.160  18.976  0.00  0.00    +0.000 A 
ATOM     14  C   UNL     1       2.697   6.155  17.999  0.00  0.00    +0.000 A 
ATOM     15  C   UNL     1       2.435   7.490  18.325  0.00  0.00    +0.000 A 
ATOM     16  C   UNL     1       2.068   7.835  19.625  0.00  0.00    +0.000 A 
ATOM     17  C   UNL     1       1.982   6.851  20.608  0.00  0.00    +0.000 A 
ATOM     18  C   UNL     1       2.260   5.518  20.292  0.00  0.00    +0.000 A 
ATOM     19 CL   UNL     1       2.115   4.343  21.552  0.00  0.00    +0.000 Cl
ENDBRANCH  12  13
BRANCH  12  21
ATOM     20  C   UNL     1       0.755   2.409  18.703  0.00  0.00    +0.000 C 
ATOM     21  C   UNL     1       1.761   3.112  17.810  0.00  0.00    +0.000 C 
ENDBRANCH  12  21
ENDBRANCH   1  12
TORSDOF 4
ENDMDL
MODEL 7
REMARK VINA RESULT:      -6.1      1.981      4.812
REMARK  Name = 
REMARK  5 active torsions:
REMARK  status: ('A' for Active; 'I' for Inactive)
REMARK    1  A    between atoms: C_1  and  C_2
REMARK    2  A    between atoms: C_2  and  N_3
REMARK    3  A    between atoms: N_3  and  C_4
REMARK    4  A    between atoms: N_3  and  S_11
REMARK    5  A    between atoms: S_11  and  C_14
REMARK                            x       y       z     vdW  Elec       q    Type
REMARK                         _______ _______ _______ _____ _____    ______ ____
ROOT
ATOM      1  S   UNL     1       2.388   3.561  18.036  0.00  0.00    +0.000 S 
ATOM      2  O   UNL     1       2.078   3.732  16.636  0.00  0.00    +0.000 OA
ATOM      3  O   UNL     1       1.634   2.606  18.828  0.00  0.00    +0.000 OA
ENDROOT
BRANCH   1   4
ATOM      4  C   UNL     1       2.207   5.127  18.880  0.00  0.00    +0.000 A 
ATOM      5  C   UNL     1       2.335   6.288  18.086  0.00  0.00    +0.000 A 
ATOM      6  C   UNL     1       2.176   7.552  18.646  0.00  0.00    +0.000 A 
ATOM      7 CL   UNL     1       2.253   8.947  17.644  0.00  0.00    +0.000 Cl
ATOM      8  C   UNL     1       1.941   7.686  20.006  0.00  0.00    +0.000 A 
ATOM      9  C   UNL     1       1.872   6.544  20.807  0.00  0.00    +0.000 A 
ATOM     10  C   UNL     1       2.003   5.258  20.255  0.00  0.00    +0.000 A 
ATOM     11 CL   UNL     1       1.863   3.952  21.367  0.00  0.00    +0.000 Cl
ENDBRANCH   1   4
BRANCH   1  12
ATOM     12  N   UNL     1       4.031   3.194  18.240  0.00  0.00    +0.000 N 
BRANCH  12  13
ATOM     13  C   UNL     1       4.999   3.824  17.385  0.00  0.00    +0.000 A 
ATOM     14  C   UNL     1       5.137   3.400  16.060  0.00  0.00    +0.000 A 
ATOM     15  C   UNL     1       6.023   4.055  15.198  0.00  0.00    +0.000 A 
ATOM     16  C   UNL     1       6.765   5.145  15.651  0.00  0.00    +0.000 A 
ATOM     17  C   UNL     1       6.640   5.571  16.973  0.00  0.00    +0.000 A 
ATOM     18  C   UNL     1       5.769   4.909  17.843  0.00  0.00    +0.000 A 
ATOM     19 CL   UNL     1       5.645   5.499  19.463  0.00  0.00    +0.000 Cl
ENDBRANCH  12  13
BRANCH  12  21
ATOM     20  C   UNL     1       4.541   1.061  19.370  0.00  0.00    +0.000 C 
ATOM     21  C   UNL     1       4.500   2.573  19.495  0.00  0.00    +0.000 C 
ENDBRANCH  12  21
ENDBRANCH   1  12
TORSDOF 4
ENDMDL
MODEL 8
REMARK VINA RESULT:      -6.1      2.557      5.196
REMARK  Name = 
REMARK  5 active torsions:
REMARK  status: ('A' for Active; 'I' for Inactive)
REMARK    1  A    between atoms: C_1  and  C_2
REMARK    2  A    between atoms: C_2  and  N_3
REMARK    3  A    between atoms: N_3  and  C_4
REMARK    4  A    between atoms: N_3  and  S_11
REMARK    5  A    between atoms: S_11  and  C_14
REMARK                            x       y       z     vdW  Elec       q    Type
REMARK                         _______ _______ _______ _____ _____    ______ ____
ROOT
ATOM      1  S   UNL     1       2.783   4.314  17.719  0.00  0.00    +0.000 S 
ATOM      2  O   UNL     1       1.398   4.482  17.349  0.00  0.00    +0.000 OA
ATOM      3  O   UNL     1       3.680   3.588  16.836  0.00  0.00    +0.000 OA
ENDROOT
BRANCH   1   4
ATOM      4  C   UNL     1       2.880   3.471  19.293  0.00  0.00    +0.000 A 
ATOM      5  C   UNL     1       3.927   2.536  19.442  0.00  0.00    +0.000 A 
ATOM      6  C   UNL     1       4.105   1.854  20.643  0.00  0.00    +0.000 A 
ATOM      7 CL   UNL     1       5.436   0.784  20.830  0.00  0.00    +0.000 Cl
ATOM      8  C   UNL     1       3.218   2.051  21.692  0.00  0.00    +0.000 A 
ATOM      9  C   UNL     1       2.146   2.931  21.530  0.00  0.00    +0.000 A 
ATOM     10  C   UNL     1       1.966   3.648  20.334  0.00  0.00    +0.000 A 
ATOM     11 CL   UNL     1       0.616   4.715  20.301  0.00  0.00    +0.000 Cl
ENDBRANCH   1   4
BRANCH   1  12
ATOM     12  N   UNL     1       3.501   5.817  18.035  0.00  0.00    +0.000 N 
BRANCH  12  13
ATOM     13  C   UNL     1       4.933   5.907  18.106  0.00  0.00    +0.000 A 
ATOM     14  C   UNL     1       5.593   5.561  19.289  0.00  0.00    +0.000 A 
ATOM     15  C   UNL     1       6.991   5.573  19.347  0.00  0.00    +0.000 A 
ATOM     16  C   UNL     1       7.735   5.917  18.219  0.00  0.00    +0.000 A 
ATOM     17  C   UNL     1       7.087   6.270  17.037  0.00  0.00    +0.000 A 
ATOM     18  C   UNL     1       5.690   6.277  16.980  0.00  0.00    +0.000 A 
ATOM     19 CL   UNL     1       4.947   6.704  15.479  0.00  0.00    +0.000 Cl
ENDBRANCH  12  13
BRANCH  12  21
ATOM     20  C   UNL     1       2.267   7.624  19.175  0.00  0.00    +0.000 C 
ATOM     21  C   UNL     1       2.727   7.061  17.843  0.00  0.00    +0.000 C 
ENDBRANCH  12  21
ENDBRANCH   1  12
TORSDOF 4
ENDMDL
MODEL 9
REMARK VINA RESULT:      -6.0      1.330      2.851
REMARK  Name = 
REMARK  5 active torsions:
REMARK  status: ('A' for Active; 'I' for Inactive)
REMARK    1  A    between atoms: C_1  and  C_2
REMARK    2  A    between atoms: C_2  and  N_3
REMARK    3  A    between atoms: N_3  and  C_4
REMARK    4  A    between atoms: N_3  and  S_11
REMARK    5  A    between atoms: S_11  and  C_14
REMARK                            x       y       z     vdW  Elec       q    Type
REMARK                         _______ _______ _______ _____ _____    ______ ____
ROOT
ATOM      1  S   UNL     1       5.253   4.648  18.911  0.00  0.00    +0.000 S 
ATOM      2  O   UNL     1       5.955   5.462  19.874  0.00  0.00    +0.000 OA
ATOM      3  O   UNL     1       5.210   3.207  19.084  0.00  0.00    +0.000 OA
ENDROOT
BRANCH   1   4
ATOM      4  C   UNL     1       5.956   4.911  17.287  0.00  0.00    +0.000 A 
ATOM      5  C   UNL     1       5.395   4.161  16.231  0.00  0.00    +0.000 A 
ATOM      6  C   UNL     1       5.851   4.321  14.926  0.00  0.00    +0.000 A 
ATOM      7 CL   UNL     1       5.097   3.459  13.644  0.00  0.00    +0.000 Cl
ATOM      8  C   UNL     1       6.901   5.186  14.657  0.00  0.00    +0.000 A 
ATOM      9  C   UNL     1       7.500   5.887  15.707  0.00  0.00    +0.000 A 
ATOM     10  C   UNL     1       7.035   5.758  17.028  0.00  0.00    +0.000 A 
ATOM     11 CL   UNL     1       7.855   6.711  18.203  0.00  0.00    +0.000 Cl
ENDBRANCH   1   4
BRANCH   1  12
ATOM     12  N   UNL     1       3.653   5.180  18.736  0.00  0.00    +0.000 N 
BRANCH  12  13
ATOM     13  C   UNL     1       2.584   4.225  18.842  0.00  0.00    +0.000 A 
ATOM     14  C   UNL     1       2.181   3.504  17.714  0.00  0.00    +0.000 A 
ATOM     15  C   UNL     1       1.192   2.521  17.822  0.00  0.00    +0.000 A 
ATOM     16  C   UNL     1       0.613   2.242  19.059  0.00  0.00    +0.000 A 
ATOM     17  C   UNL     1       1.002   2.960  20.188  0.00  0.00    +0.000 A 
ATOM     18  C   UNL     1       1.977   3.957  20.083  0.00  0.00    +0.000 A 
ATOM     19 CL   UNL     1       2.431   4.797  21.524  0.00  0.00    +0.000 Cl
ENDBRANCH  12  13
BRANCH  12  21
ATOM     20  C   UNL     1       3.467   7.332  17.545  0.00  0.00    +0.000 C 
ATOM     21  C   UNL     1       3.331   6.615  18.875  0.00  0.00    +0.000 C 
ENDBRANCH  12  21
ENDBRANCH   1  12
TORSDOF 4
ENDMDL
