MODEL 1
REMARK VINA RESULT:      -6.9      0.000      0.000
REMARK  Name = 
REMARK  12 active torsions:
REMARK  status: ('A' for Active; 'I' for Inactive)
REMARK    1  A    between atoms: C_2  and  C_3
REMARK    2  A    between atoms: C_2  and  C_4
REMARK    3  A    between atoms: C_4  and  O_5
REMARK    4  A    between atoms: O_5  and  C_6
REMARK    5  A    between atoms: C_6  and  C_8
REMARK    6  A    between atoms: C_9  and  C_10
REMARK    7  A    between atoms: N_16  and  C_17
REMARK    8  A    between atoms: C_17  and  C_18
REMARK    9  A    between atoms: C_18  and  C_19
REMARK   10  A    between atoms: C_19  and  C_20
REMARK   11  A    between atoms: C_20  and  C_21
REMARK   12  A    between atoms: C_22  and  N_23
REMARK                            x       y       z     vdW  Elec       q    Type
REMARK                         _______ _______ _______ _____ _____    ______ ____
ROOT
ATOM      1  C   UNL     1       3.157   5.140  17.786  0.00  0.00    +0.000 A 
ATOM      2  C   UNL     1       3.353   6.538  17.734  0.00  0.00    +0.000 A 
ATOM      3  C   UNL     1       2.237   7.542  17.869  0.00  0.00    +0.000 C 
ATOM      4  N   UNL     1       4.565   7.132  17.564  0.00  0.00    +0.000 NA
ATOM      5  C   UNL     1       5.595   6.268  17.465  0.00  0.00    +0.000 A 
ATOM      6  C   UNL     1       5.529   4.890  17.515  0.00  0.00    +0.000 A 
ATOM      7  C   UNL     1       6.872   4.468  17.374  0.00  0.00    +0.000 A 
ATOM      8  N   UNL     1       7.729   5.485  17.261  0.00  0.00    +0.000 NA
ATOM      9  N   UNL     1       6.922   6.574  17.285  0.00  0.00    +0.000 N 
ATOM     10  C   UNL     1       4.276   4.270  17.673  0.00  0.00    +0.000 A 
ENDROOT
BRANCH  10  11
ATOM     11  N   UNL     1       4.151   2.873  17.621  0.00  0.00    +0.000 N 
ATOM     12  H   UNL     1       4.870   2.387  17.090  0.00  0.00    +0.000 HD
ATOM     13  H   UNL     1       3.999   2.460  18.541  0.00  0.00    +0.000 HD
ENDBRANCH  10  11
BRANCH   1  14
ATOM     14  C   UNL     1       1.800   4.563  17.953  0.00  0.00    +0.000 C 
ATOM     15  O   UNL     1       1.120   4.119  17.040  0.00  0.00    +0.000 OA
BRANCH  14  16
ATOM     16  O   UNL     1       1.429   4.632  19.259  0.00  0.00    +0.000 OA
BRANCH  16  17
ATOM     17  C   UNL     1       1.002   3.404  19.857  0.00  0.00    +0.000 C 
BRANCH  17  19
ATOM     18  C   UNL     1       1.332   2.290  22.047  0.00  0.00    +0.000 C 
ATOM     19  C   UNL     1       1.656   3.282  21.209  0.00  0.00    +0.000 C 
ATOM     20  C   UNL     1       2.656   4.343  21.568  0.00  0.00    +0.000 C 
ENDBRANCH  17  19
ENDBRANCH  16  17
ENDBRANCH  14  16
ENDBRANCH   1  14
BRANCH   9  21
ATOM     21  C   UNL     1       7.511   7.892  17.158  0.00  0.00    +0.000 C 
BRANCH  21  22
ATOM     22  C   UNL     1       8.301   8.342  18.388  0.00  0.00    +0.000 C 
BRANCH  22  23
ATOM     23  C   UNL     1       8.752   9.805  18.330  0.00  0.00    +0.000 C 
BRANCH  23  24
ATOM     24  C   UNL     1       9.375  10.225  19.663  0.00  0.00    +0.000 C 
ATOM     25  C   UNL     1       9.691  11.711  19.702  0.00  0.00    +0.000 C 
ENDBRANCH  23  24
ENDBRANCH  22  23
ENDBRANCH  21  22
ENDBRANCH   9  21
TORSDOF 9
ENDMDL
MODEL 2
REMARK VINA RESULT:      -6.7      2.739      4.772
REMARK  Name = 
REMARK  12 active torsions:
REMARK  status: ('A' for Active; 'I' for Inactive)
REMARK    1  A    between atoms: C_2  and  C_3
REMARK    2  A    between atoms: C_2  and  C_4
REMARK    3  A    between atoms: C_4  and  O_5
REMARK    4  A    between atoms: O_5  and  C_6
REMARK    5  A    between atoms: C_6  and  C_8
REMARK    6  A    between atoms: C_9  and  C_10
REMARK    7  A    between atoms: N_16  and  C_17
REMARK    8  A    between atoms: C_17  and  C_18
REMARK    9  A    between atoms: C_18  and  C_19
REMARK   10  A    between atoms: C_19  and  C_20
REMARK   11  A    between atoms: C_20  and  C_21
REMARK   12  A    between atoms: C_22  and  N_23
REMARK                            x       y       z     vdW  Elec       q    Type
REMARK                         _______ _______ _______ _____ _____    ______ ____
ROOT
ATOM      1  C   UNL     1       2.659   4.360  18.201  0.00  0.00    +0.000 A 
ATOM      2  C   UNL     1       3.505   3.341  17.708  0.00  0.00    +0.000 A 
ATOM      3  C   UNL     1       3.230   1.870  17.887  0.00  0.00    +0.000 C 
ATOM      4  N   UNL     1       4.653   3.572  17.016  0.00  0.00    +0.000 NA
ATOM      5  C   UNL     1       4.922   4.877  16.811  0.00  0.00    +0.000 A 
ATOM      6  C   UNL     1       4.168   5.955  17.230  0.00  0.00    +0.000 A 
ATOM      7  C   UNL     1       4.876   7.085  16.756  0.00  0.00    +0.000 A 
ATOM      8  N   UNL     1       5.979   6.763  16.078  0.00  0.00    +0.000 NA
ATOM      9  N   UNL     1       6.004   5.409  16.154  0.00  0.00    +0.000 N 
ATOM     10  C   UNL     1       2.989   5.723  17.962  0.00  0.00    +0.000 A 
ENDROOT
BRANCH  10  11
ATOM     11  N   UNL     1       2.251   6.789  18.498  0.00  0.00    +0.000 N 
ATOM     12  H   UNL     1       2.719   7.324  19.225  0.00  0.00    +0.000 HD
ATOM     13  H   UNL     1       1.843   7.384  17.777  0.00  0.00    +0.000 HD
ENDBRANCH  10  11
BRANCH   1  14
ATOM     14  C   UNL     1       1.432   4.032  18.968  0.00  0.00    +0.000 C 
ATOM     15  O   UNL     1       0.545   3.290  18.571  0.00  0.00    +0.000 OA
BRANCH  14  16
ATOM     16  O   UNL     1       1.439   4.699  20.152  0.00  0.00    +0.000 OA
BRANCH  16  17
ATOM     17  C   UNL     1       2.523   4.397  21.038  0.00  0.00    +0.000 C 
BRANCH  17  19
ATOM     18  C   UNL     1       1.271   2.484  21.998  0.00  0.00    +0.000 C 
ATOM     19  C   UNL     1       2.402   2.955  21.460  0.00  0.00    +0.000 C 
ATOM     20  C   UNL     1       3.621   2.098  21.272  0.00  0.00    +0.000 C 
ENDBRANCH  17  19
ENDBRANCH  16  17
ENDBRANCH  14  16
ENDBRANCH   1  14
BRANCH   9  21
ATOM     21  C   UNL     1       7.100   4.688  15.536  0.00  0.00    +0.000 C 
BRANCH  21  22
ATOM     22  C   UNL     1       6.992   4.576  14.014  0.00  0.00    +0.000 C 
BRANCH  22  23
ATOM     23  C   UNL     1       5.640   4.040  13.531  0.00  0.00    +0.000 C 
BRANCH  23  24
ATOM     24  C   UNL     1       5.804   3.304  12.200  0.00  0.00    +0.000 C 
ATOM     25  C   UNL     1       4.475   3.105  11.491  0.00  0.00    +0.000 C 
ENDBRANCH  23  24
ENDBRANCH  22  23
ENDBRANCH  21  22
ENDBRANCH   9  21
TORSDOF 9
ENDMDL
MODEL 3
REMARK VINA RESULT:      -6.7      3.251      6.245
REMARK  Name = 
REMARK  12 active torsions:
REMARK  status: ('A' for Active; 'I' for Inactive)
REMARK    1  A    between atoms: C_2  and  C_3
REMARK    2  A    between atoms: C_2  and  C_4
REMARK    3  A    between atoms: C_4  and  O_5
REMARK    4  A    between atoms: O_5  and  C_6
REMARK    5  A    between atoms: C_6  and  C_8
REMARK    6  A    between atoms: C_9  and  C_10
REMARK    7  A    between atoms: N_16  and  C_17
REMARK    8  A    between atoms: C_17  and  C_18
REMARK    9  A    between atoms: C_18  and  C_19
REMARK   10  A    between atoms: C_19  and  C_20
REMARK   11  A    between atoms: C_20  and  C_21
REMARK   12  A    between atoms: C_22  and  N_23
REMARK                            x       y       z     vdW  Elec       q    Type
REMARK                         _______ _______ _______ _____ _____    ______ ____
ROOT
ATOM      1  C   UNL     1       4.722   5.170  17.386  0.00  0.00    +0.000 A 
ATOM      2  C   UNL     1       4.195   4.659  18.592  0.00  0.00    +0.000 A 
ATOM      3  C   UNL     1       4.550   3.305  19.150  0.00  0.00    +0.000 C 
ATOM      4  N   UNL     1       3.317   5.330  19.385  0.00  0.00    +0.000 NA
ATOM      5  C   UNL     1       2.993   6.559  18.935  0.00  0.00    +0.000 A 
ATOM      6  C   UNL     1       3.452   7.167  17.784  0.00  0.00    +0.000 A 
ATOM      7  C   UNL     1       2.822   8.434  17.781  0.00  0.00    +0.000 A 
ATOM      8  N   UNL     1       2.040   8.630  18.844  0.00  0.00    +0.000 NA
ATOM      9  N   UNL     1       2.134   7.458  19.518  0.00  0.00    +0.000 N 
ATOM     10  C   UNL     1       4.346   6.471  16.950  0.00  0.00    +0.000 A 
ENDROOT
BRANCH  10  11
ATOM     11  N   UNL     1       4.752   7.008  15.720  0.00  0.00    +0.000 N 
ATOM     12  H   UNL     1       4.137   7.715  15.325  0.00  0.00    +0.000 HD
ATOM     13  H   UNL     1       5.730   7.301  15.725  0.00  0.00    +0.000 HD
ENDBRANCH  10  11
BRANCH   1  14
ATOM     14  C   UNL     1       5.660   4.369  16.560  0.00  0.00    +0.000 C 
ATOM     15  O   UNL     1       5.367   3.327  15.994  0.00  0.00    +0.000 OA
BRANCH  14  16
ATOM     16  O   UNL     1       6.886   4.957  16.558  0.00  0.00    +0.000 OA
BRANCH  16  17
ATOM     17  C   UNL     1       7.743   4.628  17.656  0.00  0.00    +0.000 C 
BRANCH  17  19
ATOM     18  C   UNL     1       7.850   5.656  19.909  0.00  0.00    +0.000 C 
ATOM     19  C   UNL     1       7.808   5.816  18.581  0.00  0.00    +0.000 C 
ATOM     20  C   UNL     1       7.791   7.171  17.935  0.00  0.00    +0.000 C 
ENDBRANCH  17  19
ENDBRANCH  16  17
ENDBRANCH  14  16
ENDBRANCH   1  14
BRANCH   9  21
ATOM     21  C   UNL     1       1.381   7.286  20.745  0.00  0.00    +0.000 C 
BRANCH  21  22
ATOM     22  C   UNL     1       0.535   8.502  21.131  0.00  0.00    +0.000 C 
BRANCH  22  23
ATOM     23  C   UNL     1       1.024   9.216  22.395  0.00  0.00    +0.000 C 
BRANCH  23  24
ATOM     24  C   UNL     1      -0.156   9.546  23.311  0.00  0.00    +0.000 C 
ATOM     25  C   UNL     1      -0.891  10.800  22.865  0.00  0.00    +0.000 C 
ENDBRANCH  23  24
ENDBRANCH  22  23
ENDBRANCH  21  22
ENDBRANCH   9  21
TORSDOF 9
ENDMDL
MODEL 4
REMARK VINA RESULT:      -6.7      4.496      7.727
REMARK  Name = 
REMARK  12 active torsions:
REMARK  status: ('A' for Active; 'I' for Inactive)
REMARK    1  A    between atoms: C_2  and  C_3
REMARK    2  A    between atoms: C_2  and  C_4
REMARK    3  A    between atoms: C_4  and  O_5
REMARK    4  A    between atoms: O_5  and  C_6
REMARK    5  A    between atoms: C_6  and  C_8
REMARK    6  A    between atoms: C_9  and  C_10
REMARK    7  A    between atoms: N_16  and  C_17
REMARK    8  A    between atoms: C_17  and  C_18
REMARK    9  A    between atoms: C_18  and  C_19
REMARK   10  A    between atoms: C_19  and  C_20
REMARK   11  A    between atoms: C_20  and  C_21
REMARK   12  A    between atoms: C_22  and  N_23
REMARK                            x       y       z     vdW  Elec       q    Type
REMARK                         _______ _______ _______ _____ _____    ______ ____
ROOT
ATOM      1  C   UNL     1       0.816   9.867  19.994  0.00  0.00    +0.000 A 
ATOM      2  C   UNL     1       0.662   8.962  21.068  0.00  0.00    +0.000 A 
ATOM      3  C   UNL     1      -0.100   9.285  22.328  0.00  0.00    +0.000 C 
ATOM      4  N   UNL     1       1.174   7.702  21.083  0.00  0.00    +0.000 NA
ATOM      5  C   UNL     1       1.842   7.363  19.961  0.00  0.00    +0.000 A 
ATOM      6  C   UNL     1       2.045   8.154  18.847  0.00  0.00    +0.000 A 
ATOM      7  C   UNL     1       2.785   7.332  17.964  0.00  0.00    +0.000 A 
ATOM      8  N   UNL     1       3.023   6.116  18.459  0.00  0.00    +0.000 NA
ATOM      9  N   UNL     1       2.465   6.170  19.694  0.00  0.00    +0.000 N 
ATOM     10  C   UNL     1       1.533   9.464  18.834  0.00  0.00    +0.000 A 
ENDROOT
BRANCH  10  11
ATOM     11  N   UNL     1       1.808  10.335  17.769  0.00  0.00    +0.000 N 
ATOM     12  H   UNL     1       2.278  11.201  18.021  0.00  0.00    +0.000 HD
ATOM     13  H   UNL     1       2.255   9.862  16.983  0.00  0.00    +0.000 HD
ENDBRANCH  10  11
BRANCH   1  14
ATOM     14  C   UNL     1       0.246  11.235  20.059  0.00  0.00    +0.000 C 
ATOM     15  O   UNL     1       0.879  12.235  20.366  0.00  0.00    +0.000 OA
BRANCH  14  16
ATOM     16  O   UNL     1      -1.078  11.196  19.753  0.00  0.00    +0.000 OA
BRANCH  16  17
ATOM     17  C   UNL     1      -1.485  11.973  18.622  0.00  0.00    +0.000 C 
BRANCH  17  19
ATOM     18  C   UNL     1      -3.679  11.449  17.593  0.00  0.00    +0.000 C 
ATOM     19  C   UNL     1      -2.392  11.127  17.766  0.00  0.00    +0.000 C 
ATOM     20  C   UNL     1      -1.781   9.899  17.153  0.00  0.00    +0.000 C 
ENDBRANCH  17  19
ENDBRANCH  16  17
ENDBRANCH  14  16
ENDBRANCH   1  14
BRANCH   9  21
ATOM     21  C   UNL     1       2.550   5.008  20.557  0.00  0.00    +0.000 C 
BRANCH  21  22
ATOM     22  C   UNL     1       1.257   4.194  20.634  0.00  0.00    +0.000 C 
BRANCH  22  23
ATOM     23  C   UNL     1       1.422   2.732  20.207  0.00  0.00    +0.000 C 
BRANCH  23  24
ATOM     24  C   UNL     1       1.052   2.562  18.733  0.00  0.00    +0.000 C 
ATOM     25  C   UNL     1       2.278   2.387  17.853  0.00  0.00    +0.000 C 
ENDBRANCH  23  24
ENDBRANCH  22  23
ENDBRANCH  21  22
ENDBRANCH   9  21
TORSDOF 9
ENDMDL
MODEL 5
REMARK VINA RESULT:      -6.6      3.281      5.607
REMARK  Name = 
REMARK  12 active torsions:
REMARK  status: ('A' for Active; 'I' for Inactive)
REMARK    1  A    between atoms: C_2  and  C_3
REMARK    2  A    between atoms: C_2  and  C_4
REMARK    3  A    between atoms: C_4  and  O_5
REMARK    4  A    between atoms: O_5  and  C_6
REMARK    5  A    between atoms: C_6  and  C_8
REMARK    6  A    between atoms: C_9  and  C_10
REMARK    7  A    between atoms: N_16  and  C_17
REMARK    8  A    between atoms: C_17  and  C_18
REMARK    9  A    between atoms: C_18  and  C_19
REMARK   10  A    between atoms: C_19  and  C_20
REMARK   11  A    between atoms: C_20  and  C_21
REMARK   12  A    between atoms: C_22  and  N_23
REMARK                            x       y       z     vdW  Elec       q    Type
REMARK                         _______ _______ _______ _____ _____    ______ ____
ROOT
ATOM      1  C   UNL     1       4.758   3.868  18.328  0.00  0.00    +0.000 A 
ATOM      2  C   UNL     1       4.058   3.300  17.240  0.00  0.00    +0.000 A 
ATOM      3  C   UNL     1       2.760   2.547  17.385  0.00  0.00    +0.000 C 
ATOM      4  N   UNL     1       4.470   3.375  15.946  0.00  0.00    +0.000 NA
ATOM      5  C   UNL     1       5.615   4.064  15.769  0.00  0.00    +0.000 A 
ATOM      6  C   UNL     1       6.377   4.671  16.747  0.00  0.00    +0.000 A 
ATOM      7  C   UNL     1       7.454   5.257  16.041  0.00  0.00    +0.000 A 
ATOM      8  N   UNL     1       7.383   5.059  14.723  0.00  0.00    +0.000 NA
ATOM      9  N   UNL     1       6.269   4.299  14.584  0.00  0.00    +0.000 N 
ATOM     10  C   UNL     1       5.965   4.582  18.090  0.00  0.00    +0.000 A 
ENDROOT
BRANCH  10  11
ATOM     11  N   UNL     1       6.764   5.091  19.124  0.00  0.00    +0.000 N 
ATOM     12  H   UNL     1       7.398   5.841  18.860  0.00  0.00    +0.000 HD
ATOM     13  H   UNL     1       6.225   5.312  19.962  0.00  0.00    +0.000 HD
ENDBRANCH  10  11
BRANCH   1  14
ATOM     14  C   UNL     1       4.258   3.727  19.718  0.00  0.00    +0.000 C 
ATOM     15  O   UNL     1       4.623   2.861  20.500  0.00  0.00    +0.000 OA
BRANCH  14  16
ATOM     16  O   UNL     1       3.324   4.682  19.968  0.00  0.00    +0.000 OA
BRANCH  16  17
ATOM     17  C   UNL     1       2.586   4.535  21.186  0.00  0.00    +0.000 C 
BRANCH  17  19
ATOM     18  C   UNL     1       0.590   3.676  19.994  0.00  0.00    +0.000 C 
ATOM     19  C   UNL     1       1.499   3.516  20.963  0.00  0.00    +0.000 C 
ATOM     20  C   UNL     1       1.477   2.343  21.900  0.00  0.00    +0.000 C 
ENDBRANCH  17  19
ENDBRANCH  16  17
ENDBRANCH  14  16
ENDBRANCH   1  14
BRANCH   9  21
ATOM     21  C   UNL     1       5.877   3.856  13.260  0.00  0.00    +0.000 C 
BRANCH  21  22
ATOM     22  C   UNL     1       6.994   3.948  12.218  0.00  0.00    +0.000 C 
BRANCH  22  23
ATOM     23  C   UNL     1       7.101   2.712  11.319  0.00  0.00    +0.000 C 
BRANCH  23  24
ATOM     24  C   UNL     1       5.873   1.817  11.495  0.00  0.00    +0.000 C 
ATOM     25  C   UNL     1       6.178   0.362  11.183  0.00  0.00    +0.000 C 
ENDBRANCH  23  24
ENDBRANCH  22  23
ENDBRANCH  21  22
ENDBRANCH   9  21
TORSDOF 9
ENDMDL
MODEL 6
REMARK VINA RESULT:      -6.6      3.265      6.989
REMARK  Name = 
REMARK  12 active torsions:
REMARK  status: ('A' for Active; 'I' for Inactive)
REMARK    1  A    between atoms: C_2  and  C_3
REMARK    2  A    between atoms: C_2  and  C_4
REMARK    3  A    between atoms: C_4  and  O_5
REMARK    4  A    between atoms: O_5  and  C_6
REMARK    5  A    between atoms: C_6  and  C_8
REMARK    6  A    between atoms: C_9  and  C_10
REMARK    7  A    between atoms: N_16  and  C_17
REMARK    8  A    between atoms: C_17  and  C_18
REMARK    9  A    between atoms: C_18  and  C_19
REMARK   10  A    between atoms: C_19  and  C_20
REMARK   11  A    between atoms: C_20  and  C_21
REMARK   12  A    between atoms: C_22  and  N_23
REMARK                            x       y       z     vdW  Elec       q    Type
REMARK                         _______ _______ _______ _____ _____    ______ ____
ROOT
ATOM      1  C   UNL     1       6.107   6.098  17.647  0.00  0.00    +0.000 A 
ATOM      2  C   UNL     1       6.231   5.480  18.911  0.00  0.00    +0.000 A 
ATOM      3  C   UNL     1       7.547   5.044  19.501  0.00  0.00    +0.000 C 
ATOM      4  N   UNL     1       5.182   5.215  19.736  0.00  0.00    +0.000 NA
ATOM      5  C   UNL     1       3.987   5.613  19.256  0.00  0.00    +0.000 A 
ATOM      6  C   UNL     1       3.745   6.236  18.048  0.00  0.00    +0.000 A 
ATOM      7  C   UNL     1       2.345   6.445  18.036  0.00  0.00    +0.000 A 
ATOM      8  N   UNL     1       1.742   6.010  19.144  0.00  0.00    +0.000 NA
ATOM      9  N   UNL     1       2.762   5.476  19.860  0.00  0.00    +0.000 N 
ATOM     10  C   UNL     1       4.823   6.496  17.183  0.00  0.00    +0.000 A 
ENDROOT
BRANCH  10  11
ATOM     11  N   UNL     1       4.608   7.029  15.903  0.00  0.00    +0.000 N 
ATOM     12  H   UNL     1       4.386   6.352  15.177  0.00  0.00    +0.000 HD
ATOM     13  H   UNL     1       3.962   7.818  15.912  0.00  0.00    +0.000 HD
ENDBRANCH  10  11
BRANCH   1  14
ATOM     14  C   UNL     1       7.296   6.335  16.791  0.00  0.00    +0.000 C 
ATOM     15  O   UNL     1       7.880   7.405  16.699  0.00  0.00    +0.000 OA
BRANCH  14  16
ATOM     16  O   UNL     1       7.610   5.198  16.116  0.00  0.00    +0.000 OA
BRANCH  16  17
ATOM     17  C   UNL     1       7.287   5.186  14.721  0.00  0.00    +0.000 C 
BRANCH  17  19
ATOM     18  C   UNL     1       5.714   3.424  15.475  0.00  0.00    +0.000 C 
ATOM     19  C   UNL     1       6.330   4.050  14.465  0.00  0.00    +0.000 C 
ATOM     20  C   UNL     1       6.137   3.646  13.032  0.00  0.00    +0.000 C 
ENDBRANCH  17  19
ENDBRANCH  16  17
ENDBRANCH  14  16
ENDBRANCH   1  14
BRANCH   9  21
ATOM     21  C   UNL     1       2.477   4.869  21.146  0.00  0.00    +0.000 C 
BRANCH  21  22
ATOM     22  C   UNL     1       2.365   3.344  21.102  0.00  0.00    +0.000 C 
BRANCH  22  23
ATOM     23  C   UNL     1       1.035   2.840  20.531  0.00  0.00    +0.000 C 
BRANCH  23  24
ATOM     24  C   UNL     1       1.184   2.510  19.045  0.00  0.00    +0.000 C 
ATOM     25  C   UNL     1       2.570   1.983  18.714  0.00  0.00    +0.000 C 
ENDBRANCH  23  24
ENDBRANCH  22  23
ENDBRANCH  21  22
ENDBRANCH   9  21
TORSDOF 9
ENDMDL
MODEL 7
REMARK VINA RESULT:      -6.6      3.185      5.499
REMARK  Name = 
REMARK  12 active torsions:
REMARK  status: ('A' for Active; 'I' for Inactive)
REMARK    1  A    between atoms: C_2  and  C_3
REMARK    2  A    between atoms: C_2  and  C_4
REMARK    3  A    between atoms: C_4  and  O_5
REMARK    4  A    between atoms: O_5  and  C_6
REMARK    5  A    between atoms: C_6  and  C_8
REMARK    6  A    between atoms: C_9  and  C_10
REMARK    7  A    between atoms: N_16  and  C_17
REMARK    8  A    between atoms: C_17  and  C_18
REMARK    9  A    between atoms: C_18  and  C_19
REMARK   10  A    between atoms: C_19  and  C_20
REMARK   11  A    between atoms: C_20  and  C_21
REMARK   12  A    between atoms: C_22  and  N_23
REMARK                            x       y       z     vdW  Elec       q    Type
REMARK                         _______ _______ _______ _____ _____    ______ ____
ROOT
ATOM      1  C   UNL     1       4.188   4.117  18.650  0.00  0.00    +0.000 A 
ATOM      2  C   UNL     1       3.492   3.901  17.440  0.00  0.00    +0.000 A 
ATOM      3  C   UNL     1       2.073   3.396  17.373  0.00  0.00    +0.000 C 
ATOM      4  N   UNL     1       4.017   4.128  16.207  0.00  0.00    +0.000 NA
ATOM      5  C   UNL     1       5.278   4.606  16.222  0.00  0.00    +0.000 A 
ATOM      6  C   UNL     1       6.051   4.869  17.336  0.00  0.00    +0.000 A 
ATOM      7  C   UNL     1       7.271   5.356  16.810  0.00  0.00    +0.000 A 
ATOM      8  N   UNL     1       7.277   5.418  15.477  0.00  0.00    +0.000 NA
ATOM      9  N   UNL     1       6.060   4.923  15.139  0.00  0.00    +0.000 N 
ATOM     10  C   UNL     1       5.519   4.618  18.614  0.00  0.00    +0.000 A 
ENDROOT
BRANCH  10  11
ATOM     11  N   UNL     1       6.306   4.769  19.765  0.00  0.00    +0.000 N 
ATOM     12  H   UNL     1       5.795   4.824  20.643  0.00  0.00    +0.000 HD
ATOM     13  H   UNL     1       7.076   4.101  19.803  0.00  0.00    +0.000 HD
ENDBRANCH  10  11
BRANCH   1  14
ATOM     14  C   UNL     1       3.556   3.824  19.960  0.00  0.00    +0.000 C 
ATOM     15  O   UNL     1       3.351   2.700  20.394  0.00  0.00    +0.000 OA
BRANCH  14  16
ATOM     16  O   UNL     1       3.222   4.988  20.578  0.00  0.00    +0.000 OA
BRANCH  16  17
ATOM     17  C   UNL     1       1.891   5.462  20.349  0.00  0.00    +0.000 C 
BRANCH  17  19
ATOM     18  C   UNL     1       1.500   7.849  20.893  0.00  0.00    +0.000 C 
ATOM     19  C   UNL     1       1.959   6.933  20.031  0.00  0.00    +0.000 C 
ATOM     20  C   UNL     1       2.535   7.304  18.695  0.00  0.00    +0.000 C 
ENDBRANCH  17  19
ENDBRANCH  16  17
ENDBRANCH  14  16
ENDBRANCH   1  14
BRANCH   9  21
ATOM     21  C   UNL     1       5.709   4.811  13.737  0.00  0.00    +0.000 C 
BRANCH  21  22
ATOM     22  C   UNL     1       6.263   3.558  13.055  0.00  0.00    +0.000 C 
BRANCH  22  23
ATOM     23  C   UNL     1       5.567   3.217  11.734  0.00  0.00    +0.000 C 
BRANCH  23  24
ATOM     24  C   UNL     1       5.641   1.712  11.465  0.00  0.00    +0.000 C 
ATOM     25  C   UNL     1       6.990   1.300  10.900  0.00  0.00    +0.000 C 
ENDBRANCH  23  24
ENDBRANCH  22  23
ENDBRANCH  21  22
ENDBRANCH   9  21
TORSDOF 9
ENDMDL
MODEL 8
REMARK VINA RESULT:      -6.6      1.002      1.112
REMARK  Name = 
REMARK  12 active torsions:
REMARK  status: ('A' for Active; 'I' for Inactive)
REMARK    1  A    between atoms: C_2  and  C_3
REMARK    2  A    between atoms: C_2  and  C_4
REMARK    3  A    between atoms: C_4  and  O_5
REMARK    4  A    between atoms: O_5  and  C_6
REMARK    5  A    between atoms: C_6  and  C_8
REMARK    6  A    between atoms: C_9  and  C_10
REMARK    7  A    between atoms: N_16  and  C_17
REMARK    8  A    between atoms: C_17  and  C_18
REMARK    9  A    between atoms: C_18  and  C_19
REMARK   10  A    between atoms: C_19  and  C_20
REMARK   11  A    between atoms: C_20  and  C_21
REMARK   12  A    between atoms: C_22  and  N_23
REMARK                            x       y       z     vdW  Elec       q    Type
REMARK                         _______ _______ _______ _____ _____    ______ ____
ROOT
ATOM      1  C   UNL     1       3.386   4.707  17.488  0.00  0.00    +0.000 A 
ATOM      2  C   UNL     1       3.333   6.069  17.861  0.00  0.00    +0.000 A 
ATOM      3  C   UNL     1       2.098   6.737  18.407  0.00  0.00    +0.000 C 
ATOM      4  N   UNL     1       4.387   6.925  17.774  0.00  0.00    +0.000 NA
ATOM      5  C   UNL     1       5.521   6.360  17.313  0.00  0.00    +0.000 A 
ATOM      6  C   UNL     1       5.697   5.044  16.933  0.00  0.00    +0.000 A 
ATOM      7  C   UNL     1       7.055   4.970  16.543  0.00  0.00    +0.000 A 
ATOM      8  N   UNL     1       7.701   6.130  16.675  0.00  0.00    +0.000 NA
ATOM      9  N   UNL     1       6.734   6.973  17.116  0.00  0.00    +0.000 N 
ATOM     10  C   UNL     1       4.606   4.159  17.003  0.00  0.00    +0.000 A 
ENDROOT
BRANCH  10  11
ATOM     11  N   UNL     1       4.712   2.844  16.527  0.00  0.00    +0.000 N 
ATOM     12  H   UNL     1       4.395   2.696  15.571  0.00  0.00    +0.000 HD
ATOM     13  H   UNL     1       5.632   2.439  16.700  0.00  0.00    +0.000 HD
ENDBRANCH  10  11
BRANCH   1  14
ATOM     14  C   UNL     1       2.187   3.839  17.590  0.00  0.00    +0.000 C 
ATOM     15  O   UNL     1       1.081   4.133  17.162  0.00  0.00    +0.000 OA
BRANCH  14  16
ATOM     16  O   UNL     1       2.505   2.694  18.250  0.00  0.00    +0.000 OA
BRANCH  16  17
ATOM     17  C   UNL     1       1.755   2.425  19.439  0.00  0.00    +0.000 C 
BRANCH  17  19
ATOM     18  C   UNL     1       3.971   2.529  20.545  0.00  0.00    +0.000 C 
ATOM     19  C   UNL     1       2.644   2.677  20.630  0.00  0.00    +0.000 C 
ATOM     20  C   UNL     1       1.959   3.067  21.907  0.00  0.00    +0.000 C 
ENDBRANCH  17  19
ENDBRANCH  16  17
ENDBRANCH  14  16
ENDBRANCH   1  14
BRANCH   9  21
ATOM     21  C   UNL     1       7.066   8.364  17.355  0.00  0.00    +0.000 C 
BRANCH  21  22
ATOM     22  C   UNL     1       8.352   8.567  18.160  0.00  0.00    +0.000 C 
BRANCH  22  23
ATOM     23  C   UNL     1       8.811  10.027  18.229  0.00  0.00    +0.000 C 
BRANCH  23  24
ATOM     24  C   UNL     1       9.385  10.340  19.613  0.00  0.00    +0.000 C 
ATOM     25  C   UNL     1       9.608  11.830  19.814  0.00  0.00    +0.000 C 
ENDBRANCH  23  24
ENDBRANCH  22  23
ENDBRANCH  21  22
ENDBRANCH   9  21
TORSDOF 9
ENDMDL
MODEL 9
REMARK VINA RESULT:      -6.6      3.265      5.571
REMARK  Name = 
REMARK  12 active torsions:
REMARK  status: ('A' for Active; 'I' for Inactive)
REMARK    1  A    between atoms: C_2  and  C_3
REMARK    2  A    between atoms: C_2  and  C_4
REMARK    3  A    between atoms: C_4  and  O_5
REMARK    4  A    between atoms: O_5  and  C_6
REMARK    5  A    between atoms: C_6  and  C_8
REMARK    6  A    between atoms: C_9  and  C_10
REMARK    7  A    between atoms: N_16  and  C_17
REMARK    8  A    between atoms: C_17  and  C_18
REMARK    9  A    between atoms: C_18  and  C_19
REMARK   10  A    between atoms: C_19  and  C_20
REMARK   11  A    between atoms: C_20  and  C_21
REMARK   12  A    between atoms: C_22  and  N_23
REMARK                            x       y       z     vdW  Elec       q    Type
REMARK                         _______ _______ _______ _____ _____    ______ ____
ROOT
ATOM      1  C   UNL     1       4.888   3.739  18.557  0.00  0.00    +0.000 A 
ATOM      2  C   UNL     1       4.529   2.969  17.428  0.00  0.00    +0.000 A 
ATOM      3  C   UNL     1       3.525   1.846  17.470  0.00  0.00    +0.000 C 
ATOM      4  N   UNL     1       5.041   3.157  16.182  0.00  0.00    +0.000 NA
ATOM      5  C   UNL     1       5.926   4.171  16.096  0.00  0.00    +0.000 A 
ATOM      6  C   UNL     1       6.342   4.997  17.120  0.00  0.00    +0.000 A 
ATOM      7  C   UNL     1       7.255   5.887  16.505  0.00  0.00    +0.000 A 
ATOM      8  N   UNL     1       7.401   5.664  15.198  0.00  0.00    +0.000 NA
ATOM      9  N   UNL     1       6.604   4.589  14.977  0.00  0.00    +0.000 N 
ATOM     10  C   UNL     1       5.829   4.795  18.415  0.00  0.00    +0.000 A 
ENDROOT
BRANCH  10  11
ATOM     11  N   UNL     1       6.305   5.542  19.504  0.00  0.00    +0.000 N 
ATOM     12  H   UNL     1       6.285   6.551  19.386  0.00  0.00    +0.000 HD
ATOM     13  H   UNL     1       5.898   5.243  20.390  0.00  0.00    +0.000 HD
ENDBRANCH  10  11
BRANCH   1  14
ATOM     14  C   UNL     1       4.302   3.460  19.891  0.00  0.00    +0.000 C 
ATOM     15  O   UNL     1       4.532   2.459  20.553  0.00  0.00    +0.000 OA
BRANCH  14  16
ATOM     16  O   UNL     1       3.460   4.469  20.242  0.00  0.00    +0.000 OA
BRANCH  16  17
ATOM     17  C   UNL     1       2.207   4.511  19.551  0.00  0.00    +0.000 C 
BRANCH  17  19
ATOM     18  C   UNL     1       1.288   3.150  21.408  0.00  0.00    +0.000 C 
ATOM     19  C   UNL     1       1.327   3.417  20.097  0.00  0.00    +0.000 C 
ATOM     20  C   UNL     1       0.530   2.634  19.094  0.00  0.00    +0.000 C 
ENDBRANCH  17  19
ENDBRANCH  16  17
ENDBRANCH  14  16
ENDBRANCH   1  14
BRANCH   9  21
ATOM     21  C   UNL     1       6.524   4.032  13.641  0.00  0.00    +0.000 C 
BRANCH  21  22
ATOM     22  C   UNL     1       5.095   3.829  13.135  0.00  0.00    +0.000 C 
BRANCH  22  23
ATOM     23  C   UNL     1       5.000   3.619  11.621  0.00  0.00    +0.000 C 
BRANCH  23  24
ATOM     24  C   UNL     1       3.573   3.239  11.223  0.00  0.00    +0.000 C 
ATOM     25  C   UNL     1       3.158   3.876   9.908  0.00  0.00    +0.000 C 
ENDBRANCH  23  24
ENDBRANCH  22  23
ENDBRANCH  21  22
ENDBRANCH   9  21
TORSDOF 9
ENDMDL
