MODEL 1
REMARK VINA RESULT:      -8.3      0.000      0.000
REMARK  Name = 
REMARK  7 active torsions:
REMARK  status: ('A' for Active; 'I' for Inactive)
REMARK    1  A    between atoms: C_1  and  O_2
REMARK    2  A    between atoms: O_2  and  C_3
REMARK    3  A    between atoms: C_8  and  C_9
REMARK    4  A    between atoms: N_11  and  C_12
REMARK    5  A    between atoms: C_12  and  C_13
REMARK    6  A    between atoms: C_16  and  C_17
REMARK    7  A    between atoms: C_17  and  C_18
REMARK                            x       y       z     vdW  Elec       q    Type
REMARK                         _______ _______ _______ _____ _____    ______ ____
ROOT
ATOM      1  C   UNL     1       4.294   3.628  17.146  0.00  0.00    +0.000 C 
ATOM      2  O   UNL     1       3.102   3.588  16.861  0.00  0.00    +0.000 OA
ATOM      3  N   UNL     1       4.758   3.223  18.375  0.00  0.00    +0.000 N 
ATOM      4  H   UNL     1       5.759   3.180  18.554  0.00  0.00    +0.000 HD
ENDROOT
BRANCH   1  10
ATOM      5  C   UNL     1       6.289   5.066  16.395  0.00  0.00    +0.000 A 
ATOM      6  N   UNL     1       7.165   5.523  15.459  0.00  0.00    +0.000 NA
ATOM      7  C   UNL     1       7.051   4.989  14.236  0.00  0.00    +0.000 A 
ATOM      8  C   UNL     1       6.133   4.015  13.891  0.00  0.00    +0.000 A 
ATOM      9  C   UNL     1       5.228   3.575  14.844  0.00  0.00    +0.000 A 
ATOM     10  C   UNL     1       5.285   4.121  16.140  0.00  0.00    +0.000 A 
ATOM     11  C   UNL     1       6.335   3.543  12.493  0.00  0.00    +0.000 C 
ATOM     12  C   UNL     1       7.328   4.572  11.924  0.00  0.00    +0.000 C 
ATOM     13  C   UNL     1       7.949   5.348  13.093  0.00  0.00    +0.000 C 
BRANCH   5  15
ATOM     14  C   UNL     1       7.643   5.226  18.283  0.00  0.00    +0.000 C 
ATOM     15  O   UNL     1       6.412   5.599  17.664  0.00  0.00    +0.000 OA
ENDBRANCH   5  15
ENDBRANCH   1  10
BRANCH   3  16
ATOM     16  C   UNL     1       3.868   2.696  19.393  0.00  0.00    +0.000 C 
BRANCH  16  17
ATOM     17  C   UNL     1       2.881   3.731  19.818  0.00  0.00    +0.000 A 
ATOM     18  N   UNL     1       1.567   3.475  19.925  0.00  0.00    +0.000 NA
ATOM     19  O   UNL     1       1.031   4.691  20.345  0.00  0.00    +0.000 OA
ATOM     20  C   UNL     1       2.079   5.561  20.457  0.00  0.00    +0.000 A 
ATOM     21  N   UNL     1       3.240   5.020  20.158  0.00  0.00    +0.000 NA
BRANCH  20  22
ATOM     22  C   UNL     1       1.751   6.944  20.896  0.00  0.00    +0.000 C 
BRANCH  22  23
ATOM     23  C   UNL     1       1.741   7.912  19.747  0.00  0.00    +0.000 A 
ATOM     24  C   UNL     1       2.335   7.769  18.507  0.00  0.00    +0.000 A 
ATOM     25  C   UNL     1       2.174   8.925  17.692  0.00  0.00    +0.000 A 
ATOM     26  C   UNL     1       1.431   9.899  18.322  0.00  0.00    +0.000 A 
ATOM     27  S   UNL     1       0.931   9.417  19.884  0.00  0.00    +0.000 S 
ENDBRANCH  22  23
ENDBRANCH  20  22
ENDBRANCH  16  17
ENDBRANCH   3  16
TORSDOF 6
ENDMDL
MODEL 2
REMARK VINA RESULT:      -8.1      2.112      2.806
REMARK  Name = 
REMARK  7 active torsions:
REMARK  status: ('A' for Active; 'I' for Inactive)
REMARK    1  A    between atoms: C_1  and  O_2
REMARK    2  A    between atoms: O_2  and  C_3
REMARK    3  A    between atoms: C_8  and  C_9
REMARK    4  A    between atoms: N_11  and  C_12
REMARK    5  A    between atoms: C_12  and  C_13
REMARK    6  A    between atoms: C_16  and  C_17
REMARK    7  A    between atoms: C_17  and  C_18
REMARK                            x       y       z     vdW  Elec       q    Type
REMARK                         _______ _______ _______ _____ _____    ______ ____
ROOT
ATOM      1  C   UNL     1       4.312   4.751  17.576  0.00  0.00    +0.000 C 
ATOM      2  O   UNL     1       3.832   3.659  17.860  0.00  0.00    +0.000 OA
ATOM      3  N   UNL     1       3.963   5.894  18.257  0.00  0.00    +0.000 N 
ATOM      4  H   UNL     1       4.442   6.770  18.063  0.00  0.00    +0.000 HD
ENDROOT
BRANCH   1  10
ATOM      5  C   UNL     1       6.520   5.568  16.543  0.00  0.00    +0.000 A 
ATOM      6  N   UNL     1       7.404   5.681  15.514  0.00  0.00    +0.000 NA
ATOM      7  C   UNL     1       7.078   5.038  14.385  0.00  0.00    +0.000 A 
ATOM      8  C   UNL     1       5.938   4.274  14.222  0.00  0.00    +0.000 A 
ATOM      9  C   UNL     1       5.032   4.186  15.266  0.00  0.00    +0.000 A 
ATOM     10  C   UNL     1       5.310   4.862  16.468  0.00  0.00    +0.000 A 
ATOM     11  C   UNL     1       5.920   3.594  12.897  0.00  0.00    +0.000 C 
ATOM     12  C   UNL     1       7.075   4.277  12.145  0.00  0.00    +0.000 C 
ATOM     13  C   UNL     1       7.945   5.026  13.164  0.00  0.00    +0.000 C 
BRANCH   5  15
ATOM     14  C   UNL     1       7.485   7.472  17.474  0.00  0.00    +0.000 C 
ATOM     15  O   UNL     1       6.858   6.213  17.717  0.00  0.00    +0.000 OA
ENDBRANCH   5  15
ENDBRANCH   1  10
BRANCH   3  16
ATOM     16  C   UNL     1       3.032   5.867  19.370  0.00  0.00    +0.000 C 
BRANCH  16  17
ATOM     17  C   UNL     1       2.322   7.173  19.497  0.00  0.00    +0.000 A 
ATOM     18  N   UNL     1       1.647   7.524  20.604  0.00  0.00    +0.000 NA
ATOM     19  O   UNL     1       1.158   8.793  20.298  0.00  0.00    +0.000 OA
ATOM     20  C   UNL     1       1.593   9.086  19.036  0.00  0.00    +0.000 A 
ATOM     21  N   UNL     1       2.324   8.131  18.502  0.00  0.00    +0.000 NA
BRANCH  20  22
ATOM     22  C   UNL     1       1.190  10.407  18.483  0.00  0.00    +0.000 C 
BRANCH  22  23
ATOM     23  C   UNL     1      -0.301  10.531  18.355  0.00  0.00    +0.000 A 
ATOM     24  C   UNL     1      -1.158   9.763  17.591  0.00  0.00    +0.000 A 
ATOM     25  C   UNL     1      -2.505  10.218  17.663  0.00  0.00    +0.000 A 
ATOM     26  C   UNL     1      -2.640  11.297  18.508  0.00  0.00    +0.000 A 
ATOM     27  S   UNL     1      -1.149  11.752  19.210  0.00  0.00    +0.000 S 
ENDBRANCH  22  23
ENDBRANCH  20  22
ENDBRANCH  16  17
ENDBRANCH   3  16
TORSDOF 6
ENDMDL
MODEL 3
REMARK VINA RESULT:      -7.8      2.033      2.750
REMARK  Name = 
REMARK  7 active torsions:
REMARK  status: ('A' for Active; 'I' for Inactive)
REMARK    1  A    between atoms: C_1  and  O_2
REMARK    2  A    between atoms: O_2  and  C_3
REMARK    3  A    between atoms: C_8  and  C_9
REMARK    4  A    between atoms: N_11  and  C_12
REMARK    5  A    between atoms: C_12  and  C_13
REMARK    6  A    between atoms: C_16  and  C_17
REMARK    7  A    between atoms: C_17  and  C_18
REMARK                            x       y       z     vdW  Elec       q    Type
REMARK                         _______ _______ _______ _____ _____    ______ ____
ROOT
ATOM      1  C   UNL     1       4.796   4.739  17.798  0.00  0.00    +0.000 C 
ATOM      2  O   UNL     1       4.710   3.672  18.395  0.00  0.00    +0.000 OA
ATOM      3  N   UNL     1       4.130   5.864  18.225  0.00  0.00    +0.000 N 
ATOM      4  H   UNL     1       4.289   6.758  17.766  0.00  0.00    +0.000 HD
ENDROOT
BRANCH   1  10
ATOM      5  C   UNL     1       6.859   5.549  16.494  0.00  0.00    +0.000 A 
ATOM      6  N   UNL     1       7.610   5.655  15.364  0.00  0.00    +0.000 NA
ATOM      7  C   UNL     1       7.149   5.003  14.289  0.00  0.00    +0.000 A 
ATOM      8  C   UNL     1       5.998   4.238  14.273  0.00  0.00    +0.000 A 
ATOM      9  C   UNL     1       5.228   4.156  15.421  0.00  0.00    +0.000 A 
ATOM     10  C   UNL     1       5.651   4.842  16.574  0.00  0.00    +0.000 A 
ATOM     11  C   UNL     1       5.819   3.547  12.965  0.00  0.00    +0.000 C 
ATOM     12  C   UNL     1       6.872   4.225  12.071  0.00  0.00    +0.000 C 
ATOM     13  C   UNL     1       7.859   4.983  12.971  0.00  0.00    +0.000 C 
BRANCH   5  15
ATOM     14  C   UNL     1       7.497   7.603  17.387  0.00  0.00    +0.000 C 
ATOM     15  O   UNL     1       7.338   6.203  17.613  0.00  0.00    +0.000 OA
ENDBRANCH   5  15
ENDBRANCH   1  10
BRANCH   3  16
ATOM     16  C   UNL     1       3.312   5.859  19.424  0.00  0.00    +0.000 C 
BRANCH  16  17
ATOM     17  C   UNL     1       2.459   7.082  19.487  0.00  0.00    +0.000 A 
ATOM     18  N   UNL     1       1.874   7.496  20.621  0.00  0.00    +0.000 NA
ATOM     19  O   UNL     1       1.194   8.650  20.234  0.00  0.00    +0.000 OA
ATOM     20  C   UNL     1       1.444   8.822  18.902  0.00  0.00    +0.000 A 
ATOM     21  N   UNL     1       2.226   7.894  18.394  0.00  0.00    +0.000 NA
BRANCH  20  22
ATOM     22  C   UNL     1       0.815  10.005  18.255  0.00  0.00    +0.000 C 
BRANCH  22  23
ATOM     23  C   UNL     1       1.336  11.297  18.816  0.00  0.00    +0.000 A 
ATOM     24  C   UNL     1       2.299  12.131  18.282  0.00  0.00    +0.000 A 
ATOM     25  C   UNL     1       2.590  13.237  19.130  0.00  0.00    +0.000 A 
ATOM     26  C   UNL     1       1.813  13.232  20.268  0.00  0.00    +0.000 A 
ATOM     27  S   UNL     1       0.741  11.901  20.306  0.00  0.00    +0.000 S 
ENDBRANCH  22  23
ENDBRANCH  20  22
ENDBRANCH  16  17
ENDBRANCH   3  16
TORSDOF 6
ENDMDL
MODEL 4
REMARK VINA RESULT:      -7.7      2.783      3.567
REMARK  Name = 
REMARK  7 active torsions:
REMARK  status: ('A' for Active; 'I' for Inactive)
REMARK    1  A    between atoms: C_1  and  O_2
REMARK    2  A    between atoms: O_2  and  C_3
REMARK    3  A    between atoms: C_8  and  C_9
REMARK    4  A    between atoms: N_11  and  C_12
REMARK    5  A    between atoms: C_12  and  C_13
REMARK    6  A    between atoms: C_16  and  C_17
REMARK    7  A    between atoms: C_17  and  C_18
REMARK                            x       y       z     vdW  Elec       q    Type
REMARK                         _______ _______ _______ _____ _____    ______ ____
ROOT
ATOM      1  C   UNL     1       4.500   5.439  17.520  0.00  0.00    +0.000 C 
ATOM      2  O   UNL     1       4.405   4.585  18.395  0.00  0.00    +0.000 OA
ATOM      3  N   UNL     1       3.770   6.604  17.563  0.00  0.00    +0.000 N 
ATOM      4  H   UNL     1       3.934   7.335  16.875  0.00  0.00    +0.000 HD
ENDROOT
BRANCH   1  10
ATOM      5  C   UNL     1       6.778   5.629  16.343  0.00  0.00    +0.000 A 
ATOM      6  N   UNL     1       7.606   5.454  15.277  0.00  0.00    +0.000 NA
ATOM      7  C   UNL     1       7.077   4.827  14.218  0.00  0.00    +0.000 A 
ATOM      8  C   UNL     1       5.782   4.347  14.161  0.00  0.00    +0.000 A 
ATOM      9  C   UNL     1       4.939   4.552  15.240  0.00  0.00    +0.000 A 
ATOM     10  C   UNL     1       5.434   5.228  16.371  0.00  0.00    +0.000 A 
ATOM     11  C   UNL     1       5.533   3.596  12.898  0.00  0.00    +0.000 C 
ATOM     12  C   UNL     1       6.773   3.929  12.050  0.00  0.00    +0.000 C 
ATOM     13  C   UNL     1       7.848   4.521  12.972  0.00  0.00    +0.000 C 
BRANCH   5  15
ATOM     14  C   UNL     1       7.417   7.670  17.263  0.00  0.00    +0.000 C 
ATOM     15  O   UNL     1       7.321   6.258  17.446  0.00  0.00    +0.000 OA
ENDBRANCH   5  15
ENDBRANCH   1  10
BRANCH   3  16
ATOM     16  C   UNL     1       2.871   6.903  18.662  0.00  0.00    +0.000 C 
BRANCH  16  17
ATOM     17  C   UNL     1       2.242   8.243  18.480  0.00  0.00    +0.000 A 
ATOM     18  N   UNL     1       2.482   9.014  17.407  0.00  0.00    +0.000 NA
ATOM     19  O   UNL     1       1.703  10.147  17.640  0.00  0.00    +0.000 OA
ATOM     20  C   UNL     1       1.063   9.943  18.830  0.00  0.00    +0.000 A 
ATOM     21  N   UNL     1       1.348   8.784  19.384  0.00  0.00    +0.000 NA
BRANCH  20  22
ATOM     22  C   UNL     1       0.163  11.032  19.296  0.00  0.00    +0.000 C 
BRANCH  22  23
ATOM     23  C   UNL     1      -1.216  10.911  18.712  0.00  0.00    +0.000 A 
ATOM     24  C   UNL     1      -1.660  10.021  17.752  0.00  0.00    +0.000 A 
ATOM     25  C   UNL     1      -3.018  10.247  17.391  0.00  0.00    +0.000 A 
ATOM     26  C   UNL     1      -3.579  11.278  18.112  0.00  0.00    +0.000 A 
ATOM     27  S   UNL     1      -2.471  11.964  19.218  0.00  0.00    +0.000 S 
ENDBRANCH  22  23
ENDBRANCH  20  22
ENDBRANCH  16  17
ENDBRANCH   3  16
TORSDOF 6
ENDMDL
MODEL 5
REMARK VINA RESULT:      -7.7      1.562      1.998
REMARK  Name = 
REMARK  7 active torsions:
REMARK  status: ('A' for Active; 'I' for Inactive)
REMARK    1  A    between atoms: C_1  and  O_2
REMARK    2  A    between atoms: O_2  and  C_3
REMARK    3  A    between atoms: C_8  and  C_9
REMARK    4  A    between atoms: N_11  and  C_12
REMARK    5  A    between atoms: C_12  and  C_13
REMARK    6  A    between atoms: C_16  and  C_17
REMARK    7  A    between atoms: C_17  and  C_18
REMARK                            x       y       z     vdW  Elec       q    Type
REMARK                         _______ _______ _______ _____ _____    ______ ____
ROOT
ATOM      1  C   UNL     1       4.996   4.338  17.761  0.00  0.00    +0.000 C 
ATOM      2  O   UNL     1       5.546   3.990  18.800  0.00  0.00    +0.000 OA
ATOM      3  N   UNL     1       3.635   4.522  17.689  0.00  0.00    +0.000 N 
ATOM      4  H   UNL     1       3.214   4.898  16.842  0.00  0.00    +0.000 HD
ENDROOT
BRANCH   1  10
ATOM      5  C   UNL     1       6.955   5.392  16.472  0.00  0.00    +0.000 A 
ATOM      6  N   UNL     1       7.669   5.626  15.337  0.00  0.00    +0.000 NA
ATOM      7  C   UNL     1       7.240   5.001  14.234  0.00  0.00    +0.000 A 
ATOM      8  C   UNL     1       6.157   4.144  14.192  0.00  0.00    +0.000 A 
ATOM      9  C   UNL     1       5.421   3.932  15.347  0.00  0.00    +0.000 A 
ATOM     10  C   UNL     1       5.811   4.583  16.531  0.00  0.00    +0.000 A 
ATOM     11  C   UNL     1       6.006   3.517  12.849  0.00  0.00    +0.000 C 
ATOM     12  C   UNL     1       6.979   4.332  11.979  0.00  0.00    +0.000 C 
ATOM     13  C   UNL     1       7.919   5.116  12.904  0.00  0.00    +0.000 C 
BRANCH   5  15
ATOM     14  C   UNL     1       7.540   7.428  17.441  0.00  0.00    +0.000 C 
ATOM     15  O   UNL     1       7.403   6.019  17.620  0.00  0.00    +0.000 OA
ENDBRANCH   5  15
ENDBRANCH   1  10
BRANCH   3  16
ATOM     16  C   UNL     1       2.777   4.343  18.845  0.00  0.00    +0.000 C 
BRANCH  16  17
ATOM     17  C   UNL     1       2.344   5.663  19.391  0.00  0.00    +0.000 A 
ATOM     18  N   UNL     1       1.713   5.785  20.570  0.00  0.00    +0.000 NA
ATOM     19  O   UNL     1       1.504   7.158  20.686  0.00  0.00    +0.000 OA
ATOM     20  C   UNL     1       2.037   7.731  19.566  0.00  0.00    +0.000 A 
ATOM     21  N   UNL     1       2.577   6.859  18.741  0.00  0.00    +0.000 NA
BRANCH  20  22
ATOM     22  C   UNL     1       1.932   9.211  19.461  0.00  0.00    +0.000 C 
BRANCH  22  23
ATOM     23  C   UNL     1       0.575   9.647  18.986  0.00  0.00    +0.000 A 
ATOM     24  C   UNL     1       0.027   9.503  17.725  0.00  0.00    +0.000 A 
ATOM     25  C   UNL     1      -1.261  10.102  17.623  0.00  0.00    +0.000 A 
ATOM     26  C   UNL     1      -1.670  10.652  18.818  0.00  0.00    +0.000 A 
ATOM     27  S   UNL     1      -0.506  10.441  20.053  0.00  0.00    +0.000 S 
ENDBRANCH  22  23
ENDBRANCH  20  22
ENDBRANCH  16  17
ENDBRANCH   3  16
TORSDOF 6
ENDMDL
MODEL 6
REMARK VINA RESULT:      -7.7      2.153      2.791
REMARK  Name = 
REMARK  7 active torsions:
REMARK  status: ('A' for Active; 'I' for Inactive)
REMARK    1  A    between atoms: C_1  and  O_2
REMARK    2  A    between atoms: O_2  and  C_3
REMARK    3  A    between atoms: C_8  and  C_9
REMARK    4  A    between atoms: N_11  and  C_12
REMARK    5  A    between atoms: C_12  and  C_13
REMARK    6  A    between atoms: C_16  and  C_17
REMARK    7  A    between atoms: C_17  and  C_18
REMARK                            x       y       z     vdW  Elec       q    Type
REMARK                         _______ _______ _______ _____ _____    ______ ____
ROOT
ATOM      1  C   UNL     1       4.457   4.857  17.430  0.00  0.00    +0.000 C 
ATOM      2  O   UNL     1       4.005   3.774  17.785  0.00  0.00    +0.000 OA
ATOM      3  N   UNL     1       4.103   6.029  18.055  0.00  0.00    +0.000 N 
ATOM      4  H   UNL     1       4.561   6.902  17.801  0.00  0.00    +0.000 HD
ENDROOT
BRANCH   1  10
ATOM      5  C   UNL     1       6.635   5.637  16.307  0.00  0.00    +0.000 A 
ATOM      6  N   UNL     1       7.493   5.708  15.253  0.00  0.00    +0.000 NA
ATOM      7  C   UNL     1       7.143   5.015  14.162  0.00  0.00    +0.000 A 
ATOM      8  C   UNL     1       6.003   4.240  14.061  0.00  0.00    +0.000 A 
ATOM      9  C   UNL     1       5.123   4.193  15.129  0.00  0.00    +0.000 A 
ATOM     10  C   UNL     1       5.427   4.923  16.293  0.00  0.00    +0.000 A 
ATOM     11  C   UNL     1       5.956   3.502  12.768  0.00  0.00    +0.000 C 
ATOM     12  C   UNL     1       7.089   4.156  11.957  0.00  0.00    +0.000 C 
ATOM     13  C   UNL     1       7.979   4.953  12.922  0.00  0.00    +0.000 C 
BRANCH   5  15
ATOM     14  C   UNL     1       7.690   5.508  18.379  0.00  0.00    +0.000 C 
ATOM     15  O   UNL     1       6.998   6.334  17.443  0.00  0.00    +0.000 OA
ENDBRANCH   5  15
ENDBRANCH   1  10
BRANCH   3  16
ATOM     16  C   UNL     1       3.198   6.048  19.190  0.00  0.00    +0.000 C 
BRANCH  16  17
ATOM     17  C   UNL     1       2.400   7.308  19.208  0.00  0.00    +0.000 A 
ATOM     18  N   UNL     1       2.202   8.054  18.109  0.00  0.00    +0.000 NA
ATOM     19  O   UNL     1       1.417   9.110  18.569  0.00  0.00    +0.000 OA
ATOM     20  C   UNL     1       1.212   8.893  19.902  0.00  0.00    +0.000 A 
ATOM     21  N   UNL     1       1.784   7.793  20.345  0.00  0.00    +0.000 NA
BRANCH  20  22
ATOM     22  C   UNL     1       0.392   9.903  20.623  0.00  0.00    +0.000 C 
BRANCH  22  23
ATOM     23  C   UNL     1       0.255  11.178  19.841  0.00  0.00    +0.000 A 
ATOM     24  C   UNL     1       1.183  12.192  19.695  0.00  0.00    +0.000 A 
ATOM     25  C   UNL     1       0.677  13.285  18.936  0.00  0.00    +0.000 A 
ATOM     26  C   UNL     1      -0.607  13.055  18.495  0.00  0.00    +0.000 A 
ATOM     27  S   UNL     1      -1.194  11.529  18.994  0.00  0.00    +0.000 S 
ENDBRANCH  22  23
ENDBRANCH  20  22
ENDBRANCH  16  17
ENDBRANCH   3  16
TORSDOF 6
ENDMDL
MODEL 7
REMARK VINA RESULT:      -7.6      2.065      2.801
REMARK  Name = 
REMARK  7 active torsions:
REMARK  status: ('A' for Active; 'I' for Inactive)
REMARK    1  A    between atoms: C_1  and  O_2
REMARK    2  A    between atoms: O_2  and  C_3
REMARK    3  A    between atoms: C_8  and  C_9
REMARK    4  A    between atoms: N_11  and  C_12
REMARK    5  A    between atoms: C_12  and  C_13
REMARK    6  A    between atoms: C_16  and  C_17
REMARK    7  A    between atoms: C_17  and  C_18
REMARK                            x       y       z     vdW  Elec       q    Type
REMARK                         _______ _______ _______ _____ _____    ______ ____
ROOT
ATOM      1  C   UNL     1       4.954   4.875  17.682  0.00  0.00    +0.000 C 
ATOM      2  O   UNL     1       5.474   4.488  18.723  0.00  0.00    +0.000 OA
ATOM      3  N   UNL     1       3.652   5.316  17.644  0.00  0.00    +0.000 N 
ATOM      4  H   UNL     1       3.274   5.717  16.788  0.00  0.00    +0.000 HD
ENDROOT
BRANCH   1  10
ATOM      5  C   UNL     1       6.980   5.522  16.236  0.00  0.00    +0.000 A 
ATOM      6  N   UNL     1       7.671   5.540  15.064  0.00  0.00    +0.000 NA
ATOM      7  C   UNL     1       7.120   4.868  14.046  0.00  0.00    +0.000 A 
ATOM      8  C   UNL     1       5.934   4.163  14.125  0.00  0.00    +0.000 A 
ATOM      9  C   UNL     1       5.225   4.170  15.314  0.00  0.00    +0.000 A 
ATOM     10  C   UNL     1       5.744   4.882  16.412  0.00  0.00    +0.000 A 
ATOM     11  C   UNL     1       5.650   3.428  12.861  0.00  0.00    +0.000 C 
ATOM     12  C   UNL     1       6.684   4.013  11.883  0.00  0.00    +0.000 C 
ATOM     13  C   UNL     1       7.755   4.756  12.694  0.00  0.00    +0.000 C 
BRANCH   5  15
ATOM     14  C   UNL     1       7.290   7.599  17.242  0.00  0.00    +0.000 C 
ATOM     15  O   UNL     1       7.551   6.197  17.298  0.00  0.00    +0.000 OA
ENDBRANCH   5  15
ENDBRANCH   1  10
BRANCH   3  16
ATOM     16  C   UNL     1       2.830   5.378  18.838  0.00  0.00    +0.000 C 
BRANCH  16  17
ATOM     17  C   UNL     1       2.351   6.770  19.078  0.00  0.00    +0.000 A 
ATOM     18  N   UNL     1       1.878   7.177  20.267  0.00  0.00    +0.000 NA
ATOM     19  O   UNL     1       1.556   8.515  20.050  0.00  0.00    +0.000 OA
ATOM     20  C   UNL     1       1.874   8.787  18.749  0.00  0.00    +0.000 A 
ATOM     21  N   UNL     1       2.378   7.754  18.108  0.00  0.00    +0.000 NA
BRANCH  20  22
ATOM     22  C   UNL     1       1.614  10.173  18.276  0.00  0.00    +0.000 C 
BRANCH  22  23
ATOM     23  C   UNL     1       0.224  10.631  18.613  0.00  0.00    +0.000 A 
ATOM     24  C   UNL     1      -0.168  11.499  19.614  0.00  0.00    +0.000 A 
ATOM     25  C   UNL     1      -1.583  11.646  19.681  0.00  0.00    +0.000 A 
ATOM     26  C   UNL     1      -2.223  10.915  18.706  0.00  0.00    +0.000 A 
ATOM     27  S   UNL     1      -1.122  10.060  17.717  0.00  0.00    +0.000 S 
ENDBRANCH  22  23
ENDBRANCH  20  22
ENDBRANCH  16  17
ENDBRANCH   3  16
TORSDOF 6
ENDMDL
MODEL 8
REMARK VINA RESULT:      -7.6      2.250      2.813
REMARK  Name = 
REMARK  7 active torsions:
REMARK  status: ('A' for Active; 'I' for Inactive)
REMARK    1  A    between atoms: C_1  and  O_2
REMARK    2  A    between atoms: O_2  and  C_3
REMARK    3  A    between atoms: C_8  and  C_9
REMARK    4  A    between atoms: N_11  and  C_12
REMARK    5  A    between atoms: C_12  and  C_13
REMARK    6  A    between atoms: C_16  and  C_17
REMARK    7  A    between atoms: C_17  and  C_18
REMARK                            x       y       z     vdW  Elec       q    Type
REMARK                         _______ _______ _______ _____ _____    ______ ____
ROOT
ATOM      1  C   UNL     1       4.359   4.790  17.354  0.00  0.00    +0.000 C 
ATOM      2  O   UNL     1       3.968   3.692  17.734  0.00  0.00    +0.000 OA
ATOM      3  N   UNL     1       3.909   5.957  17.925  0.00  0.00    +0.000 N 
ATOM      4  H   UNL     1       4.316   6.849  17.654  0.00  0.00    +0.000 HD
ENDROOT
BRANCH   1  10
ATOM      5  C   UNL     1       6.551   5.620  16.296  0.00  0.00    +0.000 A 
ATOM      6  N   UNL     1       7.436   5.715  15.266  0.00  0.00    +0.000 NA
ATOM      7  C   UNL     1       7.130   5.021  14.162  0.00  0.00    +0.000 A 
ATOM      8  C   UNL     1       6.009   4.225  14.025  0.00  0.00    +0.000 A 
ATOM      9  C   UNL     1       5.101   4.154  15.069  0.00  0.00    +0.000 A 
ATOM     10  C   UNL     1       5.359   4.883  16.245  0.00  0.00    +0.000 A 
ATOM     11  C   UNL     1       6.013   3.494  12.727  0.00  0.00    +0.000 C 
ATOM     12  C   UNL     1       7.154   4.176  11.952  0.00  0.00    +0.000 C 
ATOM     13  C   UNL     1       8.001   4.984  12.945  0.00  0.00    +0.000 C 
BRANCH   5  15
ATOM     14  C   UNL     1       7.634   5.527  18.355  0.00  0.00    +0.000 C 
ATOM     15  O   UNL     1       6.869   6.317  17.446  0.00  0.00    +0.000 OA
ENDBRANCH   5  15
ENDBRANCH   1  10
BRANCH   3  16
ATOM     16  C   UNL     1       2.969   5.953  19.031  0.00  0.00    +0.000 C 
BRANCH  16  17
ATOM     17  C   UNL     1       2.350   7.300  19.203  0.00  0.00    +0.000 A 
ATOM     18  N   UNL     1       2.404   8.246  18.251  0.00  0.00    +0.000 NA
ATOM     19  O   UNL     1       1.711   9.316  18.816  0.00  0.00    +0.000 OA
ATOM     20  C   UNL     1       1.301   8.906  20.054  0.00  0.00    +0.000 A 
ATOM     21  N   UNL     1       1.656   7.671  20.338  0.00  0.00    +0.000 NA
BRANCH  20  22
ATOM     22  C   UNL     1       0.532   9.891  20.860  0.00  0.00    +0.000 C 
BRANCH  22  23
ATOM     23  C   UNL     1      -0.561  10.542  20.060  0.00  0.00    +0.000 A 
ATOM     24  C   UNL     1      -1.143  10.094  18.890  0.00  0.00    +0.000 A 
ATOM     25  C   UNL     1      -2.102  11.012  18.375  0.00  0.00    +0.000 A 
ATOM     26  C   UNL     1      -2.248  12.114  19.188  0.00  0.00    +0.000 A 
ATOM     27  S   UNL     1      -1.234  12.037  20.563  0.00  0.00    +0.000 S 
ENDBRANCH  22  23
ENDBRANCH  20  22
ENDBRANCH  16  17
ENDBRANCH   3  16
TORSDOF 6
ENDMDL
MODEL 9
REMARK VINA RESULT:      -7.6      2.968      7.810
REMARK  Name = 
REMARK  7 active torsions:
REMARK  status: ('A' for Active; 'I' for Inactive)
REMARK    1  A    between atoms: C_1  and  O_2
REMARK    2  A    between atoms: O_2  and  C_3
REMARK    3  A    between atoms: C_8  and  C_9
REMARK    4  A    between atoms: N_11  and  C_12
REMARK    5  A    between atoms: C_12  and  C_13
REMARK    6  A    between atoms: C_16  and  C_17
REMARK    7  A    between atoms: C_17  and  C_18
REMARK                            x       y       z     vdW  Elec       q    Type
REMARK                         _______ _______ _______ _____ _____    ______ ____
ROOT
ATOM      1  C   UNL     1       3.587   5.077  18.042  0.00  0.00    +0.000 C 
ATOM      2  O   UNL     1       2.975   4.226  17.406  0.00  0.00    +0.000 OA
ATOM      3  N   UNL     1       4.953   5.028  18.190  0.00  0.00    +0.000 N 
ATOM      4  H   UNL     1       5.446   5.793  18.644  0.00  0.00    +0.000 HD
ENDROOT
BRANCH   1  10
ATOM      5  C   UNL     1       2.292   6.191  19.965  0.00  0.00    +0.000 A 
ATOM      6  N   UNL     1       1.596   7.223  20.514  0.00  0.00    +0.000 NA
ATOM      7  C   UNL     1       1.480   8.323  19.759  0.00  0.00    +0.000 A 
ATOM      8  C   UNL     1       2.029   8.467  18.499  0.00  0.00    +0.000 A 
ATOM      9  C   UNL     1       2.714   7.402  17.937  0.00  0.00    +0.000 A 
ATOM     10  C   UNL     1       2.845   6.211  18.676  0.00  0.00    +0.000 A 
ATOM     11  C   UNL     1       1.827   9.844  17.968  0.00  0.00    +0.000 C 
ATOM     12  C   UNL     1       0.818  10.449  18.960  0.00  0.00    +0.000 C 
ATOM     13  C   UNL     1       0.776   9.564  20.213  0.00  0.00    +0.000 C 
BRANCH   5  15
ATOM     14  C   UNL     1       1.274   4.226  20.691  0.00  0.00    +0.000 C 
ATOM     15  O   UNL     1       2.432   5.059  20.745  0.00  0.00    +0.000 OA
ENDBRANCH   5  15
ENDBRANCH   1  10
BRANCH   3  16
ATOM     16  C   UNL     1       5.751   3.984  17.574  0.00  0.00    +0.000 C 
BRANCH  16  17
ATOM     17  C   UNL     1       6.436   4.493  16.351  0.00  0.00    +0.000 A 
ATOM     18  N   UNL     1       7.379   5.448  16.396  0.00  0.00    +0.000 NA
ATOM     19  O   UNL     1       7.741   5.611  15.059  0.00  0.00    +0.000 OA
ATOM     20  C   UNL     1       6.983   4.731  14.339  0.00  0.00    +0.000 A 
ATOM     21  N   UNL     1       6.172   4.011  15.084  0.00  0.00    +0.000 NA
BRANCH  20  22
ATOM     22  C   UNL     1       7.193   4.722  12.866  0.00  0.00    +0.000 C 
BRANCH  22  23
ATOM     23  C   UNL     1       6.364   3.670  12.186  0.00  0.00    +0.000 A 
ATOM     24  C   UNL     1       5.000   3.672  11.963  0.00  0.00    +0.000 A 
ATOM     25  C   UNL     1       4.549   2.469  11.350  0.00  0.00    +0.000 A 
ATOM     26  C   UNL     1       5.587   1.602  11.091  0.00  0.00    +0.000 A 
ATOM     27  S   UNL     1       7.094   2.241  11.584  0.00  0.00    +0.000 S 
ENDBRANCH  22  23
ENDBRANCH  20  22
ENDBRANCH  16  17
ENDBRANCH   3  16
TORSDOF 6
ENDMDL
