MODEL 1
REMARK VINA RESULT:      -7.6      0.000      0.000
REMARK  Name = 
REMARK  8 active torsions:
REMARK  status: ('A' for Active; 'I' for Inactive)
REMARK    1  A    between atoms: C_1  and  N_2
REMARK    2  A    between atoms: N_2  and  C_3
REMARK    3  A    between atoms: N_2  and  C_4
REMARK    4  A    between atoms: C_4  and  C_5
REMARK    5  A    between atoms: C_5  and  C_6
REMARK    6  A    between atoms: C_6  and  N_7
REMARK    7  A    between atoms: C_12  and  N_13
REMARK    8  A    between atoms: C_16  and  N_17
REMARK                            x       y       z     vdW  Elec       q    Type
REMARK                         _______ _______ _______ _____ _____    ______ ____
ROOT
ATOM      1  N   UNL     1       1.974   6.971  20.791  0.00  0.00    +0.000 N 
ATOM      2  C   UNL     1       2.455   5.709  20.467  0.00  0.00    +0.000 A 
ATOM      3  N   UNL     1       1.991   4.701  21.206  0.00  0.00    +0.000 NA
ATOM      4  C   UNL     1       2.519   3.488  21.005  0.00  0.00    +0.000 A 
ATOM      5  N   UNL     1       1.925   2.478  21.759  0.00  0.00    +0.000 N 
ATOM      6  C   UNL     1       3.484   3.278  20.040  0.00  0.00    +0.000 A 
ATOM      7  C   UNL     1       3.878   4.338  19.227  0.00  0.00    +0.000 A 
ATOM      8  N   UNL     1       3.348   5.554  19.485  0.00  0.00    +0.000 NA
ATOM      9  H   UNL     1       1.132   6.820  21.336  0.00  0.00    +0.000 HD
ATOM     10  H   UNL     1       1.309   2.882  22.459  0.00  0.00    +0.000 HD
ATOM     11  H   UNL     1       2.534   1.753  22.120  0.00  0.00    +0.000 HD
ENDROOT
BRANCH   7  12
ATOM     12  N   UNL     1       4.761   4.267  18.157  0.00  0.00    +0.000 N 
ATOM     13  C   UNL     1       6.172   4.564  18.432  0.00  0.00    +0.000 C 
ATOM     14  C   UNL     1       6.525   6.018  18.130  0.00  0.00    +0.000 C 
ATOM     15  C   UNL     1       6.697   6.326  16.645  0.00  0.00    +0.000 C 
ATOM     16  C   UNL     1       5.473   6.018  15.786  0.00  0.00    +0.000 C 
ATOM     17  C   UNL     1       5.198   4.523  15.678  0.00  0.00    +0.000 C 
ATOM     18  C   UNL     1       4.318   3.967  16.794  0.00  0.00    +0.000 C 
ENDBRANCH   7  12
BRANCH   6  19
ATOM     19  N   UNL     1       4.207   2.044  20.056  0.00  0.00    +0.000 N 
ATOM     20  O   UNL     1       5.010   1.844  20.984  0.00  0.00    +0.000 OA
ATOM     21  O   UNL     1       4.027   1.266  19.111  0.00  0.00    +0.000 OA
ENDBRANCH   6  19
BRANCH   1  22
ATOM     22  C   UNL     1       1.839   7.908  19.685  0.00  0.00    +0.000 C 
BRANCH  22  23
ATOM     23  C   UNL     1       1.095   9.151  20.184  0.00  0.00    +0.000 C 
BRANCH  23  24
ATOM     24  C   UNL     1       0.712   9.074  21.668  0.00  0.00    +0.000 C 
BRANCH  24  26
ATOM     25  C   UNL     1       0.203  11.428  21.288  0.00  0.00    +0.000 C 
ATOM     26  N   UNL     1       0.392  10.371  22.286  0.00  0.00    +0.000 NA
ATOM     27  C   UNL     1      -0.813  10.259  23.114  0.00  0.00    +0.000 C 
ENDBRANCH  24  26
ENDBRANCH  23  24
ENDBRANCH  22  23
ENDBRANCH   1  22
TORSDOF 6
ENDMDL
MODEL 2
REMARK VINA RESULT:      -7.4      1.242      1.917
REMARK  Name = 
REMARK  8 active torsions:
REMARK  status: ('A' for Active; 'I' for Inactive)
REMARK    1  A    between atoms: C_1  and  N_2
REMARK    2  A    between atoms: N_2  and  C_3
REMARK    3  A    between atoms: N_2  and  C_4
REMARK    4  A    between atoms: C_4  and  C_5
REMARK    5  A    between atoms: C_5  and  C_6
REMARK    6  A    between atoms: C_6  and  N_7
REMARK    7  A    between atoms: C_12  and  N_13
REMARK    8  A    between atoms: C_16  and  N_17
REMARK                            x       y       z     vdW  Elec       q    Type
REMARK                         _______ _______ _______ _____ _____    ______ ____
ROOT
ATOM      1  N   UNL     1       1.308   6.984  21.146  0.00  0.00    +0.000 N 
ATOM      2  C   UNL     1       1.989   6.015  20.419  0.00  0.00    +0.000 A 
ATOM      3  N   UNL     1       1.436   4.802  20.407  0.00  0.00    +0.000 NA
ATOM      4  C   UNL     1       2.120   3.813  19.819  0.00  0.00    +0.000 A 
ATOM      5  N   UNL     1       1.439   2.598  19.778  0.00  0.00    +0.000 N 
ATOM      6  C   UNL     1       3.340   4.046  19.216  0.00  0.00    +0.000 A 
ATOM      7  C   UNL     1       3.842   5.344  19.172  0.00  0.00    +0.000 A 
ATOM      8  N   UNL     1       3.139   6.309  19.806  0.00  0.00    +0.000 NA
ATOM      9  H   UNL     1       0.364   6.634  21.267  0.00  0.00    +0.000 HD
ATOM     10  H   UNL     1       0.609   2.644  20.362  0.00  0.00    +0.000 HD
ATOM     11  H   UNL     1       1.987   1.757  19.913  0.00  0.00    +0.000 HD
ENDROOT
BRANCH   7  12
ATOM     12  N   UNL     1       5.000   5.755  18.523  0.00  0.00    +0.000 N 
ATOM     13  C   UNL     1       4.848   6.328  17.181  0.00  0.00    +0.000 C 
ATOM     14  C   UNL     1       5.061   5.290  16.082  0.00  0.00    +0.000 C 
ATOM     15  C   UNL     1       6.524   4.943  15.823  0.00  0.00    +0.000 C 
ATOM     16  C   UNL     1       7.275   4.407  17.039  0.00  0.00    +0.000 C 
ATOM     17  C   UNL     1       7.480   5.470  18.112  0.00  0.00    +0.000 C 
ATOM     18  C   UNL     1       6.331   5.581  19.109  0.00  0.00    +0.000 C 
ENDBRANCH   7  12
BRANCH   6  19
ATOM     19  N   UNL     1       4.149   2.922  18.857  0.00  0.00    +0.000 N 
ATOM     20  O   UNL     1       3.990   2.419  17.731  0.00  0.00    +0.000 OA
ATOM     21  O   UNL     1       4.926   2.484  19.713  0.00  0.00    +0.000 OA
ENDBRANCH   6  19
BRANCH   1  22
ATOM     22  C   UNL     1       1.406   8.347  20.641  0.00  0.00    +0.000 C 
BRANCH  22  23
ATOM     23  C   UNL     1       1.173   9.316  21.805  0.00  0.00    +0.000 C 
BRANCH  23  24
ATOM     24  C   UNL     1       0.383  10.569  21.403  0.00  0.00    +0.000 C 
BRANCH  24  26
ATOM     25  C   UNL     1      -0.523  12.716  22.121  0.00  0.00    +0.000 C 
ATOM     26  N   UNL     1      -0.110  11.371  22.534  0.00  0.00    +0.000 NA
ATOM     27  C   UNL     1      -1.234  10.694  23.188  0.00  0.00    +0.000 C 
ENDBRANCH  24  26
ENDBRANCH  23  24
ENDBRANCH  22  23
ENDBRANCH   1  22
TORSDOF 6
ENDMDL
MODEL 3
REMARK VINA RESULT:      -7.4      1.346      1.786
REMARK  Name = 
REMARK  8 active torsions:
REMARK  status: ('A' for Active; 'I' for Inactive)
REMARK    1  A    between atoms: C_1  and  N_2
REMARK    2  A    between atoms: N_2  and  C_3
REMARK    3  A    between atoms: N_2  and  C_4
REMARK    4  A    between atoms: C_4  and  C_5
REMARK    5  A    between atoms: C_5  and  C_6
REMARK    6  A    between atoms: C_6  and  N_7
REMARK    7  A    between atoms: C_12  and  N_13
REMARK    8  A    between atoms: C_16  and  N_17
REMARK                            x       y       z     vdW  Elec       q    Type
REMARK                         _______ _______ _______ _____ _____    ______ ____
ROOT
ATOM      1  N   UNL     1       2.003   7.067  20.500  0.00  0.00    +0.000 N 
ATOM      2  C   UNL     1       2.454   5.798  20.158  0.00  0.00    +0.000 A 
ATOM      3  N   UNL     1       1.897   4.784  20.819  0.00  0.00    +0.000 NA
ATOM      4  C   UNL     1       2.388   3.558  20.604  0.00  0.00    +0.000 A 
ATOM      5  N   UNL     1       1.700   2.546  21.270  0.00  0.00    +0.000 N 
ATOM      6  C   UNL     1       3.412   3.344  19.703  0.00  0.00    +0.000 A 
ATOM      7  C   UNL     1       3.907   4.416  18.966  0.00  0.00    +0.000 A 
ATOM      8  N   UNL     1       3.409   5.643  19.236  0.00  0.00    +0.000 NA
ATOM      9  H   UNL     1       1.118   6.932  20.976  0.00  0.00    +0.000 HD
ATOM     10  H   UNL     1       1.051   2.949  21.941  0.00  0.00    +0.000 HD
ATOM     11  H   UNL     1       2.250   1.782  21.644  0.00  0.00    +0.000 HD
ENDROOT
BRANCH   7  12
ATOM     12  N   UNL     1       4.862   4.349  17.960  0.00  0.00    +0.000 N 
ATOM     13  C   UNL     1       6.260   4.570  18.347  0.00  0.00    +0.000 C 
ATOM     14  C   UNL     1       6.696   6.017  18.134  0.00  0.00    +0.000 C 
ATOM     15  C   UNL     1       6.989   6.377  16.681  0.00  0.00    +0.000 C 
ATOM     16  C   UNL     1       5.820   6.160  15.723  0.00  0.00    +0.000 C 
ATOM     17  C   UNL     1       5.490   4.684  15.532  0.00  0.00    +0.000 C 
ATOM     18  C   UNL     1       4.508   4.124  16.556  0.00  0.00    +0.000 C 
ENDBRANCH   7  12
BRANCH   6  19
ATOM     19  N   UNL     1       4.080   2.079  19.718  0.00  0.00    +0.000 N 
ATOM     20  O   UNL     1       3.738   1.223  18.885  0.00  0.00    +0.000 OA
ATOM     21  O   UNL     1       4.928   1.894  20.600  0.00  0.00    +0.000 OA
ENDBRANCH   6  19
BRANCH   1  22
ATOM     22  C   UNL     1       1.988   8.051  19.427  0.00  0.00    +0.000 C 
BRANCH  22  23
ATOM     23  C   UNL     1       1.008   9.168  19.802  0.00  0.00    +0.000 C 
BRANCH  23  24
ATOM     24  C   UNL     1       0.551  10.004  18.599  0.00  0.00    +0.000 C 
BRANCH  24  26
ATOM     25  C   UNL     1      -0.910  11.942  18.829  0.00  0.00    +0.000 C 
ATOM     26  N   UNL     1      -0.838  10.486  18.681  0.00  0.00    +0.000 NA
ATOM     27  C   UNL     1      -1.590  10.077  17.491  0.00  0.00    +0.000 C 
ENDBRANCH  24  26
ENDBRANCH  23  24
ENDBRANCH  22  23
ENDBRANCH   1  22
TORSDOF 6
ENDMDL
MODEL 4
REMARK VINA RESULT:      -7.4      1.490      2.224
REMARK  Name = 
REMARK  8 active torsions:
REMARK  status: ('A' for Active; 'I' for Inactive)
REMARK    1  A    between atoms: C_1  and  N_2
REMARK    2  A    between atoms: N_2  and  C_3
REMARK    3  A    between atoms: N_2  and  C_4
REMARK    4  A    between atoms: C_4  and  C_5
REMARK    5  A    between atoms: C_5  and  C_6
REMARK    6  A    between atoms: C_6  and  N_7
REMARK    7  A    between atoms: C_12  and  N_13
REMARK    8  A    between atoms: C_16  and  N_17
REMARK                            x       y       z     vdW  Elec       q    Type
REMARK                         _______ _______ _______ _____ _____    ______ ____
ROOT
ATOM      1  N   UNL     1       1.292   6.916  21.197  0.00  0.00    +0.000 N 
ATOM      2  C   UNL     1       1.972   5.954  20.461  0.00  0.00    +0.000 A 
ATOM      3  N   UNL     1       1.414   4.745  20.427  0.00  0.00    +0.000 NA
ATOM      4  C   UNL     1       2.097   3.761  19.829  0.00  0.00    +0.000 A 
ATOM      5  N   UNL     1       1.411   2.550  19.765  0.00  0.00    +0.000 N 
ATOM      6  C   UNL     1       3.321   3.997  19.236  0.00  0.00    +0.000 A 
ATOM      7  C   UNL     1       3.830   5.293  19.215  0.00  0.00    +0.000 A 
ATOM      8  N   UNL     1       3.128   6.252  19.858  0.00  0.00    +0.000 NA
ATOM      9  H   UNL     1       0.346   6.569  21.308  0.00  0.00    +0.000 HD
ATOM     10  H   UNL     1       0.577   2.591  20.345  0.00  0.00    +0.000 HD
ATOM     11  H   UNL     1       1.954   1.705  19.892  0.00  0.00    +0.000 HD
ENDROOT
BRANCH   7  12
ATOM     12  N   UNL     1       4.994   5.708  18.579  0.00  0.00    +0.000 N 
ATOM     13  C   UNL     1       4.850   6.323  17.254  0.00  0.00    +0.000 C 
ATOM     14  C   UNL     1       5.051   5.315  16.125  0.00  0.00    +0.000 C 
ATOM     15  C   UNL     1       6.509   4.957  15.856  0.00  0.00    +0.000 C 
ATOM     16  C   UNL     1       7.253   4.375  17.056  0.00  0.00    +0.000 C 
ATOM     17  C   UNL     1       7.470   5.403  18.160  0.00  0.00    +0.000 C 
ATOM     18  C   UNL     1       6.322   5.499  19.160  0.00  0.00    +0.000 C 
ENDBRANCH   7  12
BRANCH   6  19
ATOM     19  N   UNL     1       4.127   2.875  18.865  0.00  0.00    +0.000 N 
ATOM     20  O   UNL     1       4.020   2.430  17.710  0.00  0.00    +0.000 OA
ATOM     21  O   UNL     1       4.850   2.379  19.739  0.00  0.00    +0.000 OA
ENDBRANCH   6  19
BRANCH   1  22
ATOM     22  C   UNL     1       1.399   8.285  20.713  0.00  0.00    +0.000 C 
BRANCH  22  23
ATOM     23  C   UNL     1       0.697   9.212  21.711  0.00  0.00    +0.000 C 
BRANCH  23  24
ATOM     24  C   UNL     1      -0.106  10.333  21.038  0.00  0.00    +0.000 C 
BRANCH  24  26
ATOM     25  C   UNL     1      -1.168  10.366  18.843  0.00  0.00    +0.000 C 
ATOM     26  N   UNL     1       0.094  10.442  19.584  0.00  0.00    +0.000 NA
ATOM     27  C   UNL     1       0.779  11.696  19.256  0.00  0.00    +0.000 C 
ENDBRANCH  24  26
ENDBRANCH  23  24
ENDBRANCH  22  23
ENDBRANCH   1  22
TORSDOF 6
ENDMDL
MODEL 5
REMARK VINA RESULT:      -7.3      1.123      1.684
REMARK  Name = 
REMARK  8 active torsions:
REMARK  status: ('A' for Active; 'I' for Inactive)
REMARK    1  A    between atoms: C_1  and  N_2
REMARK    2  A    between atoms: N_2  and  C_3
REMARK    3  A    between atoms: N_2  and  C_4
REMARK    4  A    between atoms: C_4  and  C_5
REMARK    5  A    between atoms: C_5  and  C_6
REMARK    6  A    between atoms: C_6  and  N_7
REMARK    7  A    between atoms: C_12  and  N_13
REMARK    8  A    between atoms: C_16  and  N_17
REMARK                            x       y       z     vdW  Elec       q    Type
REMARK                         _______ _______ _______ _____ _____    ______ ____
ROOT
ATOM      1  N   UNL     1       1.749   7.020  20.900  0.00  0.00    +0.000 N 
ATOM      2  C   UNL     1       2.257   5.822  20.414  0.00  0.00    +0.000 A 
ATOM      3  N   UNL     1       1.692   4.714  20.890  0.00  0.00    +0.000 NA
ATOM      4  C   UNL     1       2.230   3.540  20.539  0.00  0.00    +0.000 A 
ATOM      5  N   UNL     1       1.534   2.430  21.013  0.00  0.00    +0.000 N 
ATOM      6  C   UNL     1       3.312   3.476  19.684  0.00  0.00    +0.000 A 
ATOM      7  C   UNL     1       3.819   4.651  19.136  0.00  0.00    +0.000 A 
ATOM      8  N   UNL     1       3.270   5.818  19.542  0.00  0.00    +0.000 NA
ATOM      9  H   UNL     1       0.841   6.801  21.295  0.00  0.00    +0.000 HD
ATOM     10  H   UNL     1       0.834   2.721  21.691  0.00  0.00    +0.000 HD
ATOM     11  H   UNL     1       2.083   1.633  21.311  0.00  0.00    +0.000 HD
ENDROOT
BRANCH   7  12
ATOM     12  N   UNL     1       4.834   4.747  18.192  0.00  0.00    +0.000 N 
ATOM     13  C   UNL     1       6.201   4.470  18.649  0.00  0.00    +0.000 C 
ATOM     14  C   UNL     1       6.954   5.744  19.023  0.00  0.00    +0.000 C 
ATOM     15  C   UNL     1       7.461   6.546  17.828  0.00  0.00    +0.000 C 
ATOM     16  C   UNL     1       6.375   6.988  16.850  0.00  0.00    +0.000 C 
ATOM     17  C   UNL     1       5.760   5.815  16.095  0.00  0.00    +0.000 C 
ATOM     18  C   UNL     1       4.583   5.158  16.809  0.00  0.00    +0.000 C 
ENDBRANCH   7  12
BRANCH   6  19
ATOM     19  N   UNL     1       4.016   2.236  19.565  0.00  0.00    +0.000 N 
ATOM     20  O   UNL     1       3.736   1.490  18.611  0.00  0.00    +0.000 OA
ATOM     21  O   UNL     1       4.829   1.955  20.455  0.00  0.00    +0.000 OA
ENDBRANCH   6  19
BRANCH   1  22
ATOM     22  C   UNL     1       1.770   8.145  19.976  0.00  0.00    +0.000 C 
BRANCH  22  23
ATOM     23  C   UNL     1       0.722   9.168  20.428  0.00  0.00    +0.000 C 
BRANCH  23  24
ATOM     24  C   UNL     1       0.239  10.084  19.295  0.00  0.00    +0.000 C 
BRANCH  24  26
ATOM     25  C   UNL     1       0.815  11.836  20.890  0.00  0.00    +0.000 C 
ATOM     26  N   UNL     1       0.551  11.510  19.486  0.00  0.00    +0.000 NA
ATOM     27  C   UNL     1       1.707  11.892  18.669  0.00  0.00    +0.000 C 
ENDBRANCH  24  26
ENDBRANCH  23  24
ENDBRANCH  22  23
ENDBRANCH   1  22
TORSDOF 6
ENDMDL
MODEL 6
REMARK VINA RESULT:      -7.1      1.455      2.063
REMARK  Name = 
REMARK  8 active torsions:
REMARK  status: ('A' for Active; 'I' for Inactive)
REMARK    1  A    between atoms: C_1  and  N_2
REMARK    2  A    between atoms: N_2  and  C_3
REMARK    3  A    between atoms: N_2  and  C_4
REMARK    4  A    between atoms: C_4  and  C_5
REMARK    5  A    between atoms: C_5  and  C_6
REMARK    6  A    between atoms: C_6  and  N_7
REMARK    7  A    between atoms: C_12  and  N_13
REMARK    8  A    between atoms: C_16  and  N_17
REMARK                            x       y       z     vdW  Elec       q    Type
REMARK                         _______ _______ _______ _____ _____    ______ ____
ROOT
ATOM      1  N   UNL     1       1.345   7.064  21.113  0.00  0.00    +0.000 N 
ATOM      2  C   UNL     1       2.017   6.086  20.389  0.00  0.00    +0.000 A 
ATOM      3  N   UNL     1       1.452   4.879  20.377  0.00  0.00    +0.000 NA
ATOM      4  C   UNL     1       2.127   3.883  19.792  0.00  0.00    +0.000 A 
ATOM      5  N   UNL     1       1.435   2.675  19.752  0.00  0.00    +0.000 N 
ATOM      6  C   UNL     1       3.350   4.103  19.191  0.00  0.00    +0.000 A 
ATOM      7  C   UNL     1       3.866   5.395  19.146  0.00  0.00    +0.000 A 
ATOM      8  N   UNL     1       3.171   6.368  19.777  0.00  0.00    +0.000 NA
ATOM      9  H   UNL     1       0.397   6.723  21.233  0.00  0.00    +0.000 HD
ATOM     10  H   UNL     1       0.604   2.729  20.334  0.00  0.00    +0.000 HD
ATOM     11  H   UNL     1       1.974   1.828  19.889  0.00  0.00    +0.000 HD
ENDROOT
BRANCH   7  12
ATOM     12  N   UNL     1       5.028   5.793  18.498  0.00  0.00    +0.000 N 
ATOM     13  C   UNL     1       4.883   6.382  17.162  0.00  0.00    +0.000 C 
ATOM     14  C   UNL     1       5.077   5.351  16.053  0.00  0.00    +0.000 C 
ATOM     15  C   UNL     1       6.533   4.983  15.787  0.00  0.00    +0.000 C 
ATOM     16  C   UNL     1       7.279   4.423  16.996  0.00  0.00    +0.000 C 
ATOM     17  C   UNL     1       7.503   5.473  18.078  0.00  0.00    +0.000 C 
ATOM     18  C   UNL     1       6.358   5.593  19.080  0.00  0.00    +0.000 C 
ENDBRANCH   7  12
BRANCH   6  19
ATOM     19  N   UNL     1       4.149   2.970  18.835  0.00  0.00    +0.000 N 
ATOM     20  O   UNL     1       4.989   2.563  19.654  0.00  0.00    +0.000 OA
ATOM     21  O   UNL     1       3.990   2.494  17.704  0.00  0.00    +0.000 OA
ENDBRANCH   6  19
BRANCH   1  22
ATOM     22  C   UNL     1       1.457   8.424  20.606  0.00  0.00    +0.000 C 
BRANCH  22  23
ATOM     23  C   UNL     1       0.190   9.196  20.994  0.00  0.00    +0.000 C 
BRANCH  23  24
ATOM     24  C   UNL     1      -0.227  10.241  19.951  0.00  0.00    +0.000 C 
BRANCH  24  26
ATOM     25  C   UNL     1      -0.220  12.278  21.291  0.00  0.00    +0.000 C 
ATOM     26  N   UNL     1      -1.026  11.355  20.487  0.00  0.00    +0.000 NA
ATOM     27  C   UNL     1      -1.670  12.092  19.395  0.00  0.00    +0.000 C 
ENDBRANCH  24  26
ENDBRANCH  23  24
ENDBRANCH  22  23
ENDBRANCH   1  22
TORSDOF 6
ENDMDL
MODEL 7
REMARK VINA RESULT:      -7.0      1.409      1.559
REMARK  Name = 
REMARK  8 active torsions:
REMARK  status: ('A' for Active; 'I' for Inactive)
REMARK    1  A    between atoms: C_1  and  N_2
REMARK    2  A    between atoms: N_2  and  C_3
REMARK    3  A    between atoms: N_2  and  C_4
REMARK    4  A    between atoms: C_4  and  C_5
REMARK    5  A    between atoms: C_5  and  C_6
REMARK    6  A    between atoms: C_6  and  N_7
REMARK    7  A    between atoms: C_12  and  N_13
REMARK    8  A    between atoms: C_16  and  N_17
REMARK                            x       y       z     vdW  Elec       q    Type
REMARK                         _______ _______ _______ _____ _____    ______ ____
ROOT
ATOM      1  N   UNL     1       2.234   7.566  19.413  0.00  0.00    +0.000 N 
ATOM      2  C   UNL     1       2.581   6.224  19.318  0.00  0.00    +0.000 A 
ATOM      3  N   UNL     1       1.844   5.380  20.040  0.00  0.00    +0.000 NA
ATOM      4  C   UNL     1       2.220   4.096  20.069  0.00  0.00    +0.000 A 
ATOM      5  N   UNL     1       1.353   3.266  20.777  0.00  0.00    +0.000 N 
ATOM      6  C   UNL     1       3.312   3.652  19.350  0.00  0.00    +0.000 A 
ATOM      7  C   UNL     1       4.003   4.547  18.538  0.00  0.00    +0.000 A 
ATOM      8  N   UNL     1       3.614   5.842  18.562  0.00  0.00    +0.000 NA
ATOM      9  H   UNL     1       1.291   7.587  19.784  0.00  0.00    +0.000 HD
ATOM     10  H   UNL     1       0.679   3.825  21.293  0.00  0.00    +0.000 HD
ATOM     11  H   UNL     1       1.770   2.523  21.325  0.00  0.00    +0.000 HD
ENDROOT
BRANCH   7  12
ATOM     12  N   UNL     1       5.055   4.238  17.685  0.00  0.00    +0.000 N 
ATOM     13  C   UNL     1       6.404   4.619  18.120  0.00  0.00    +0.000 C 
ATOM     14  C   UNL     1       6.839   5.964  17.544  0.00  0.00    +0.000 C 
ATOM     15  C   UNL     1       7.271   5.909  16.082  0.00  0.00    +0.000 C 
ATOM     16  C   UNL     1       6.207   5.381  15.123  0.00  0.00    +0.000 C 
ATOM     17  C   UNL     1       5.920   3.898  15.332  0.00  0.00    +0.000 C 
ATOM     18  C   UNL     1       4.847   3.611  16.378  0.00  0.00    +0.000 C 
ENDBRANCH   7  12
BRANCH   6  19
ATOM     19  N   UNL     1       3.832   2.350  19.634  0.00  0.00    +0.000 N 
ATOM     20  O   UNL     1       4.760   2.254  20.455  0.00  0.00    +0.000 OA
ATOM     21  O   UNL     1       3.360   1.398  19.001  0.00  0.00    +0.000 OA
ENDBRANCH   6  19
BRANCH   1  22
ATOM     22  C   UNL     1       2.451   8.368  18.218  0.00  0.00    +0.000 C 
BRANCH  22  23
ATOM     23  C   UNL     1       1.217   9.248  17.989  0.00  0.00    +0.000 C 
BRANCH  23  24
ATOM     24  C   UNL     1       1.159  10.467  18.918  0.00  0.00    +0.000 C 
BRANCH  24  26
ATOM     25  C   UNL     1      -1.265  10.368  18.678  0.00  0.00    +0.000 C 
ATOM     26  N   UNL     1      -0.144  10.679  19.569  0.00  0.00    +0.000 NA
ATOM     27  C   UNL     1      -0.245   9.866  20.785  0.00  0.00    +0.000 C 
ENDBRANCH  24  26
ENDBRANCH  23  24
ENDBRANCH  22  23
ENDBRANCH   1  22
TORSDOF 6
ENDMDL
MODEL 8
REMARK VINA RESULT:      -6.9      3.275      6.286
REMARK  Name = 
REMARK  8 active torsions:
REMARK  status: ('A' for Active; 'I' for Inactive)
REMARK    1  A    between atoms: C_1  and  N_2
REMARK    2  A    between atoms: N_2  and  C_3
REMARK    3  A    between atoms: N_2  and  C_4
REMARK    4  A    between atoms: C_4  and  C_5
REMARK    5  A    between atoms: C_5  and  C_6
REMARK    6  A    between atoms: C_6  and  N_7
REMARK    7  A    between atoms: C_12  and  N_13
REMARK    8  A    between atoms: C_16  and  N_17
REMARK                            x       y       z     vdW  Elec       q    Type
REMARK                         _______ _______ _______ _____ _____    ______ ____
ROOT
ATOM      1  N   UNL     1       7.326   6.946  16.951  0.00  0.00    +0.000 N 
ATOM      2  C   UNL     1       6.437   5.897  17.146  0.00  0.00    +0.000 A 
ATOM      3  N   UNL     1       6.476   4.924  16.235  0.00  0.00    +0.000 NA
ATOM      4  C   UNL     1       5.556   3.956  16.320  0.00  0.00    +0.000 A 
ATOM      5  N   UNL     1       5.714   2.938  15.382  0.00  0.00    +0.000 N 
ATOM      6  C   UNL     1       4.620   3.944  17.335  0.00  0.00    +0.000 A 
ATOM      7  C   UNL     1       4.667   4.929  18.318  0.00  0.00    +0.000 A 
ATOM      8  N   UNL     1       5.589   5.908  18.179  0.00  0.00    +0.000 NA
ATOM      9  H   UNL     1       8.035   6.601  16.313  0.00  0.00    +0.000 HD
ATOM     10  H   UNL     1       6.406   3.208  14.688  0.00  0.00    +0.000 HD
ATOM     11  H   UNL     1       4.872   2.540  14.985  0.00  0.00    +0.000 HD
ENDROOT
BRANCH   7  12
ATOM     12  N   UNL     1       3.863   5.000  19.448  0.00  0.00    +0.000 N 
ATOM     13  C   UNL     1       4.132   4.038  20.523  0.00  0.00    +0.000 C 
ATOM     14  C   UNL     1       3.235   2.806  20.434  0.00  0.00    +0.000 C 
ATOM     15  C   UNL     1       1.808   3.033  20.925  0.00  0.00    +0.000 C 
ATOM     16  C   UNL     1       1.052   4.140  20.195  0.00  0.00    +0.000 C 
ATOM     17  C   UNL     1       1.618   5.524  20.491  0.00  0.00    +0.000 C 
ATOM     18  C   UNL     1       2.752   5.948  19.562  0.00  0.00    +0.000 C 
ENDBRANCH   7  12
BRANCH   6  19
ATOM     19  N   UNL     1       3.501   3.060  17.221  0.00  0.00    +0.000 N 
ATOM     20  O   UNL     1       2.394   3.547  16.936  0.00  0.00    +0.000 OA
ATOM     21  O   UNL     1       3.694   1.863  17.465  0.00  0.00    +0.000 OA
ENDBRANCH   6  19
BRANCH   1  22
ATOM     22  C   UNL     1       7.834   7.585  18.157  0.00  0.00    +0.000 C 
BRANCH  22  23
ATOM     23  C   UNL     1       8.069   9.071  17.861  0.00  0.00    +0.000 C 
BRANCH  23  24
ATOM     24  C   UNL     1       8.992   9.755  18.878  0.00  0.00    +0.000 C 
BRANCH  24  26
ATOM     25  C   UNL     1       8.845  11.956  17.841  0.00  0.00    +0.000 C 
ATOM     26  N   UNL     1       9.736  10.910  18.350  0.00  0.00    +0.000 NA
ATOM     27  C   UNL     1      10.608  11.471  19.387  0.00  0.00    +0.000 C 
ENDBRANCH  24  26
ENDBRANCH  23  24
ENDBRANCH  22  23
ENDBRANCH   1  22
TORSDOF 6
ENDMDL
MODEL 9
REMARK VINA RESULT:      -6.9      1.153      1.502
REMARK  Name = 
REMARK  8 active torsions:
REMARK  status: ('A' for Active; 'I' for Inactive)
REMARK    1  A    between atoms: C_1  and  N_2
REMARK    2  A    between atoms: N_2  and  C_3
REMARK    3  A    between atoms: N_2  and  C_4
REMARK    4  A    between atoms: C_4  and  C_5
REMARK    5  A    between atoms: C_5  and  C_6
REMARK    6  A    between atoms: C_6  and  N_7
REMARK    7  A    between atoms: C_12  and  N_13
REMARK    8  A    between atoms: C_16  and  N_17
REMARK                            x       y       z     vdW  Elec       q    Type
REMARK                         _______ _______ _______ _____ _____    ______ ____
ROOT
ATOM      1  N   UNL     1       1.555   6.877  21.102  0.00  0.00    +0.000 N 
ATOM      2  C   UNL     1       1.949   5.765  20.368  0.00  0.00    +0.000 A 
ATOM      3  N   UNL     1       1.208   4.669  20.530  0.00  0.00    +0.000 NA
ATOM      4  C   UNL     1       1.623   3.544  19.934  0.00  0.00    +0.000 A 
ATOM      5  N   UNL     1       0.753   2.467  20.085  0.00  0.00    +0.000 N 
ATOM      6  C   UNL     1       2.759   3.527  19.150  0.00  0.00    +0.000 A 
ATOM      7  C   UNL     1       3.457   4.712  18.933  0.00  0.00    +0.000 A 
ATOM      8  N   UNL     1       3.026   5.819  19.579  0.00  0.00    +0.000 NA
ATOM      9  H   UNL     1       0.596   6.704  21.382  0.00  0.00    +0.000 HD
ATOM     10  H   UNL     1       0.039   2.689  20.774  0.00  0.00    +0.000 HD
ATOM     11  H   UNL     1       1.169   1.551  20.210  0.00  0.00    +0.000 HD
ENDROOT
BRANCH   7  12
ATOM     12  N   UNL     1       4.555   4.878  18.098  0.00  0.00    +0.000 N 
ATOM     13  C   UNL     1       5.848   4.386  18.587  0.00  0.00    +0.000 C 
ATOM     14  C   UNL     1       6.671   5.488  19.250  0.00  0.00    +0.000 C 
ATOM     15  C   UNL     1       7.348   6.441  18.269  0.00  0.00    +0.000 C 
ATOM     16  C   UNL     1       6.392   7.162  17.322  0.00  0.00    +0.000 C 
ATOM     17  C   UNL     1       5.748   6.217  16.314  0.00  0.00    +0.000 C 
ATOM     18  C   UNL     1       4.461   5.561  16.806  0.00  0.00    +0.000 C 
ENDBRANCH   7  12
BRANCH   6  19
ATOM     19  N   UNL     1       3.309   2.261  18.773  0.00  0.00    +0.000 N 
ATOM     20  O   UNL     1       4.117   1.717  19.545  0.00  0.00    +0.000 OA
ATOM     21  O   UNL     1       2.984   1.805  17.670  0.00  0.00    +0.000 OA
ENDBRANCH   6  19
BRANCH   1  22
ATOM     22  C   UNL     1       1.799   8.171  20.481  0.00  0.00    +0.000 C 
BRANCH  22  23
ATOM     23  C   UNL     1       1.222   9.264  21.388  0.00  0.00    +0.000 C 
BRANCH  23  24
ATOM     24  C   UNL     1      -0.203   9.683  21.002  0.00  0.00    +0.000 C 
BRANCH  24  26
ATOM     25  C   UNL     1      -0.920  11.514  22.444  0.00  0.00    +0.000 C 
ATOM     26  N   UNL     1      -0.465  11.128  21.105  0.00  0.00    +0.000 NA
ATOM     27  C   UNL     1       0.739  11.890  20.759  0.00  0.00    +0.000 C 
ENDBRANCH  24  26
ENDBRANCH  23  24
ENDBRANCH  22  23
ENDBRANCH   1  22
TORSDOF 6
ENDMDL
