MODEL 1
REMARK VINA RESULT:      -5.9      0.000      0.000
REMARK  Name = 
REMARK  11 active torsions:
REMARK  status: ('A' for Active; 'I' for Inactive)
REMARK    1  A    between atoms: C_1  and  C_2
REMARK    2  A    between atoms: C_2  and  C_3
REMARK    3  A    between atoms: C_2  and  C_4
REMARK    4  A    between atoms: C_4  and  C_5
REMARK    5  A    between atoms: C_5  and  C_6
REMARK    6  A    between atoms: C_6  and  C_7
REMARK    7  A    between atoms: C_7  and  C_8
REMARK    8  A    between atoms: C_7  and  C_9
REMARK    9  A    between atoms: C_18  and  N_19
REMARK   10  A    between atoms: C_22  and  C_23
REMARK   11  A    between atoms: C_27  and  C_28
REMARK                            x       y       z     vdW  Elec       q    Type
REMARK                         _______ _______ _______ _____ _____    ______ ____
ROOT
ATOM      1  C   UNL     1      10.071  13.190  18.217  0.00  0.00    +0.000 C 
ATOM      2  C   UNL     1      11.049  14.378  18.254  0.00  0.00    +0.000 C 
ATOM      3  C   UNL     1      10.944  14.914  19.677  0.00  0.00    +0.000 C 
ATOM      4  C   UNL     1      10.572  13.707  20.577  0.00  0.00    +0.000 C 
ATOM      5  C   UNL     1       9.361  14.035  21.503  0.00  0.00    +0.000 C 
ATOM      6  C   UNL     1       9.829  15.028  22.572  0.00  0.00    +0.000 C 
ATOM      7  C   UNL     1       8.880  15.287  23.721  0.00  0.00    +0.000 C 
ATOM      8  C   UNL     1       7.761  14.275  23.907  0.00  0.00    +0.000 C 
ATOM      9  C   UNL     1       7.227  14.326  25.347  0.00  0.00    +0.000 C 
ATOM     10  C   UNL     1       5.869  13.629  25.465  0.00  0.00    +0.000 C 
ATOM     11  C   UNL     1       5.861  12.236  24.812  0.00  0.00    +0.000 C 
ATOM     12  C   UNL     1       6.575  12.160  23.451  0.00  0.00    +0.000 C 
ATOM     13  C   UNL     1       8.003  12.819  23.445  0.00  0.00    +0.000 C 
ATOM     14  C   UNL     1       8.896  11.968  24.389  0.00  0.00    +0.000 C 
ATOM     15  C   UNL     1       8.560  12.793  21.991  0.00  0.00    +0.000 C 
ATOM     16  C   UNL     1       9.235  11.467  21.596  0.00  0.00    +0.000 C 
ATOM     17  C   UNL     1       9.420  11.433  20.096  0.00  0.00    +0.000 C 
ATOM     18  C   UNL     1      10.413  12.499  19.600  0.00  0.00    +0.000 C 
ATOM     19  C   UNL     1      11.797  11.771  19.547  0.00  0.00    +0.000 C 
ENDROOT
BRANCH  10  20
ATOM     20  N   UNL     1       4.831  14.476  24.862  0.00  0.00    +0.000 NA
ATOM     21  H   UNL     1       4.492  15.143  25.557  0.00  0.00    +0.000 HD
ATOM     22  H   UNL     1       5.226  15.038  24.112  0.00  0.00    +0.000 HD
ENDBRANCH  10  20
BRANCH   1  23
ATOM     23  C   UNL     1       8.555  13.620  18.066  0.00  0.00    +0.000 C 
ATOM     24  C   UNL     1       7.805  12.707  17.077  0.00  0.00    +0.000 C 
BRANCH  23  25
ATOM     25  C   UNL     1       8.252  15.093  17.681  0.00  0.00    +0.000 C 
BRANCH  25  26
ATOM     26  C   UNL     1       7.582  15.916  18.816  0.00  0.00    +0.000 C 
BRANCH  26  27
ATOM     27  C   UNL     1       6.242  15.336  19.297  0.00  0.00    +0.000 C 
BRANCH  27  29
ATOM     28  C   UNL     1       6.240  16.670  21.435  0.00  0.00    +0.000 C 
ATOM     29  C   UNL     1       6.087  15.268  20.831  0.00  0.00    +0.000 C 
ATOM     30  C   UNL     1       4.760  14.660  21.284  0.00  0.00    +0.000 C 
ENDBRANCH  27  29
ENDBRANCH  26  27
ENDBRANCH  25  26
ENDBRANCH  23  25
ENDBRANCH   1  23
TORSDOF 6
ENDMDL
MODEL 2
REMARK VINA RESULT:      -5.6      8.715     12.010
REMARK  Name = 
REMARK  11 active torsions:
REMARK  status: ('A' for Active; 'I' for Inactive)
REMARK    1  A    between atoms: C_1  and  C_2
REMARK    2  A    between atoms: C_2  and  C_3
REMARK    3  A    between atoms: C_2  and  C_4
REMARK    4  A    between atoms: C_4  and  C_5
REMARK    5  A    between atoms: C_5  and  C_6
REMARK    6  A    between atoms: C_6  and  C_7
REMARK    7  A    between atoms: C_7  and  C_8
REMARK    8  A    between atoms: C_7  and  C_9
REMARK    9  A    between atoms: C_18  and  N_19
REMARK   10  A    between atoms: C_22  and  C_23
REMARK   11  A    between atoms: C_27  and  C_28
REMARK                            x       y       z     vdW  Elec       q    Type
REMARK                         _______ _______ _______ _____ _____    ______ ____
ROOT
ATOM      1  C   UNL     1       0.382  11.146  21.114  0.00  0.00    +0.000 C 
ATOM      2  C   UNL     1       0.396  11.119  19.576  0.00  0.00    +0.000 C 
ATOM      3  C   UNL     1      -0.996  11.591  19.173  0.00  0.00    +0.000 C 
ATOM      4  C   UNL     1      -1.483  12.541  20.298  0.00  0.00    +0.000 C 
ATOM      5  C   UNL     1      -2.915  12.165  20.785  0.00  0.00    +0.000 C 
ATOM      6  C   UNL     1      -3.911  12.533  19.680  0.00  0.00    +0.000 C 
ATOM      7  C   UNL     1      -5.378  12.484  20.042  0.00  0.00    +0.000 C 
ATOM      8  C   UNL     1      -5.701  12.459  21.528  0.00  0.00    +0.000 C 
ATOM      9  C   UNL     1      -7.139  12.943  21.771  0.00  0.00    +0.000 C 
ATOM     10  C   UNL     1      -7.628  12.564  23.171  0.00  0.00    +0.000 C 
ATOM     11  C   UNL     1      -6.616  12.934  24.270  0.00  0.00    +0.000 C 
ATOM     12  C   UNL     1      -5.150  12.618  23.928  0.00  0.00    +0.000 C 
ATOM     13  C   UNL     1      -4.707  13.127  22.507  0.00  0.00    +0.000 C 
ATOM     14  C   UNL     1      -4.761  14.678  22.545  0.00  0.00    +0.000 C 
ATOM     15  C   UNL     1      -3.255  12.634  22.230  0.00  0.00    +0.000 C 
ATOM     16  C   UNL     1      -2.158  13.533  22.829  0.00  0.00    +0.000 C 
ATOM     17  C   UNL     1      -0.840  12.793  22.799  0.00  0.00    +0.000 C 
ATOM     18  C   UNL     1      -0.343  12.531  21.366  0.00  0.00    +0.000 C 
ATOM     19  C   UNL     1       0.600  13.736  21.038  0.00  0.00    +0.000 C 
ENDROOT
BRANCH  10  20
ATOM     20  N   UNL     1      -7.916  11.124  23.214  0.00  0.00    +0.000 NA
ATOM     21  H   UNL     1      -8.725  10.959  23.816  0.00  0.00    +0.000 HD
ATOM     22  H   UNL     1      -8.187  10.791  22.293  0.00  0.00    +0.000 HD
ENDBRANCH  10  20
BRANCH   1  23
ATOM     23  C   UNL     1      -0.354   9.904  21.765  0.00  0.00    +0.000 C 
ATOM     24  C   UNL     1      -0.010   9.764  23.261  0.00  0.00    +0.000 C 
BRANCH  23  25
ATOM     25  C   UNL     1      -0.163   8.515  21.098  0.00  0.00    +0.000 C 
BRANCH  25  26
ATOM     26  C   UNL     1       1.262   7.922  21.271  0.00  0.00    +0.000 C 
BRANCH  26  27
ATOM     27  C   UNL     1       2.005   7.691  19.944  0.00  0.00    +0.000 C 
BRANCH  27  29
ATOM     28  C   UNL     1       3.566   5.937  19.030  0.00  0.00    +0.000 C 
ATOM     29  C   UNL     1       2.144   6.208  19.539  0.00  0.00    +0.000 C 
ATOM     30  C   UNL     1       1.814   5.233  20.669  0.00  0.00    +0.000 C 
ENDBRANCH  27  29
ENDBRANCH  26  27
ENDBRANCH  25  26
ENDBRANCH  23  25
ENDBRANCH   1  23
TORSDOF 6
ENDMDL
MODEL 3
REMARK VINA RESULT:      -5.4      0.985      1.411
REMARK  Name = 
REMARK  11 active torsions:
REMARK  status: ('A' for Active; 'I' for Inactive)
REMARK    1  A    between atoms: C_1  and  C_2
REMARK    2  A    between atoms: C_2  and  C_3
REMARK    3  A    between atoms: C_2  and  C_4
REMARK    4  A    between atoms: C_4  and  C_5
REMARK    5  A    between atoms: C_5  and  C_6
REMARK    6  A    between atoms: C_6  and  C_7
REMARK    7  A    between atoms: C_7  and  C_8
REMARK    8  A    between atoms: C_7  and  C_9
REMARK    9  A    between atoms: C_18  and  N_19
REMARK   10  A    between atoms: C_22  and  C_23
REMARK   11  A    between atoms: C_27  and  C_28
REMARK                            x       y       z     vdW  Elec       q    Type
REMARK                         _______ _______ _______ _____ _____    ______ ____
ROOT
ATOM      1  C   UNL     1      10.082  13.062  18.259  0.00  0.00    +0.000 C 
ATOM      2  C   UNL     1      11.069  14.242  18.267  0.00  0.00    +0.000 C 
ATOM      3  C   UNL     1      10.956  14.825  19.670  0.00  0.00    +0.000 C 
ATOM      4  C   UNL     1      10.566  13.651  20.606  0.00  0.00    +0.000 C 
ATOM      5  C   UNL     1       9.350  14.018  21.509  0.00  0.00    +0.000 C 
ATOM      6  C   UNL     1       9.816  15.042  22.550  0.00  0.00    +0.000 C 
ATOM      7  C   UNL     1       8.859  15.345  23.682  0.00  0.00    +0.000 C 
ATOM      8  C   UNL     1       7.730  14.348  23.889  0.00  0.00    +0.000 C 
ATOM      9  C   UNL     1       7.184  14.449  25.322  0.00  0.00    +0.000 C 
ATOM     10  C   UNL     1       5.820  13.767  25.451  0.00  0.00    +0.000 C 
ATOM     11  C   UNL     1       5.807  12.353  24.842  0.00  0.00    +0.000 C 
ATOM     12  C   UNL     1       6.532  12.228  23.491  0.00  0.00    +0.000 C 
ATOM     13  C   UNL     1       7.965  12.875  23.478  0.00  0.00    +0.000 C 
ATOM     14  C   UNL     1       8.843  12.049  24.457  0.00  0.00    +0.000 C 
ATOM     15  C   UNL     1       8.534  12.799  22.030  0.00  0.00    +0.000 C 
ATOM     16  C   UNL     1       9.202  11.456  21.684  0.00  0.00    +0.000 C 
ATOM     17  C   UNL     1       9.401  11.371  20.187  0.00  0.00    +0.000 C 
ATOM     18  C   UNL     1      10.406  12.414  19.667  0.00  0.00    +0.000 C 
ATOM     19  C   UNL     1      11.785  11.673  19.649  0.00  0.00    +0.000 C 
ENDROOT
BRANCH  10  20
ATOM     20  N   UNL     1       4.794  14.602  24.811  0.00  0.00    +0.000 NA
ATOM     21  H   UNL     1       3.908  14.491  25.308  0.00  0.00    +0.000 HD
ATOM     22  H   UNL     1       5.036  15.586  24.896  0.00  0.00    +0.000 HD
ENDBRANCH  10  20
BRANCH   1  23
ATOM     23  C   UNL     1       8.571  13.498  18.080  0.00  0.00    +0.000 C 
ATOM     24  C   UNL     1       7.836  12.589  17.077  0.00  0.00    +0.000 C 
BRANCH  23  25
ATOM     25  C   UNL     1       8.281  14.973  17.692  0.00  0.00    +0.000 C 
BRANCH  25  26
ATOM     26  C   UNL     1       7.180  15.648  18.555  0.00  0.00    +0.000 C 
BRANCH  26  27
ATOM     27  C   UNL     1       7.441  17.136  18.841  0.00  0.00    +0.000 C 
BRANCH  27  29
ATOM     28  C   UNL     1       9.593  18.321  19.400  0.00  0.00    +0.000 C 
ATOM     29  C   UNL     1       8.490  17.403  19.941  0.00  0.00    +0.000 C 
ATOM     30  C   UNL     1       7.900  18.011  21.213  0.00  0.00    +0.000 C 
ENDBRANCH  27  29
ENDBRANCH  26  27
ENDBRANCH  25  26
ENDBRANCH  23  25
ENDBRANCH   1  23
TORSDOF 6
ENDMDL
MODEL 4
REMARK VINA RESULT:      -5.2      7.487     10.092
REMARK  Name = 
REMARK  11 active torsions:
REMARK  status: ('A' for Active; 'I' for Inactive)
REMARK    1  A    between atoms: C_1  and  C_2
REMARK    2  A    between atoms: C_2  and  C_3
REMARK    3  A    between atoms: C_2  and  C_4
REMARK    4  A    between atoms: C_4  and  C_5
REMARK    5  A    between atoms: C_5  and  C_6
REMARK    6  A    between atoms: C_6  and  C_7
REMARK    7  A    between atoms: C_7  and  C_8
REMARK    8  A    between atoms: C_7  and  C_9
REMARK    9  A    between atoms: C_18  and  N_19
REMARK   10  A    between atoms: C_22  and  C_23
REMARK   11  A    between atoms: C_27  and  C_28
REMARK                            x       y       z     vdW  Elec       q    Type
REMARK                         _______ _______ _______ _____ _____    ______ ____
ROOT
ATOM      1  C   UNL     1       3.816   4.962  18.714  0.00  0.00    +0.000 C 
ATOM      2  C   UNL     1       3.394   4.123  19.932  0.00  0.00    +0.000 C 
ATOM      3  C   UNL     1       2.489   5.048  20.738  0.00  0.00    +0.000 C 
ATOM      4  C   UNL     1       1.819   6.007  19.719  0.00  0.00    +0.000 C 
ATOM      5  C   UNL     1       1.946   7.495  20.165  0.00  0.00    +0.000 C 
ATOM      6  C   UNL     1       1.032   7.715  21.375  0.00  0.00    +0.000 C 
ATOM      7  C   UNL     1       0.813   9.146  21.811  0.00  0.00    +0.000 C 
ATOM      8  C   UNL     1       1.190  10.219  20.801  0.00  0.00    +0.000 C 
ATOM      9  C   UNL     1       0.451  11.530  21.113  0.00  0.00    +0.000 C 
ATOM     10  C   UNL     1       1.087  12.717  20.387  0.00  0.00    +0.000 C 
ATOM     11  C   UNL     1       1.323  12.437  18.892  0.00  0.00    +0.000 C 
ATOM     12  C   UNL     1       1.884  11.039  18.580  0.00  0.00    +0.000 C 
ATOM     13  C   UNL     1       1.111   9.871  19.296  0.00  0.00    +0.000 C 
ATOM     14  C   UNL     1      -0.322   9.846  18.699  0.00  0.00    +0.000 C 
ATOM     15  C   UNL     1       1.851   8.531  19.007  0.00  0.00    +0.000 C 
ATOM     16  C   UNL     1       1.474   7.879  17.665  0.00  0.00    +0.000 C 
ATOM     17  C   UNL     1       2.481   6.798  17.339  0.00  0.00    +0.000 C 
ATOM     18  C   UNL     1       2.429   5.624  18.333  0.00  0.00    +0.000 C 
ATOM     19  C   UNL     1       1.460   4.584  17.680  0.00  0.00    +0.000 C 
ENDROOT
BRANCH  10  20
ATOM     20  N   UNL     1       2.354  13.068  21.041  0.00  0.00    +0.000 NA
ATOM     21  H   UNL     1       2.163  13.644  21.863  0.00  0.00    +0.000 HD
ATOM     22  H   UNL     1       2.814  12.232  21.392  0.00  0.00    +0.000 HD
ENDBRANCH  10  20
BRANCH   1  23
ATOM     23  C   UNL     1       4.966   6.004  19.027  0.00  0.00    +0.000 C 
ATOM     24  C   UNL     1       5.038   7.106  17.952  0.00  0.00    +0.000 C 
BRANCH  23  25
ATOM     25  C   UNL     1       6.401   5.457  19.249  0.00  0.00    +0.000 C 
BRANCH  25  26
ATOM     26  C   UNL     1       7.356   5.682  18.045  0.00  0.00    +0.000 C 
BRANCH  26  27
ATOM     27  C   UNL     1       7.306   4.560  16.994  0.00  0.00    +0.000 C 
BRANCH  27  29
ATOM     28  C   UNL     1       7.209   4.786  14.486  0.00  0.00    +0.000 C 
ATOM     29  C   UNL     1       6.395   4.856  15.784  0.00  0.00    +0.000 C 
ATOM     30  C   UNL     1       5.193   3.917  15.682  0.00  0.00    +0.000 C 
ENDBRANCH  27  29
ENDBRANCH  26  27
ENDBRANCH  25  26
ENDBRANCH  23  25
ENDBRANCH   1  23
TORSDOF 6
ENDMDL
MODEL 5
REMARK VINA RESULT:      -5.2      8.748     12.043
REMARK  Name = 
REMARK  11 active torsions:
REMARK  status: ('A' for Active; 'I' for Inactive)
REMARK    1  A    between atoms: C_1  and  C_2
REMARK    2  A    between atoms: C_2  and  C_3
REMARK    3  A    between atoms: C_2  and  C_4
REMARK    4  A    between atoms: C_4  and  C_5
REMARK    5  A    between atoms: C_5  and  C_6
REMARK    6  A    between atoms: C_6  and  C_7
REMARK    7  A    between atoms: C_7  and  C_8
REMARK    8  A    between atoms: C_7  and  C_9
REMARK    9  A    between atoms: C_18  and  N_19
REMARK   10  A    between atoms: C_22  and  C_23
REMARK   11  A    between atoms: C_27  and  C_28
REMARK                            x       y       z     vdW  Elec       q    Type
REMARK                         _______ _______ _______ _____ _____    ______ ____
ROOT
ATOM      1  C   UNL     1       0.189  10.985  20.277  0.00  0.00    +0.000 C 
ATOM      2  C   UNL     1      -0.002  10.654  18.787  0.00  0.00    +0.000 C 
ATOM      3  C   UNL     1      -1.442  11.053  18.489  0.00  0.00    +0.000 C 
ATOM      4  C   UNL     1      -1.788  12.213  19.459  0.00  0.00    +0.000 C 
ATOM      5  C   UNL     1      -3.137  11.959  20.198  0.00  0.00    +0.000 C 
ATOM      6  C   UNL     1      -4.277  12.112  19.185  0.00  0.00    +0.000 C 
ATOM      7  C   UNL     1      -5.682  12.154  19.743  0.00  0.00    +0.000 C 
ATOM      8  C   UNL     1      -5.802  12.428  21.234  0.00  0.00    +0.000 C 
ATOM      9  C   UNL     1      -7.201  12.968  21.567  0.00  0.00    +0.000 C 
ATOM     10  C   UNL     1      -7.493  12.880  23.067  0.00  0.00    +0.000 C 
ATOM     11  C   UNL     1      -6.349  13.448  23.926  0.00  0.00    +0.000 C 
ATOM     12  C   UNL     1      -4.937  13.053  23.459  0.00  0.00    +0.000 C 
ATOM     13  C   UNL     1      -4.696  13.264  21.919  0.00  0.00    +0.000 C 
ATOM     14  C   UNL     1      -4.768  14.793  21.656  0.00  0.00    +0.000 C 
ATOM     15  C   UNL     1      -3.287  12.709  21.554  0.00  0.00    +0.000 C 
ATOM     16  C   UNL     1      -2.134  13.695  21.810  0.00  0.00    +0.000 C 
ATOM     17  C   UNL     1      -0.820  12.948  21.751  0.00  0.00    +0.000 C 
ATOM     18  C   UNL     1      -0.516  12.401  20.344  0.00  0.00    +0.000 C 
ATOM     19  C   UNL     1       0.357  13.506  19.661  0.00  0.00    +0.000 C 
ENDROOT
BRANCH  10  20
ATOM     20  N   UNL     1      -7.752  11.481  23.433  0.00  0.00    +0.000 NA
ATOM     21  H   UNL     1      -6.896  10.936  23.314  0.00  0.00    +0.000 HD
ATOM     22  H   UNL     1      -7.987  11.411  24.420  0.00  0.00    +0.000 HD
ENDBRANCH  10  20
BRANCH   1  23
ATOM     23  C   UNL     1      -0.434   9.906  21.253  0.00  0.00    +0.000 C 
ATOM     24  C   UNL     1      -0.310  10.339  22.727  0.00  0.00    +0.000 C 
BRANCH  23  25
ATOM     25  C   UNL     1       0.074   8.443  21.139  0.00  0.00    +0.000 C 
BRANCH  25  26
ATOM     26  C   UNL     1       1.557   8.323  20.694  0.00  0.00    +0.000 C 
BRANCH  26  27
ATOM     27  C   UNL     1       1.947   6.918  20.205  0.00  0.00    +0.000 C 
BRANCH  27  29
ATOM     28  C   UNL     1       2.352   5.639  18.072  0.00  0.00    +0.000 C 
ATOM     29  C   UNL     1       2.719   6.897  18.869  0.00  0.00    +0.000 C 
ATOM     30  C   UNL     1       2.476   8.135  18.005  0.00  0.00    +0.000 C 
ENDBRANCH  27  29
ENDBRANCH  26  27
ENDBRANCH  25  26
ENDBRANCH  23  25
ENDBRANCH   1  23
TORSDOF 6
ENDMDL
MODEL 6
REMARK VINA RESULT:      -5.1      2.684      4.908
REMARK  Name = 
REMARK  11 active torsions:
REMARK  status: ('A' for Active; 'I' for Inactive)
REMARK    1  A    between atoms: C_1  and  C_2
REMARK    2  A    between atoms: C_2  and  C_3
REMARK    3  A    between atoms: C_2  and  C_4
REMARK    4  A    between atoms: C_4  and  C_5
REMARK    5  A    between atoms: C_5  and  C_6
REMARK    6  A    between atoms: C_6  and  C_7
REMARK    7  A    between atoms: C_7  and  C_8
REMARK    8  A    between atoms: C_7  and  C_9
REMARK    9  A    between atoms: C_18  and  N_19
REMARK   10  A    between atoms: C_22  and  C_23
REMARK   11  A    between atoms: C_27  and  C_28
REMARK                            x       y       z     vdW  Elec       q    Type
REMARK                         _______ _______ _______ _____ _____    ______ ____
ROOT
ATOM      1  C   UNL     1      10.486  12.124  18.780  0.00  0.00    +0.000 C 
ATOM      2  C   UNL     1      10.495  12.812  17.404  0.00  0.00    +0.000 C 
ATOM      3  C   UNL     1       9.522  13.974  17.551  0.00  0.00    +0.000 C 
ATOM      4  C   UNL     1       9.561  14.396  19.043  0.00  0.00    +0.000 C 
ATOM      5  C   UNL     1       8.126  14.512  19.643  0.00  0.00    +0.000 C 
ATOM      6  C   UNL     1       7.449  15.746  19.037  0.00  0.00    +0.000 C 
ATOM      7  C   UNL     1       6.147  16.186  19.667  0.00  0.00    +0.000 C 
ATOM      8  C   UNL     1       5.845  15.619  21.045  0.00  0.00    +0.000 C 
ATOM      9  C   UNL     1       4.832  16.512  21.780  0.00  0.00    +0.000 C 
ATOM     10  C   UNL     1       4.211  15.786  22.975  0.00  0.00    +0.000 C 
ATOM     11  C   UNL     1       5.266  15.115  23.872  0.00  0.00    +0.000 C 
ATOM     12  C   UNL     1       6.386  14.385  23.111  0.00  0.00    +0.000 C 
ATOM     13  C   UNL     1       7.033  15.240  21.960  0.00  0.00    +0.000 C 
ATOM     14  C   UNL     1       7.751  16.439  22.637  0.00  0.00    +0.000 C 
ATOM     15  C   UNL     1       8.053  14.351  21.189  0.00  0.00    +0.000 C 
ATOM     16  C   UNL     1       9.446  14.281  21.839  0.00  0.00    +0.000 C 
ATOM     17  C   UNL     1      10.228  13.146  21.216  0.00  0.00    +0.000 C 
ATOM     18  C   UNL     1      10.539  13.391  19.729  0.00  0.00    +0.000 C 
ATOM     19  C   UNL     1      11.957  14.054  19.716  0.00  0.00    +0.000 C 
ENDROOT
BRANCH  10  20
ATOM     20  N   UNL     1       3.248  14.786  22.493  0.00  0.00    +0.000 NA
ATOM     21  H   UNL     1       2.357  15.244  22.291  0.00  0.00    +0.000 HD
ATOM     22  H   UNL     1       3.561  14.393  21.609  0.00  0.00    +0.000 HD
ENDBRANCH  10  20
BRANCH   1  23
ATOM     23  C   UNL     1       9.229  11.192  19.016  0.00  0.00    +0.000 C 
ATOM     24  C   UNL     1       9.369  10.374  20.315  0.00  0.00    +0.000 C 
BRANCH  23  25
ATOM     25  C   UNL     1       8.823  10.218  17.879  0.00  0.00    +0.000 C 
BRANCH  25  26
ATOM     26  C   UNL     1       8.482   8.783  18.367  0.00  0.00    +0.000 C 
BRANCH  26  27
ATOM     27  C   UNL     1       7.618   7.979  17.381  0.00  0.00    +0.000 C 
BRANCH  27  29
ATOM     28  C   UNL     1       7.089   5.592  16.773  0.00  0.00    +0.000 C 
ATOM     29  C   UNL     1       7.140   6.613  17.917  0.00  0.00    +0.000 C 
ATOM     30  C   UNL     1       8.006   6.064  19.050  0.00  0.00    +0.000 C 
ENDBRANCH  27  29
ENDBRANCH  26  27
ENDBRANCH  25  26
ENDBRANCH  23  25
ENDBRANCH   1  23
TORSDOF 6
ENDMDL
MODEL 7
REMARK VINA RESULT:      -5.1      2.234      5.750
REMARK  Name = 
REMARK  11 active torsions:
REMARK  status: ('A' for Active; 'I' for Inactive)
REMARK    1  A    between atoms: C_1  and  C_2
REMARK    2  A    between atoms: C_2  and  C_3
REMARK    3  A    between atoms: C_2  and  C_4
REMARK    4  A    between atoms: C_4  and  C_5
REMARK    5  A    between atoms: C_5  and  C_6
REMARK    6  A    between atoms: C_6  and  C_7
REMARK    7  A    between atoms: C_7  and  C_8
REMARK    8  A    between atoms: C_7  and  C_9
REMARK    9  A    between atoms: C_18  and  N_19
REMARK   10  A    between atoms: C_22  and  C_23
REMARK   11  A    between atoms: C_27  and  C_28
REMARK                            x       y       z     vdW  Elec       q    Type
REMARK                         _______ _______ _______ _____ _____    ______ ____
ROOT
ATOM      1  C   UNL     1       9.326  14.472  22.649  0.00  0.00    +0.000 C 
ATOM      2  C   UNL     1      10.370  15.025  21.665  0.00  0.00    +0.000 C 
ATOM      3  C   UNL     1       9.565  15.415  20.432  0.00  0.00    +0.000 C 
ATOM      4  C   UNL     1       8.147  15.797  20.933  0.00  0.00    +0.000 C 
ATOM      5  C   UNL     1       7.036  15.070  20.116  0.00  0.00    +0.000 C 
ATOM      6  C   UNL     1       6.993  15.683  18.712  0.00  0.00    +0.000 C 
ATOM      7  C   UNL     1       5.821  15.297  17.837  0.00  0.00    +0.000 C 
ATOM      8  C   UNL     1       4.631  14.673  18.549  0.00  0.00    +0.000 C 
ATOM      9  C   UNL     1       3.360  14.826  17.699  0.00  0.00    +0.000 C 
ATOM     10  C   UNL     1       2.251  13.885  18.177  0.00  0.00    +0.000 C 
ATOM     11  C   UNL     1       2.035  13.953  19.700  0.00  0.00    +0.000 C 
ATOM     12  C   UNL     1       3.328  13.996  20.532  0.00  0.00    +0.000 C 
ATOM     13  C   UNL     1       4.373  15.057  20.025  0.00  0.00    +0.000 C 
ATOM     14  C   UNL     1       3.737  16.457  20.240  0.00  0.00    +0.000 C 
ATOM     15  C   UNL     1       5.679  14.911  20.862  0.00  0.00    +0.000 C 
ATOM     16  C   UNL     1       5.655  15.663  22.204  0.00  0.00    +0.000 C 
ATOM     17  C   UNL     1       6.802  15.180  23.064  0.00  0.00    +0.000 C 
ATOM     18  C   UNL     1       8.176  15.546  22.474  0.00  0.00    +0.000 C 
ATOM     19  C   UNL     1       8.557  16.905  23.151  0.00  0.00    +0.000 C 
ENDROOT
BRANCH  10  20
ATOM     20  N   UNL     1       2.570  12.509  17.774  0.00  0.00    +0.000 NA
ATOM     21  H   UNL     1       2.433  12.411  16.766  0.00  0.00    +0.000 HD
ATOM     22  H   UNL     1       3.554  12.312  17.938  0.00  0.00    +0.000 HD
ENDBRANCH  10  20
BRANCH   1  23
ATOM     23  C   UNL     1       8.877  12.987  22.331  0.00  0.00    +0.000 C 
ATOM     24  C   UNL     1       8.431  12.246  23.607  0.00  0.00    +0.000 C 
BRANCH  23  25
ATOM     25  C   UNL     1       9.876  12.073  21.571  0.00  0.00    +0.000 C 
BRANCH  25  26
ATOM     26  C   UNL     1       9.352  11.571  20.198  0.00  0.00    +0.000 C 
BRANCH  26  27
ATOM     27  C   UNL     1      10.325  11.818  19.033  0.00  0.00    +0.000 C 
BRANCH  27  29
ATOM     28  C   UNL     1      10.899  13.046  16.909  0.00  0.00    +0.000 C 
ATOM     29  C   UNL     1       9.867  12.902  18.035  0.00  0.00    +0.000 C 
ATOM     30  C   UNL     1       8.489  12.630  17.430  0.00  0.00    +0.000 C 
ENDBRANCH  27  29
ENDBRANCH  26  27
ENDBRANCH  25  26
ENDBRANCH  23  25
ENDBRANCH   1  23
TORSDOF 6
ENDMDL
MODEL 8
REMARK VINA RESULT:      -5.1      8.568     11.889
REMARK  Name = 
REMARK  11 active torsions:
REMARK  status: ('A' for Active; 'I' for Inactive)
REMARK    1  A    between atoms: C_1  and  C_2
REMARK    2  A    between atoms: C_2  and  C_3
REMARK    3  A    between atoms: C_2  and  C_4
REMARK    4  A    between atoms: C_4  and  C_5
REMARK    5  A    between atoms: C_5  and  C_6
REMARK    6  A    between atoms: C_6  and  C_7
REMARK    7  A    between atoms: C_7  and  C_8
REMARK    8  A    between atoms: C_7  and  C_9
REMARK    9  A    between atoms: C_18  and  N_19
REMARK   10  A    between atoms: C_22  and  C_23
REMARK   11  A    between atoms: C_27  and  C_28
REMARK                            x       y       z     vdW  Elec       q    Type
REMARK                         _______ _______ _______ _____ _____    ______ ____
ROOT
ATOM      1  C   UNL     1       0.773  10.644  20.668  0.00  0.00    +0.000 C 
ATOM      2  C   UNL     1       0.836  10.350  19.159  0.00  0.00    +0.000 C 
ATOM      3  C   UNL     1      -0.505  10.830  18.619  0.00  0.00    +0.000 C 
ATOM      4  C   UNL     1      -0.962  11.990  19.542  0.00  0.00    +0.000 C 
ATOM      5  C   UNL     1      -2.433  11.795  20.022  0.00  0.00    +0.000 C 
ATOM      6  C   UNL     1      -3.363  12.026  18.826  0.00  0.00    +0.000 C 
ATOM      7  C   UNL     1      -4.842  12.132  19.125  0.00  0.00    +0.000 C 
ATOM      8  C   UNL     1      -5.214  12.386  20.577  0.00  0.00    +0.000 C 
ATOM      9  C   UNL     1      -6.623  12.994  20.669  0.00  0.00    +0.000 C 
ATOM     10  C   UNL     1      -7.183  12.896  22.090  0.00  0.00    +0.000 C 
ATOM     11  C   UNL     1      -6.186  13.387  23.154  0.00  0.00    +0.000 C 
ATOM     12  C   UNL     1      -4.734  12.926  22.936  0.00  0.00    +0.000 C 
ATOM     13  C   UNL     1      -4.210  13.151  21.471  0.00  0.00    +0.000 C 
ATOM     14  C   UNL     1      -4.158  14.686  21.240  0.00  0.00    +0.000 C 
ATOM     15  C   UNL     1      -2.787  12.528  21.348  0.00  0.00    +0.000 C 
ATOM     16  C   UNL     1      -1.652  13.447  21.832  0.00  0.00    +0.000 C 
ATOM     17  C   UNL     1      -0.387  12.632  21.989  0.00  0.00    +0.000 C 
ATOM     18  C   UNL     1       0.138  12.095  20.645  0.00  0.00    +0.000 C 
ATOM     19  C   UNL     1       1.173  13.163  20.159  0.00  0.00    +0.000 C 
ENDROOT
BRANCH  10  20
ATOM     20  N   UNL     1      -7.572  11.506  22.366  0.00  0.00    +0.000 NA
ATOM     21  H   UNL     1      -7.527  10.964  21.502  0.00  0.00    +0.000 HD
ATOM     22  H   UNL     1      -6.904  11.071  22.998  0.00  0.00    +0.000 HD
ENDBRANCH  10  20
BRANCH   1  23
ATOM     23  C   UNL     1      -0.068   9.583  21.488  0.00  0.00    +0.000 C 
ATOM     24  C   UNL     1       0.165   9.727  23.004  0.00  0.00    +0.000 C 
BRANCH  23  25
ATOM     25  C   UNL     1       0.096   8.084  21.119  0.00  0.00    +0.000 C 
BRANCH  25  26
ATOM     26  C   UNL     1       1.565   7.580  21.165  0.00  0.00    +0.000 C 
BRANCH  26  27
ATOM     27  C   UNL     1       1.918   6.592  20.040  0.00  0.00    +0.000 C 
BRANCH  27  29
ATOM     28  C   UNL     1       0.986   4.283  20.426  0.00  0.00    +0.000 C 
ATOM     29  C   UNL     1       2.240   5.162  20.523  0.00  0.00    +0.000 C 
ATOM     30  C   UNL     1       3.384   4.501  19.754  0.00  0.00    +0.000 C 
ENDBRANCH  27  29
ENDBRANCH  26  27
ENDBRANCH  25  26
ENDBRANCH  23  25
ENDBRANCH   1  23
TORSDOF 6
ENDMDL
MODEL 9
REMARK VINA RESULT:      -5.0      7.987     11.123
REMARK  Name = 
REMARK  11 active torsions:
REMARK  status: ('A' for Active; 'I' for Inactive)
REMARK    1  A    between atoms: C_1  and  C_2
REMARK    2  A    between atoms: C_2  and  C_3
REMARK    3  A    between atoms: C_2  and  C_4
REMARK    4  A    between atoms: C_4  and  C_5
REMARK    5  A    between atoms: C_5  and  C_6
REMARK    6  A    between atoms: C_6  and  C_7
REMARK    7  A    between atoms: C_7  and  C_8
REMARK    8  A    between atoms: C_7  and  C_9
REMARK    9  A    between atoms: C_18  and  N_19
REMARK   10  A    between atoms: C_22  and  C_23
REMARK   11  A    between atoms: C_27  and  C_28
REMARK                            x       y       z     vdW  Elec       q    Type
REMARK                         _______ _______ _______ _____ _____    ______ ____
ROOT
ATOM      1  C   UNL     1       1.321   9.963  19.612  0.00  0.00    +0.000 C 
ATOM      2  C   UNL     1       0.853   9.497  18.222  0.00  0.00    +0.000 C 
ATOM      3  C   UNL     1      -0.510  10.151  18.038  0.00  0.00    +0.000 C 
ATOM      4  C   UNL     1      -0.480  11.470  18.854  0.00  0.00    +0.000 C 
ATOM      5  C   UNL     1      -1.730  11.601  19.777  0.00  0.00    +0.000 C 
ATOM      6  C   UNL     1      -2.955  11.864  18.894  0.00  0.00    +0.000 C 
ATOM      7  C   UNL     1      -4.228  12.271  19.600  0.00  0.00    +0.000 C 
ATOM      8  C   UNL     1      -4.074  12.748  21.036  0.00  0.00    +0.000 C 
ATOM      9  C   UNL     1      -5.279  13.610  21.445  0.00  0.00    +0.000 C 
ATOM     10  C   UNL     1      -5.360  13.773  22.965  0.00  0.00    +0.000 C 
ATOM     11  C   UNL     1      -4.015  14.189  23.587  0.00  0.00    +0.000 C 
ATOM     12  C   UNL     1      -2.790  13.449  23.023  0.00  0.00    +0.000 C 
ATOM     13  C   UNL     1      -2.740  13.411  21.451  0.00  0.00    +0.000 C 
ATOM     14  C   UNL     1      -2.553  14.875  20.969  0.00  0.00    +0.000 C 
ATOM     15  C   UNL     1      -1.533  12.529  21.011  0.00  0.00    +0.000 C 
ATOM     16  C   UNL     1      -0.187  13.273  20.977  0.00  0.00    +0.000 C 
ATOM     17  C   UNL     1       0.935  12.263  20.878  0.00  0.00    +0.000 C 
ATOM     18  C   UNL     1       0.920  11.494  19.545  0.00  0.00    +0.000 C 
ATOM     19  C   UNL     1       1.880  12.294  18.604  0.00  0.00    +0.000 C 
ENDROOT
BRANCH  10  20
ATOM     20  N   UNL     1      -5.828  12.517  23.567  0.00  0.00    +0.000 NA
ATOM     21  H   UNL     1      -5.055  12.071  24.064  0.00  0.00    +0.000 HD
ATOM     22  H   UNL     1      -6.536  12.705  24.272  0.00  0.00    +0.000 HD
ENDBRANCH  10  20
BRANCH   1  23
ATOM     23  C   UNL     1       0.650   9.170  20.807  0.00  0.00    +0.000 C 
ATOM     24  C   UNL     1       1.429   9.367  22.122  0.00  0.00    +0.000 C 
BRANCH  23  25
ATOM     25  C   UNL     1       0.401   7.650  20.621  0.00  0.00    +0.000 C 
BRANCH  25  26
ATOM     26  C   UNL     1       1.659   6.770  20.857  0.00  0.00    +0.000 C 
BRANCH  26  27
ATOM     27  C   UNL     1       2.341   6.301  19.562  0.00  0.00    +0.000 C 
BRANCH  27  29
ATOM     28  C   UNL     1       1.195   4.169  20.261  0.00  0.00    +0.000 C 
ATOM     29  C   UNL     1       2.163   4.799  19.253  0.00  0.00    +0.000 C 
ATOM     30  C   UNL     1       1.670   4.523  17.832  0.00  0.00    +0.000 C 
ENDBRANCH  27  29
ENDBRANCH  26  27
ENDBRANCH  25  26
ENDBRANCH  23  25
ENDBRANCH   1  23
TORSDOF 6
ENDMDL
