MODEL 1
REMARK VINA RESULT:      -7.4      0.000      0.000
REMARK  Name = 
REMARK  6 active torsions:
REMARK  status: ('A' for Active; 'I' for Inactive)
REMARK    1  A    between atoms: C_1  and  C_2
REMARK    2  A    between atoms: C_2  and  O_3
REMARK    3  A    between atoms: O_3  and  C_4
REMARK    4  A    between atoms: C_4  and  C_6
REMARK    5  A    between atoms: N_9  and  C_10
REMARK    6  A    between atoms: C_17  and  C_18
REMARK                            x       y       z     vdW  Elec       q    Type
REMARK                         _______ _______ _______ _____ _____    ______ ____
ROOT
ATOM      1  C   UNL     1       6.622   6.080  18.249  0.00  0.00    +0.000 A 
ATOM      2  N   UNL     1       6.959   5.248  19.283  0.00  0.00    +0.000 NA
ATOM      3  N   UNL     1       5.861   4.640  19.698  0.00  0.00    +0.000 NA
ATOM      4  N   UNL     1       4.842   4.975  18.868  0.00  0.00    +0.000 N 
ATOM      5  C   UNL     1       5.260   5.968  17.999  0.00  0.00    +0.000 A 
ATOM      6  C   UNL     1       4.399   6.770  17.097  0.00  0.00    +0.000 C 
ENDROOT
BRANCH   4   7
ATOM      7  C   UNL     1       3.596   4.311  18.983  0.00  0.00    +0.000 A 
ATOM      8  C   UNL     1       3.246   3.362  18.010  0.00  0.00    +0.000 A 
ATOM      9  C   UNL     1       2.032   2.683  18.101  0.00  0.00    +0.000 A 
ATOM     10  C   UNL     1       1.156   2.983  19.138  0.00  0.00    +0.000 A 
ATOM     11  F   UNL     1      -0.016   2.341  19.222  0.00  0.00    +0.000 F 
ATOM     12  C   UNL     1       1.474   3.949  20.088  0.00  0.00    +0.000 A 
ATOM     13  C   UNL     1       2.700   4.614  20.020  0.00  0.00    +0.000 A 
ENDBRANCH   4   7
BRANCH   1  14
ATOM     14  C   UNL     1       7.589   6.913  17.553  0.00  0.00    +0.000 C 
ATOM     15  O   UNL     1       7.848   6.800  16.362  0.00  0.00    +0.000 OA
BRANCH  14  16
ATOM     16  O   UNL     1       8.225   7.770  18.405  0.00  0.00    +0.000 OA
BRANCH  16  18
ATOM     17  C   UNL     1       9.101   9.917  18.986  0.00  0.00    +0.000 C 
ATOM     18  C   UNL     1       8.223   9.146  18.013  0.00  0.00    +0.000 C 
ENDBRANCH  16  18
ENDBRANCH  14  16
ENDBRANCH   1  14
TORSDOF 4
ENDMDL
MODEL 2
REMARK VINA RESULT:      -7.4      0.091      1.145
REMARK  Name = 
REMARK  6 active torsions:
REMARK  status: ('A' for Active; 'I' for Inactive)
REMARK    1  A    between atoms: C_1  and  C_2
REMARK    2  A    between atoms: C_2  and  O_3
REMARK    3  A    between atoms: O_3  and  C_4
REMARK    4  A    between atoms: C_4  and  C_6
REMARK    5  A    between atoms: N_9  and  C_10
REMARK    6  A    between atoms: C_17  and  C_18
REMARK                            x       y       z     vdW  Elec       q    Type
REMARK                         _______ _______ _______ _____ _____    ______ ____
ROOT
ATOM      1  C   UNL     1       6.625   6.084  18.243  0.00  0.00    +0.000 A 
ATOM      2  N   UNL     1       6.963   5.242  19.268  0.00  0.00    +0.000 NA
ATOM      3  N   UNL     1       5.865   4.636  19.683  0.00  0.00    +0.000 NA
ATOM      4  N   UNL     1       4.843   4.983  18.862  0.00  0.00    +0.000 N 
ATOM      5  C   UNL     1       5.262   5.982  17.999  0.00  0.00    +0.000 A 
ATOM      6  C   UNL     1       4.399   6.795  17.109  0.00  0.00    +0.000 C 
ENDROOT
BRANCH   4   7
ATOM      7  C   UNL     1       3.594   4.325  18.979  0.00  0.00    +0.000 A 
ATOM      8  C   UNL     1       2.790   4.601  20.096  0.00  0.00    +0.000 A 
ATOM      9  C   UNL     1       1.551   3.979  20.235  0.00  0.00    +0.000 A 
ATOM     10  C   UNL     1       1.137   3.056  19.281  0.00  0.00    +0.000 A 
ATOM     11  F   UNL     1      -0.048   2.448  19.417  0.00  0.00    +0.000 F 
ATOM     12  C   UNL     1       1.940   2.745  18.189  0.00  0.00    +0.000 A 
ATOM     13  C   UNL     1       3.172   3.384  18.028  0.00  0.00    +0.000 A 
ENDBRANCH   4   7
BRANCH   1  14
ATOM     14  C   UNL     1       7.593   6.919  17.548  0.00  0.00    +0.000 C 
ATOM     15  O   UNL     1       7.857   6.803  16.359  0.00  0.00    +0.000 OA
BRANCH  14  16
ATOM     16  O   UNL     1       8.223   7.780  18.402  0.00  0.00    +0.000 OA
BRANCH  16  18
ATOM     17  C   UNL     1       9.086   9.932  18.983  0.00  0.00    +0.000 C 
ATOM     18  C   UNL     1       8.222   9.155  18.004  0.00  0.00    +0.000 C 
ENDBRANCH  16  18
ENDBRANCH  14  16
ENDBRANCH   1  14
TORSDOF 4
ENDMDL
MODEL 3
REMARK VINA RESULT:      -7.1      2.134      3.081
REMARK  Name = 
REMARK  6 active torsions:
REMARK  status: ('A' for Active; 'I' for Inactive)
REMARK    1  A    between atoms: C_1  and  C_2
REMARK    2  A    between atoms: C_2  and  O_3
REMARK    3  A    between atoms: O_3  and  C_4
REMARK    4  A    between atoms: C_4  and  C_6
REMARK    5  A    between atoms: N_9  and  C_10
REMARK    6  A    between atoms: C_17  and  C_18
REMARK                            x       y       z     vdW  Elec       q    Type
REMARK                         _______ _______ _______ _____ _____    ______ ____
ROOT
ATOM      1  C   UNL     1       6.566   5.310  17.813  0.00  0.00    +0.000 A 
ATOM      2  N   UNL     1       7.147   5.191  19.047  0.00  0.00    +0.000 NA
ATOM      3  N   UNL     1       6.207   4.857  19.914  0.00  0.00    +0.000 NA
ATOM      4  N   UNL     1       5.052   4.639  19.237  0.00  0.00    +0.000 N 
ATOM      5  C   UNL     1       5.212   5.018  17.915  0.00  0.00    +0.000 A 
ATOM      6  C   UNL     1       4.138   5.159  16.904  0.00  0.00    +0.000 C 
ENDROOT
BRANCH   4   7
ATOM      7  C   UNL     1       3.936   4.088  19.913  0.00  0.00    +0.000 A 
ATOM      8  C   UNL     1       2.870   4.937  20.255  0.00  0.00    +0.000 A 
ATOM      9  C   UNL     1       1.752   4.424  20.910  0.00  0.00    +0.000 A 
ATOM     10  C   UNL     1       1.719   3.079  21.257  0.00  0.00    +0.000 A 
ATOM     11  F   UNL     1       0.651   2.586  21.897  0.00  0.00    +0.000 F 
ATOM     12  C   UNL     1       2.784   2.235  20.959  0.00  0.00    +0.000 A 
ATOM     13  C   UNL     1       3.897   2.734  20.278  0.00  0.00    +0.000 A 
ENDBRANCH   4   7
BRANCH   1  14
ATOM     14  C   UNL     1       7.309   5.674  16.617  0.00  0.00    +0.000 C 
ATOM     15  O   UNL     1       7.696   6.811  16.381  0.00  0.00    +0.000 OA
BRANCH  14  16
ATOM     16  O   UNL     1       7.444   4.617  15.763  0.00  0.00    +0.000 OA
BRANCH  16  18
ATOM     17  C   UNL     1       6.051   3.909  13.954  0.00  0.00    +0.000 C 
ATOM     18  C   UNL     1       7.129   4.886  14.393  0.00  0.00    +0.000 C 
ENDBRANCH  16  18
ENDBRANCH  14  16
ENDBRANCH   1  14
TORSDOF 4
ENDMDL
MODEL 4
REMARK VINA RESULT:      -7.0      2.359      3.206
REMARK  Name = 
REMARK  6 active torsions:
REMARK  status: ('A' for Active; 'I' for Inactive)
REMARK    1  A    between atoms: C_1  and  C_2
REMARK    2  A    between atoms: C_2  and  O_3
REMARK    3  A    between atoms: O_3  and  C_4
REMARK    4  A    between atoms: C_4  and  C_6
REMARK    5  A    between atoms: N_9  and  C_10
REMARK    6  A    between atoms: C_17  and  C_18
REMARK                            x       y       z     vdW  Elec       q    Type
REMARK                         _______ _______ _______ _____ _____    ______ ____
ROOT
ATOM      1  C   UNL     1       6.434   5.094  17.558  0.00  0.00    +0.000 A 
ATOM      2  N   UNL     1       7.066   5.111  18.773  0.00  0.00    +0.000 NA
ATOM      3  N   UNL     1       6.167   4.864  19.709  0.00  0.00    +0.000 NA
ATOM      4  N   UNL     1       4.988   4.567  19.108  0.00  0.00    +0.000 N 
ATOM      5  C   UNL     1       5.089   4.804  17.748  0.00  0.00    +0.000 A 
ATOM      6  C   UNL     1       3.973   4.828  16.773  0.00  0.00    +0.000 C 
ENDROOT
BRANCH   4   7
ATOM      7  C   UNL     1       3.907   4.084  19.885  0.00  0.00    +0.000 A 
ATOM      8  C   UNL     1       3.900   2.731  20.262  0.00  0.00    +0.000 A 
ATOM      9  C   UNL     1       2.857   2.227  21.036  0.00  0.00    +0.000 A 
ATOM     10  C   UNL     1       1.807   3.062  21.397  0.00  0.00    +0.000 A 
ATOM     11  F   UNL     1       0.797   2.578  22.131  0.00  0.00    +0.000 F 
ATOM     12  C   UNL     1       1.781   4.395  20.999  0.00  0.00    +0.000 A 
ATOM     13  C   UNL     1       2.836   4.915  20.245  0.00  0.00    +0.000 A 
ENDBRANCH   4   7
BRANCH   1  14
ATOM     14  C   UNL     1       7.123   5.334  16.300  0.00  0.00    +0.000 C 
ATOM     15  O   UNL     1       7.705   6.377  16.036  0.00  0.00    +0.000 OA
BRANCH  14  16
ATOM     16  O   UNL     1       6.966   4.292  15.430  0.00  0.00    +0.000 OA
BRANCH  16  18
ATOM     17  C   UNL     1       5.945   3.721  13.346  0.00  0.00    +0.000 C 
ATOM     18  C   UNL     1       6.928   4.646  14.044  0.00  0.00    +0.000 C 
ENDBRANCH  16  18
ENDBRANCH  14  16
ENDBRANCH   1  14
TORSDOF 4
ENDMDL
MODEL 5
REMARK VINA RESULT:      -7.0      1.195      2.235
REMARK  Name = 
REMARK  6 active torsions:
REMARK  status: ('A' for Active; 'I' for Inactive)
REMARK    1  A    between atoms: C_1  and  C_2
REMARK    2  A    between atoms: C_2  and  O_3
REMARK    3  A    between atoms: O_3  and  C_4
REMARK    4  A    between atoms: C_4  and  C_6
REMARK    5  A    between atoms: N_9  and  C_10
REMARK    6  A    between atoms: C_17  and  C_18
REMARK                            x       y       z     vdW  Elec       q    Type
REMARK                         _______ _______ _______ _____ _____    ______ ____
ROOT
ATOM      1  C   UNL     1       6.462   5.972  18.179  0.00  0.00    +0.000 A 
ATOM      2  N   UNL     1       6.866   5.105  19.159  0.00  0.00    +0.000 NA
ATOM      3  N   UNL     1       5.789   4.560  19.697  0.00  0.00    +0.000 NA
ATOM      4  N   UNL     1       4.703   4.970  18.998  0.00  0.00    +0.000 N 
ATOM      5  C   UNL     1       5.076   5.949  18.093  0.00  0.00    +0.000 A 
ATOM      6  C   UNL     1       4.166   6.815  17.307  0.00  0.00    +0.000 C 
ENDROOT
BRANCH   4   7
ATOM      7  C   UNL     1       3.440   4.383  19.257  0.00  0.00    +0.000 A 
ATOM      8  C   UNL     1       2.964   3.394  18.380  0.00  0.00    +0.000 A 
ATOM      9  C   UNL     1       1.731   2.789  18.613  0.00  0.00    +0.000 A 
ATOM     10  C   UNL     1       0.960   3.200  19.694  0.00  0.00    +0.000 A 
ATOM     11  F   UNL     1      -0.231   2.628  19.914  0.00  0.00    +0.000 F 
ATOM     12  C   UNL     1       1.402   4.204  20.549  0.00  0.00    +0.000 A 
ATOM     13  C   UNL     1       2.649   4.797  20.339  0.00  0.00    +0.000 A 
ENDBRANCH   4   7
BRANCH   1  14
ATOM     14  C   UNL     1       7.390   6.755  17.379  0.00  0.00    +0.000 C 
ATOM     15  O   UNL     1       8.024   7.707  17.814  0.00  0.00    +0.000 OA
BRANCH  14  16
ATOM     16  O   UNL     1       7.399   6.350  16.074  0.00  0.00    +0.000 OA
BRANCH  16  18
ATOM     17  C   UNL     1       6.379   4.668  14.716  0.00  0.00    +0.000 C 
ATOM     18  C   UNL     1       7.336   4.936  15.866  0.00  0.00    +0.000 C 
ENDBRANCH  16  18
ENDBRANCH  14  16
ENDBRANCH   1  14
TORSDOF 4
ENDMDL
MODEL 6
REMARK VINA RESULT:      -6.9      1.202      2.505
REMARK  Name = 
REMARK  6 active torsions:
REMARK  status: ('A' for Active; 'I' for Inactive)
REMARK    1  A    between atoms: C_1  and  C_2
REMARK    2  A    between atoms: C_2  and  O_3
REMARK    3  A    between atoms: O_3  and  C_4
REMARK    4  A    between atoms: C_4  and  C_6
REMARK    5  A    between atoms: N_9  and  C_10
REMARK    6  A    between atoms: C_17  and  C_18
REMARK                            x       y       z     vdW  Elec       q    Type
REMARK                         _______ _______ _______ _____ _____    ______ ____
ROOT
ATOM      1  C   UNL     1       6.491   5.842  18.089  0.00  0.00    +0.000 A 
ATOM      2  N   UNL     1       6.902   4.854  18.943  0.00  0.00    +0.000 NA
ATOM      3  N   UNL     1       5.828   4.272  19.447  0.00  0.00    +0.000 NA
ATOM      4  N   UNL     1       4.732   4.787  18.838  0.00  0.00    +0.000 N 
ATOM      5  C   UNL     1       5.103   5.860  18.045  0.00  0.00    +0.000 A 
ATOM      6  C   UNL     1       4.193   6.836  17.400  0.00  0.00    +0.000 C 
ENDROOT
BRANCH   4   7
ATOM      7  C   UNL     1       3.462   4.201  19.065  0.00  0.00    +0.000 A 
ATOM      8  C   UNL     1       2.691   4.663  20.144  0.00  0.00    +0.000 A 
ATOM      9  C   UNL     1       1.433   4.115  20.388  0.00  0.00    +0.000 A 
ATOM     10  C   UNL     1       0.967   3.084  19.581  0.00  0.00    +0.000 A 
ATOM     11  F   UNL     1      -0.236   2.548  19.819  0.00  0.00    +0.000 F 
ATOM     12  C   UNL     1       1.736   2.591  18.532  0.00  0.00    +0.000 A 
ATOM     13  C   UNL     1       2.987   3.152  18.263  0.00  0.00    +0.000 A 
ENDBRANCH   4   7
BRANCH   1  14
ATOM     14  C   UNL     1       7.415   6.696  17.359  0.00  0.00    +0.000 C 
ATOM     15  O   UNL     1       7.993   7.651  17.858  0.00  0.00    +0.000 OA
BRANCH  14  16
ATOM     16  O   UNL     1       7.488   6.350  16.039  0.00  0.00    +0.000 OA
BRANCH  16  18
ATOM     17  C   UNL     1       6.426   4.833  14.528  0.00  0.00    +0.000 C 
ATOM     18  C   UNL     1       7.315   4.959  15.754  0.00  0.00    +0.000 C 
ENDBRANCH  16  18
ENDBRANCH  14  16
ENDBRANCH   1  14
TORSDOF 4
ENDMDL
MODEL 7
REMARK VINA RESULT:      -6.9      2.870      3.901
REMARK  Name = 
REMARK  6 active torsions:
REMARK  status: ('A' for Active; 'I' for Inactive)
REMARK    1  A    between atoms: C_1  and  C_2
REMARK    2  A    between atoms: C_2  and  O_3
REMARK    3  A    between atoms: O_3  and  C_4
REMARK    4  A    between atoms: C_4  and  C_6
REMARK    5  A    between atoms: N_9  and  C_10
REMARK    6  A    between atoms: C_17  and  C_18
REMARK                            x       y       z     vdW  Elec       q    Type
REMARK                         _______ _______ _______ _____ _____    ______ ____
ROOT
ATOM      1  C   UNL     1       6.499   4.506  16.630  0.00  0.00    +0.000 A 
ATOM      2  N   UNL     1       7.306   4.587  17.734  0.00  0.00    +0.000 NA
ATOM      3  N   UNL     1       6.545   4.480  18.809  0.00  0.00    +0.000 NA
ATOM      4  N   UNL     1       5.276   4.209  18.415  0.00  0.00    +0.000 N 
ATOM      5  C   UNL     1       5.184   4.322  17.038  0.00  0.00    +0.000 A 
ATOM      6  C   UNL     1       3.938   4.334  16.236  0.00  0.00    +0.000 C 
ENDROOT
BRANCH   4   7
ATOM      7  C   UNL     1       4.300   3.865  19.382  0.00  0.00    +0.000 A 
ATOM      8  C   UNL     1       3.382   4.846  19.790  0.00  0.00    +0.000 A 
ATOM      9  C   UNL     1       2.401   4.537  20.731  0.00  0.00    +0.000 A 
ATOM     10  C   UNL     1       2.366   3.264  21.290  0.00  0.00    +0.000 A 
ATOM     11  F   UNL     1       1.432   2.967  22.202  0.00  0.00    +0.000 F 
ATOM     12  C   UNL     1       3.292   2.294  20.922  0.00  0.00    +0.000 A 
ATOM     13  C   UNL     1       4.262   2.587  19.960  0.00  0.00    +0.000 A 
ENDBRANCH   4   7
BRANCH   1  14
ATOM     14  C   UNL     1       7.004   4.593  15.269  0.00  0.00    +0.000 C 
ATOM     15  O   UNL     1       7.760   5.474  14.882  0.00  0.00    +0.000 OA
BRANCH  14  16
ATOM     16  O   UNL     1       6.467   3.626  14.467  0.00  0.00    +0.000 OA
BRANCH  16  18
ATOM     17  C   UNL     1       5.234   3.459  12.426  0.00  0.00    +0.000 C 
ATOM     18  C   UNL     1       6.552   3.873  13.061  0.00  0.00    +0.000 C 
ENDBRANCH  16  18
ENDBRANCH  14  16
ENDBRANCH   1  14
TORSDOF 4
ENDMDL
MODEL 8
REMARK VINA RESULT:      -6.8      2.893      3.885
REMARK  Name = 
REMARK  6 active torsions:
REMARK  status: ('A' for Active; 'I' for Inactive)
REMARK    1  A    between atoms: C_1  and  C_2
REMARK    2  A    between atoms: C_2  and  O_3
REMARK    3  A    between atoms: O_3  and  C_4
REMARK    4  A    between atoms: C_4  and  C_6
REMARK    5  A    between atoms: N_9  and  C_10
REMARK    6  A    between atoms: C_17  and  C_18
REMARK                            x       y       z     vdW  Elec       q    Type
REMARK                         _______ _______ _______ _____ _____    ______ ____
ROOT
ATOM      1  C   UNL     1       6.580   4.538  16.436  0.00  0.00    +0.000 A 
ATOM      2  N   UNL     1       7.409   4.558  17.525  0.00  0.00    +0.000 NA
ATOM      3  N   UNL     1       6.663   4.472  18.613  0.00  0.00    +0.000 NA
ATOM      4  N   UNL     1       5.375   4.275  18.238  0.00  0.00    +0.000 N 
ATOM      5  C   UNL     1       5.265   4.416  16.865  0.00  0.00    +0.000 A 
ATOM      6  C   UNL     1       4.006   4.508  16.087  0.00  0.00    +0.000 C 
ENDROOT
BRANCH   4   7
ATOM      7  C   UNL     1       4.399   3.966  19.217  0.00  0.00    +0.000 A 
ATOM      8  C   UNL     1       4.316   2.647  19.693  0.00  0.00    +0.000 A 
ATOM      9  C   UNL     1       3.375   2.313  20.664  0.00  0.00    +0.000 A 
ATOM     10  C   UNL     1       2.495   3.284  21.127  0.00  0.00    +0.000 A 
ATOM     11  F   UNL     1       1.581   2.964  22.053  0.00  0.00    +0.000 F 
ATOM     12  C   UNL     1       2.540   4.585  20.638  0.00  0.00    +0.000 A 
ATOM     13  C   UNL     1       3.498   4.935  19.683  0.00  0.00    +0.000 A 
ENDBRANCH   4   7
BRANCH   1  14
ATOM     14  C   UNL     1       7.064   4.622  15.067  0.00  0.00    +0.000 C 
ATOM     15  O   UNL     1       7.886   5.446  14.689  0.00  0.00    +0.000 OA
BRANCH  14  16
ATOM     16  O   UNL     1       6.430   3.729  14.250  0.00  0.00    +0.000 OA
BRANCH  16  18
ATOM     17  C   UNL     1       5.603   3.054  12.111  0.00  0.00    +0.000 C 
ATOM     18  C   UNL     1       6.567   3.971  12.847  0.00  0.00    +0.000 C 
ENDBRANCH  16  18
ENDBRANCH  14  16
ENDBRANCH   1  14
TORSDOF 4
ENDMDL
MODEL 9
REMARK VINA RESULT:      -6.8      2.112      2.840
REMARK  Name = 
REMARK  6 active torsions:
REMARK  status: ('A' for Active; 'I' for Inactive)
REMARK    1  A    between atoms: C_1  and  C_2
REMARK    2  A    between atoms: C_2  and  O_3
REMARK    3  A    between atoms: O_3  and  C_4
REMARK    4  A    between atoms: C_4  and  C_6
REMARK    5  A    between atoms: N_9  and  C_10
REMARK    6  A    between atoms: C_17  and  C_18
REMARK                            x       y       z     vdW  Elec       q    Type
REMARK                         _______ _______ _______ _____ _____    ______ ____
ROOT
ATOM      1  C   UNL     1       4.410   6.304  16.938  0.00  0.00    +0.000 A 
ATOM      2  N   UNL     1       3.678   7.287  17.549  0.00  0.00    +0.000 NA
ATOM      3  N   UNL     1       2.840   6.711  18.394  0.00  0.00    +0.000 NA
ATOM      4  N   UNL     1       3.104   5.382  18.427  0.00  0.00    +0.000 N 
ATOM      5  C   UNL     1       4.023   5.068  17.440  0.00  0.00    +0.000 A 
ATOM      6  C   UNL     1       4.402   3.708  16.990  0.00  0.00    +0.000 C 
ENDROOT
BRANCH   4   7
ATOM      7  C   UNL     1       2.468   4.564  19.392  0.00  0.00    +0.000 A 
ATOM      8  C   UNL     1       2.972   4.554  20.703  0.00  0.00    +0.000 A 
ATOM      9  C   UNL     1       2.361   3.769  21.679  0.00  0.00    +0.000 A 
ATOM     10  C   UNL     1       1.279   2.967  21.336  0.00  0.00    +0.000 A 
ATOM     11  F   UNL     1       0.698   2.203  22.269  0.00  0.00    +0.000 F 
ATOM     12  C   UNL     1       0.794   2.938  20.032  0.00  0.00    +0.000 A 
ATOM     13  C   UNL     1       1.383   3.743  19.054  0.00  0.00    +0.000 A 
ENDBRANCH   4   7
BRANCH   1  14
ATOM     14  C   UNL     1       5.430   6.579  15.939  0.00  0.00    +0.000 C 
ATOM     15  O   UNL     1       5.179   6.950  14.800  0.00  0.00    +0.000 OA
BRANCH  14  16
ATOM     16  O   UNL     1       6.682   6.290  16.401  0.00  0.00    +0.000 OA
BRANCH  16  18
ATOM     17  C   UNL     1       7.703   6.298  18.562  0.00  0.00    +0.000 C 
ATOM     18  C   UNL     1       7.178   7.159  17.425  0.00  0.00    +0.000 C 
ENDBRANCH  16  18
ENDBRANCH  14  16
ENDBRANCH   1  14
TORSDOF 4
ENDMDL
