MODEL 1
REMARK VINA RESULT:      -7.3      0.000      0.000
REMARK  Name = 
REMARK  14 active torsions:
REMARK  status: ('A' for Active; 'I' for Inactive)
REMARK    1  A    between atoms: C_1  and  C_2
REMARK    2  A    between atoms: C_2  and  O_3
REMARK    3  A    between atoms: O_3  and  C_4
REMARK    4  A    between atoms: C_4  and  C_6
REMARK    5  A    between atoms: C_7  and  C_8
REMARK    6  A    between atoms: C_10  and  C_11
REMARK    7  A    between atoms: C_11  and  C_13
REMARK    8  A    between atoms: C_13  and  C_14
REMARK    9  A    between atoms: C_16  and  C_17
REMARK   10  A    between atoms: C_20  and  O_21
REMARK   11  A    between atoms: O_21  and  C_22
REMARK   12  A    between atoms: C_25  and  O_26
REMARK   13  A    between atoms: O_26  and  C_27
REMARK   14  A    between atoms: C_29  and  C_30
REMARK                            x       y       z     vdW  Elec       q    Type
REMARK                         _______ _______ _______ _____ _____    ______ ____
ROOT
ATOM      1  C   UNL     1       1.193   9.314  18.925  0.00  0.00    +0.000 C 
ATOM      2  C   UNL     1       1.799   8.734  17.863  0.00  0.00    +0.000 C 
ENDROOT
BRANCH   2   3
ATOM      3  C   UNL     1       2.462   7.424  17.915  0.00  0.00    +0.000 A 
ATOM      4  C   UNL     1       1.749   6.252  18.158  0.00  0.00    +0.000 A 
ATOM      5  C   UNL     1       2.410   5.021  18.110  0.00  0.00    +0.000 A 
ATOM      6  C   UNL     1       3.780   4.941  17.817  0.00  0.00    +0.000 A 
ATOM      7  C   UNL     1       4.503   6.120  17.568  0.00  0.00    +0.000 A 
ATOM      8  C   UNL     1       3.836   7.353  17.646  0.00  0.00    +0.000 A 
BRANCH   7   9
ATOM      9  O   UNL     1       5.820   6.005  17.213  0.00  0.00    +0.000 OA
ATOM     10  C   UNL     1       6.643   7.162  17.318  0.00  0.00    +0.000 C 
ENDBRANCH   7   9
BRANCH   6  11
ATOM     11  O   UNL     1       4.243   3.655  17.747  0.00  0.00    +0.000 OA
BRANCH  11  12
ATOM     12  C   UNL     1       3.605   2.682  18.557  0.00  0.00    +0.000 C 
ATOM     13  F   UNL     1       3.226   1.629  17.787  0.00  0.00    +0.000 F 
ATOM     14  F   UNL     1       4.550   2.202  19.411  0.00  0.00    +0.000 F 
ENDBRANCH  11  12
ENDBRANCH   6  11
ENDBRANCH   2   3
BRANCH   1  15
ATOM     15  C   UNL     1       0.435  10.604  18.690  0.00  0.00    +0.000 C 
ATOM     16  O   UNL     1       1.005  11.648  19.013  0.00  0.00    +0.000 OA
BRANCH  15  21
ATOM     17  C   UNL     1      -3.160  10.950  17.642  0.00  0.00    +0.000 A 
ATOM     18  C   UNL     1      -2.608  10.231  16.597  0.00  0.00    +0.000 A 
ATOM     19  C   UNL     1      -3.184   9.691  15.335  0.00  0.00    +0.000 C 
ATOM     20  N   UNL     1      -1.276  10.052  16.870  0.00  0.00    +0.000 N 
ATOM     21  C   UNL     1      -0.910  10.627  18.074  0.00  0.00    +0.000 A 
ATOM     22  C   UNL     1      -2.077  11.243  18.554  0.00  0.00    +0.000 A 
ATOM     23  C   UNL     1      -2.268  12.038  19.809  0.00  0.00    +0.000 C 
ATOM     24  H   UNL     1      -0.672   9.536  16.244  0.00  0.00    +0.000 HD
BRANCH  17  25
ATOM     25  C   UNL     1      -4.567  11.317  17.828  0.00  0.00    +0.000 C 
ATOM     26  O   UNL     1      -5.021  12.415  17.529  0.00  0.00    +0.000 OA
BRANCH  25  27
ATOM     27  O   UNL     1      -5.259  10.368  18.526  0.00  0.00    +0.000 OA
BRANCH  27  29
ATOM     28  C   UNL     1      -7.095  10.567  20.041  0.00  0.00    +0.000 C 
ATOM     29  C   UNL     1      -6.676  10.578  18.579  0.00  0.00    +0.000 C 
ENDBRANCH  27  29
ENDBRANCH  25  27
ENDBRANCH  17  25
ENDBRANCH  15  21
ENDBRANCH   1  15
BRANCH   1  30
ATOM     30  C   UNL     1       1.253   8.738  20.219  0.00  0.00    +0.000 C 
ATOM     31  N   UNL     1       1.391   8.230  21.251  0.00  0.00    +0.000 NA
ENDBRANCH   1  30
TORSDOF 10
ENDMDL
MODEL 2
REMARK VINA RESULT:      -7.1      3.164      5.176
REMARK  Name = 
REMARK  14 active torsions:
REMARK  status: ('A' for Active; 'I' for Inactive)
REMARK    1  A    between atoms: C_1  and  C_2
REMARK    2  A    between atoms: C_2  and  O_3
REMARK    3  A    between atoms: O_3  and  C_4
REMARK    4  A    between atoms: C_4  and  C_6
REMARK    5  A    between atoms: C_7  and  C_8
REMARK    6  A    between atoms: C_10  and  C_11
REMARK    7  A    between atoms: C_11  and  C_13
REMARK    8  A    between atoms: C_13  and  C_14
REMARK    9  A    between atoms: C_16  and  C_17
REMARK   10  A    between atoms: C_20  and  O_21
REMARK   11  A    between atoms: O_21  and  C_22
REMARK   12  A    between atoms: C_25  and  O_26
REMARK   13  A    between atoms: O_26  and  C_27
REMARK   14  A    between atoms: C_29  and  C_30
REMARK                            x       y       z     vdW  Elec       q    Type
REMARK                         _______ _______ _______ _____ _____    ______ ____
ROOT
ATOM      1  C   UNL     1       2.703   5.398  19.307  0.00  0.00    +0.000 C 
ATOM      2  C   UNL     1       4.038   5.583  19.431  0.00  0.00    +0.000 C 
ENDROOT
BRANCH   2   3
ATOM      3  C   UNL     1       5.004   5.316  18.357  0.00  0.00    +0.000 A 
ATOM      4  C   UNL     1       4.932   4.164  17.577  0.00  0.00    +0.000 A 
ATOM      5  C   UNL     1       5.820   3.998  16.510  0.00  0.00    +0.000 A 
ATOM      6  C   UNL     1       6.782   4.972  16.204  0.00  0.00    +0.000 A 
ATOM      7  C   UNL     1       6.857   6.138  16.985  0.00  0.00    +0.000 A 
ATOM      8  C   UNL     1       5.979   6.282  18.072  0.00  0.00    +0.000 A 
BRANCH   7   9
ATOM      9  O   UNL     1       7.755   7.103  16.618  0.00  0.00    +0.000 OA
ATOM     10  C   UNL     1       7.881   8.249  17.452  0.00  0.00    +0.000 C 
ENDBRANCH   7   9
BRANCH   6  11
ATOM     11  O   UNL     1       7.518   4.673  15.089  0.00  0.00    +0.000 OA
BRANCH  11  12
ATOM     12  C   UNL     1       6.883   4.806  13.828  0.00  0.00    +0.000 C 
ATOM     13  F   UNL     1       7.765   5.310  12.928  0.00  0.00    +0.000 F 
ATOM     14  F   UNL     1       6.592   3.545  13.403  0.00  0.00    +0.000 F 
ENDBRANCH  11  12
ENDBRANCH   6  11
ENDBRANCH   2   3
BRANCH   1  15
ATOM     15  C   UNL     1       1.818   5.844  20.452  0.00  0.00    +0.000 C 
ATOM     16  O   UNL     1       1.524   4.989  21.290  0.00  0.00    +0.000 OA
BRANCH  15  21
ATOM     17  C   UNL     1       0.919   9.491  20.265  0.00  0.00    +0.000 A 
ATOM     18  C   UNL     1       0.385   9.109  21.482  0.00  0.00    +0.000 A 
ATOM     19  C   UNL     1      -0.375   9.854  22.524  0.00  0.00    +0.000 C 
ATOM     20  N   UNL     1       0.646   7.773  21.654  0.00  0.00    +0.000 N 
ATOM     21  C   UNL     1       1.348   7.240  20.589  0.00  0.00    +0.000 A 
ATOM     22  C   UNL     1       1.488   8.299  19.677  0.00  0.00    +0.000 A 
ATOM     23  C   UNL     1       2.144   8.295  18.330  0.00  0.00    +0.000 C 
ATOM     24  H   UNL     1       0.357   7.281  22.489  0.00  0.00    +0.000 HD
BRANCH  17  25
ATOM     25  C   UNL     1       0.953  10.837  19.688  0.00  0.00    +0.000 C 
ATOM     26  O   UNL     1       1.452  11.801  20.258  0.00  0.00    +0.000 OA
BRANCH  25  27
ATOM     27  O   UNL     1       0.217  10.925  18.540  0.00  0.00    +0.000 OA
BRANCH  27  29
ATOM     28  C   UNL     1      -1.837  10.075  17.665  0.00  0.00    +0.000 C 
ATOM     29  C   UNL     1      -1.202  10.946  18.739  0.00  0.00    +0.000 C 
ENDBRANCH  27  29
ENDBRANCH  25  27
ENDBRANCH  17  25
ENDBRANCH  15  21
ENDBRANCH   1  15
BRANCH   1  30
ATOM     30  C   UNL     1       2.140   4.815  18.144  0.00  0.00    +0.000 C 
ATOM     31  N   UNL     1       1.646   4.267  17.252  0.00  0.00    +0.000 NA
ENDBRANCH   1  30
TORSDOF 10
ENDMDL
MODEL 3
REMARK VINA RESULT:      -7.1      0.773      1.089
REMARK  Name = 
REMARK  14 active torsions:
REMARK  status: ('A' for Active; 'I' for Inactive)
REMARK    1  A    between atoms: C_1  and  C_2
REMARK    2  A    between atoms: C_2  and  O_3
REMARK    3  A    between atoms: O_3  and  C_4
REMARK    4  A    between atoms: C_4  and  C_6
REMARK    5  A    between atoms: C_7  and  C_8
REMARK    6  A    between atoms: C_10  and  C_11
REMARK    7  A    between atoms: C_11  and  C_13
REMARK    8  A    between atoms: C_13  and  C_14
REMARK    9  A    between atoms: C_16  and  C_17
REMARK   10  A    between atoms: C_20  and  O_21
REMARK   11  A    between atoms: O_21  and  C_22
REMARK   12  A    between atoms: C_25  and  O_26
REMARK   13  A    between atoms: O_26  and  C_27
REMARK   14  A    between atoms: C_29  and  C_30
REMARK                            x       y       z     vdW  Elec       q    Type
REMARK                         _______ _______ _______ _____ _____    ______ ____
ROOT
ATOM      1  C   UNL     1       1.361   9.154  18.928  0.00  0.00    +0.000 C 
ATOM      2  C   UNL     1       1.992   8.583  17.875  0.00  0.00    +0.000 C 
ENDROOT
BRANCH   2   3
ATOM      3  C   UNL     1       2.650   7.270  17.931  0.00  0.00    +0.000 A 
ATOM      4  C   UNL     1       1.925   6.095  18.118  0.00  0.00    +0.000 A 
ATOM      5  C   UNL     1       2.586   4.864  18.076  0.00  0.00    +0.000 A 
ATOM      6  C   UNL     1       3.968   4.787  17.844  0.00  0.00    +0.000 A 
ATOM      7  C   UNL     1       4.703   5.968  17.651  0.00  0.00    +0.000 A 
ATOM      8  C   UNL     1       4.034   7.201  17.724  0.00  0.00    +0.000 A 
BRANCH   7   9
ATOM      9  O   UNL     1       6.034   5.857  17.354  0.00  0.00    +0.000 OA
ATOM     10  C   UNL     1       6.805   7.052  17.289  0.00  0.00    +0.000 C 
ENDBRANCH   7   9
BRANCH   6  11
ATOM     11  O   UNL     1       4.431   3.500  17.769  0.00  0.00    +0.000 OA
BRANCH  11  12
ATOM     12  C   UNL     1       3.761   2.515  18.538  0.00  0.00    +0.000 C 
ATOM     13  F   UNL     1       3.741   1.343  17.854  0.00  0.00    +0.000 F 
ATOM     14  F   UNL     1       4.527   2.293  19.641  0.00  0.00    +0.000 F 
ENDBRANCH  11  12
ENDBRANCH   6  11
ENDBRANCH   2   3
BRANCH   1  15
ATOM     15  C   UNL     1       0.613  10.448  18.685  0.00  0.00    +0.000 C 
ATOM     16  O   UNL     1       1.209  11.492  18.958  0.00  0.00    +0.000 OA
BRANCH  15  21
ATOM     17  C   UNL     1      -3.026  10.766  17.791  0.00  0.00    +0.000 A 
ATOM     18  C   UNL     1      -2.497  10.130  16.684  0.00  0.00    +0.000 A 
ATOM     19  C   UNL     1      -3.106   9.656  15.411  0.00  0.00    +0.000 C 
ATOM     20  N   UNL     1      -1.151   9.969  16.897  0.00  0.00    +0.000 N 
ATOM     21  C   UNL     1      -0.754  10.475  18.121  0.00  0.00    +0.000 A 
ATOM     22  C   UNL     1      -1.917  11.028  18.681  0.00  0.00    +0.000 A 
ATOM     23  C   UNL     1      -2.080  11.737  19.991  0.00  0.00    +0.000 C 
ATOM     24  H   UNL     1      -0.559   9.510  16.217  0.00  0.00    +0.000 HD
BRANCH  17  25
ATOM     25  C   UNL     1      -4.433  11.083  18.051  0.00  0.00    +0.000 C 
ATOM     26  O   UNL     1      -5.213  10.297  18.576  0.00  0.00    +0.000 OA
BRANCH  25  27
ATOM     27  O   UNL     1      -4.808  12.270  17.488  0.00  0.00    +0.000 OA
BRANCH  27  29
ATOM     28  C   UNL     1      -6.888  13.293  16.912  0.00  0.00    +0.000 C 
ATOM     29  C   UNL     1      -5.986  12.856  18.056  0.00  0.00    +0.000 C 
ENDBRANCH  27  29
ENDBRANCH  25  27
ENDBRANCH  17  25
ENDBRANCH  15  21
ENDBRANCH   1  15
BRANCH   1  30
ATOM     30  C   UNL     1       1.386   8.565  20.217  0.00  0.00    +0.000 C 
ATOM     31  N   UNL     1       1.319   8.127  21.287  0.00  0.00    +0.000 NA
ENDBRANCH   1  30
TORSDOF 10
ENDMDL
MODEL 4
REMARK VINA RESULT:      -7.1      2.104      2.776
REMARK  Name = 
REMARK  14 active torsions:
REMARK  status: ('A' for Active; 'I' for Inactive)
REMARK    1  A    between atoms: C_1  and  C_2
REMARK    2  A    between atoms: C_2  and  O_3
REMARK    3  A    between atoms: O_3  and  C_4
REMARK    4  A    between atoms: C_4  and  C_6
REMARK    5  A    between atoms: C_7  and  C_8
REMARK    6  A    between atoms: C_10  and  C_11
REMARK    7  A    between atoms: C_11  and  C_13
REMARK    8  A    between atoms: C_13  and  C_14
REMARK    9  A    between atoms: C_16  and  C_17
REMARK   10  A    between atoms: C_20  and  O_21
REMARK   11  A    between atoms: O_21  and  C_22
REMARK   12  A    between atoms: C_25  and  O_26
REMARK   13  A    between atoms: O_26  and  C_27
REMARK   14  A    between atoms: C_29  and  C_30
REMARK                            x       y       z     vdW  Elec       q    Type
REMARK                         _______ _______ _______ _____ _____    ______ ____
ROOT
ATOM      1  C   UNL     1       1.986   8.636  18.699  0.00  0.00    +0.000 C 
ATOM      2  C   UNL     1       2.656   7.844  17.831  0.00  0.00    +0.000 C 
ENDROOT
BRANCH   2   3
ATOM      3  C   UNL     1       2.974   6.432  18.088  0.00  0.00    +0.000 A 
ATOM      4  C   UNL     1       2.050   5.418  17.848  0.00  0.00    +0.000 A 
ATOM      5  C   UNL     1       2.429   4.085  18.025  0.00  0.00    +0.000 A 
ATOM      6  C   UNL     1       3.727   3.745  18.437  0.00  0.00    +0.000 A 
ATOM      7  C   UNL     1       4.664   4.763  18.677  0.00  0.00    +0.000 A 
ATOM      8  C   UNL     1       4.265   6.101  18.523  0.00  0.00    +0.000 A 
BRANCH   7   9
ATOM      9  O   UNL     1       5.942   4.399  19.005  0.00  0.00    +0.000 OA
ATOM     10  C   UNL     1       6.870   5.431  19.321  0.00  0.00    +0.000 C 
ENDBRANCH   7   9
BRANCH   6  11
ATOM     11  O   UNL     1       3.939   2.394  18.493  0.00  0.00    +0.000 OA
BRANCH  11  12
ATOM     12  C   UNL     1       3.814   1.760  19.755  0.00  0.00    +0.000 C 
ATOM     13  F   UNL     1       5.008   1.796  20.400  0.00  0.00    +0.000 F 
ATOM     14  F   UNL     1       2.965   2.526  20.495  0.00  0.00    +0.000 F 
ENDBRANCH  11  12
ENDBRANCH   6  11
ENDBRANCH   2   3
BRANCH   1  15
ATOM     15  C   UNL     1       1.613  10.030  18.242  0.00  0.00    +0.000 C 
ATOM     16  O   UNL     1       2.418  10.606  17.508  0.00  0.00    +0.000 OA
BRANCH  15  21
ATOM     17  C   UNL     1      -1.327  11.863  19.707  0.00  0.00    +0.000 A 
ATOM     18  C   UNL     1      -1.874  11.254  18.593  0.00  0.00    +0.000 A 
ATOM     19  C   UNL     1      -3.248  11.258  18.019  0.00  0.00    +0.000 C 
ATOM     20  N   UNL     1      -0.875  10.555  17.964  0.00  0.00    +0.000 N 
ATOM     21  C   UNL     1       0.335  10.670  18.624  0.00  0.00    +0.000 A 
ATOM     22  C   UNL     1       0.082  11.533  19.702  0.00  0.00    +0.000 A 
ATOM     23  C   UNL     1       1.033  12.035  20.745  0.00  0.00    +0.000 C 
ATOM     24  H   UNL     1      -1.053  10.016  17.126  0.00  0.00    +0.000 HD
BRANCH  17  25
ATOM     25  C   UNL     1      -2.024  12.652  20.726  0.00  0.00    +0.000 C 
ATOM     26  O   UNL     1      -2.293  13.840  20.589  0.00  0.00    +0.000 OA
BRANCH  25  27
ATOM     27  O   UNL     1      -2.177  11.964  21.896  0.00  0.00    +0.000 OA
BRANCH  27  29
ATOM     28  C   UNL     1      -3.533  12.430  23.807  0.00  0.00    +0.000 C 
ATOM     29  C   UNL     1      -2.252  12.786  23.068  0.00  0.00    +0.000 C 
ENDBRANCH  27  29
ENDBRANCH  25  27
ENDBRANCH  17  25
ENDBRANCH  15  21
ENDBRANCH   1  15
BRANCH   1  30
ATOM     30  C   UNL     1       1.631   8.181  19.995  0.00  0.00    +0.000 C 
ATOM     31  N   UNL     1       1.314   7.904  21.073  0.00  0.00    +0.000 NA
ENDBRANCH   1  30
TORSDOF 10
ENDMDL
MODEL 5
REMARK VINA RESULT:      -7.1      1.213      2.012
REMARK  Name = 
REMARK  14 active torsions:
REMARK  status: ('A' for Active; 'I' for Inactive)
REMARK    1  A    between atoms: C_1  and  C_2
REMARK    2  A    between atoms: C_2  and  O_3
REMARK    3  A    between atoms: O_3  and  C_4
REMARK    4  A    between atoms: C_4  and  C_6
REMARK    5  A    between atoms: C_7  and  C_8
REMARK    6  A    between atoms: C_10  and  C_11
REMARK    7  A    between atoms: C_11  and  C_13
REMARK    8  A    between atoms: C_13  and  C_14
REMARK    9  A    between atoms: C_16  and  C_17
REMARK   10  A    between atoms: C_20  and  O_21
REMARK   11  A    between atoms: O_21  and  C_22
REMARK   12  A    between atoms: C_25  and  O_26
REMARK   13  A    between atoms: O_26  and  C_27
REMARK   14  A    between atoms: C_29  and  C_30
REMARK                            x       y       z     vdW  Elec       q    Type
REMARK                         _______ _______ _______ _____ _____    ______ ____
ROOT
ATOM      1  C   UNL     1       0.963   9.650  19.040  0.00  0.00    +0.000 C 
ATOM      2  C   UNL     1       1.557   9.118  17.947  0.00  0.00    +0.000 C 
ENDROOT
BRANCH   2   3
ATOM      3  C   UNL     1       2.302   7.851  17.956  0.00  0.00    +0.000 A 
ATOM      4  C   UNL     1       3.663   7.800  17.667  0.00  0.00    +0.000 A 
ATOM      5  C   UNL     1       4.345   6.585  17.776  0.00  0.00    +0.000 A 
ATOM      6  C   UNL     1       3.686   5.412  18.176  0.00  0.00    +0.000 A 
ATOM      7  C   UNL     1       2.314   5.459  18.472  0.00  0.00    +0.000 A 
ATOM      8  C   UNL     1       1.632   6.679  18.333  0.00  0.00    +0.000 A 
BRANCH   7   9
ATOM      9  O   UNL     1       1.714   4.317  18.930  0.00  0.00    +0.000 OA
ATOM     10  C   UNL     1       1.360   4.256  20.308  0.00  0.00    +0.000 C 
ENDBRANCH   7   9
BRANCH   6  11
ATOM     11  O   UNL     1       4.522   4.335  18.291  0.00  0.00    +0.000 OA
BRANCH  11  12
ATOM     12  C   UNL     1       4.734   3.540  17.136  0.00  0.00    +0.000 C 
ATOM     13  F   UNL     1       3.741   3.771  16.240  0.00  0.00    +0.000 F 
ATOM     14  F   UNL     1       5.878   3.993  16.554  0.00  0.00    +0.000 F 
ENDBRANCH  11  12
ENDBRANCH   6  11
ENDBRANCH   2   3
BRANCH   1  15
ATOM     15  C   UNL     1       0.116  10.891  18.851  0.00  0.00    +0.000 C 
ATOM     16  O   UNL     1       0.562  11.942  19.316  0.00  0.00    +0.000 OA
BRANCH  15  21
ATOM     17  C   UNL     1      -3.387  11.090  17.496  0.00  0.00    +0.000 A 
ATOM     18  C   UNL     1      -2.709  10.429  16.488  0.00  0.00    +0.000 A 
ATOM     19  C   UNL     1      -3.143   9.896  15.167  0.00  0.00    +0.000 C 
ATOM     20  N   UNL     1      -1.398  10.308  16.874  0.00  0.00    +0.000 N 
ATOM     21  C   UNL     1      -1.169  10.865  18.119  0.00  0.00    +0.000 A 
ATOM     22  C   UNL     1      -2.404  11.409  18.508  0.00  0.00    +0.000 A 
ATOM     23  C   UNL     1      -2.745  12.158  19.760  0.00  0.00    +0.000 C 
ATOM     24  H   UNL     1      -0.716   9.840  16.291  0.00  0.00    +0.000 HD
BRANCH  17  25
ATOM     25  C   UNL     1      -4.821  11.380  17.566  0.00  0.00    +0.000 C 
ATOM     26  O   UNL     1      -5.327  12.387  17.084  0.00  0.00    +0.000 OA
BRANCH  25  27
ATOM     27  O   UNL     1      -5.488  10.501  18.371  0.00  0.00    +0.000 OA
BRANCH  27  29
ATOM     28  C   UNL     1      -6.943  11.204  20.130  0.00  0.00    +0.000 C 
ATOM     29  C   UNL     1      -6.847  10.858  18.652  0.00  0.00    +0.000 C 
ENDBRANCH  27  29
ENDBRANCH  25  27
ENDBRANCH  17  25
ENDBRANCH  15  21
ENDBRANCH   1  15
BRANCH   1  30
ATOM     30  C   UNL     1       1.114   9.068  20.324  0.00  0.00    +0.000 C 
ATOM     31  N   UNL     1       1.302   8.666  21.393  0.00  0.00    +0.000 NA
ENDBRANCH   1  30
TORSDOF 10
ENDMDL
MODEL 6
REMARK VINA RESULT:      -7.0      4.574      9.301
REMARK  Name = 
REMARK  14 active torsions:
REMARK  status: ('A' for Active; 'I' for Inactive)
REMARK    1  A    between atoms: C_1  and  C_2
REMARK    2  A    between atoms: C_2  and  O_3
REMARK    3  A    between atoms: O_3  and  C_4
REMARK    4  A    between atoms: C_4  and  C_6
REMARK    5  A    between atoms: C_7  and  C_8
REMARK    6  A    between atoms: C_10  and  C_11
REMARK    7  A    between atoms: C_11  and  C_13
REMARK    8  A    between atoms: C_13  and  C_14
REMARK    9  A    between atoms: C_16  and  C_17
REMARK   10  A    between atoms: C_20  and  O_21
REMARK   11  A    between atoms: O_21  and  C_22
REMARK   12  A    between atoms: C_25  and  O_26
REMARK   13  A    between atoms: O_26  and  C_27
REMARK   14  A    between atoms: C_29  and  C_30
REMARK                            x       y       z     vdW  Elec       q    Type
REMARK                         _______ _______ _______ _____ _____    ______ ____
ROOT
ATOM      1  C   UNL     1       0.959   9.582  18.986  0.00  0.00    +0.000 C 
ATOM      2  C   UNL     1       1.266  10.009  20.233  0.00  0.00    +0.000 C 
ENDROOT
BRANCH   2   3
ATOM      3  C   UNL     1       0.320  10.709  21.113  0.00  0.00    +0.000 A 
ATOM      4  C   UNL     1      -0.328  10.056  22.158  0.00  0.00    +0.000 A 
ATOM      5  C   UNL     1      -1.150  10.785  23.022  0.00  0.00    +0.000 A 
ATOM      6  C   UNL     1      -1.334  12.166  22.860  0.00  0.00    +0.000 A 
ATOM      7  C   UNL     1      -0.680  12.831  21.809  0.00  0.00    +0.000 A 
ATOM      8  C   UNL     1       0.122  12.085  20.931  0.00  0.00    +0.000 A 
BRANCH   7   9
ATOM      9  O   UNL     1      -0.819  14.190  21.721  0.00  0.00    +0.000 OA
ATOM     10  C   UNL     1      -1.819  14.703  20.847  0.00  0.00    +0.000 C 
ENDBRANCH   7   9
BRANCH   6  11
ATOM     11  O   UNL     1      -2.116  12.725  23.834  0.00  0.00    +0.000 OA
BRANCH  11  12
ATOM     12  C   UNL     1      -3.518  12.745  23.621  0.00  0.00    +0.000 C 
ATOM     13  F   UNL     1      -3.795  12.251  22.387  0.00  0.00    +0.000 F 
ATOM     14  F   UNL     1      -4.061  11.866  24.507  0.00  0.00    +0.000 F 
ENDBRANCH  11  12
ENDBRANCH   6  11
ENDBRANCH   2   3
BRANCH   1  15
ATOM     15  C   UNL     1       1.992   8.757  18.247  0.00  0.00    +0.000 C 
ATOM     16  O   UNL     1       2.464   9.251  17.221  0.00  0.00    +0.000 OA
BRANCH  15  21
ATOM     17  C   UNL     1       3.516   5.402  19.002  0.00  0.00    +0.000 A 
ATOM     18  C   UNL     1       2.561   5.531  19.993  0.00  0.00    +0.000 A 
ATOM     19  C   UNL     1       2.157   4.647  21.121  0.00  0.00    +0.000 C 
ATOM     20  N   UNL     1       1.939   6.742  19.821  0.00  0.00    +0.000 N 
ATOM     21  C   UNL     1       2.444   7.436  18.737  0.00  0.00    +0.000 A 
ATOM     22  C   UNL     1       3.476   6.628  18.234  0.00  0.00    +0.000 A 
ATOM     23  C   UNL     1       4.391   6.887  17.077  0.00  0.00    +0.000 C 
ATOM     24  H   UNL     1       1.189   7.043  20.430  0.00  0.00    +0.000 HD
BRANCH  17  25
ATOM     25  C   UNL     1       4.377   4.247  18.737  0.00  0.00    +0.000 C 
ATOM     26  O   UNL     1       5.452   4.067  19.296  0.00  0.00    +0.000 OA
BRANCH  25  27
ATOM     27  O   UNL     1       3.930   3.502  17.682  0.00  0.00    +0.000 OA
BRANCH  27  29
ATOM     28  C   UNL     1       2.002   2.204  18.236  0.00  0.00    +0.000 C 
ATOM     29  C   UNL     1       3.508   2.175  18.023  0.00  0.00    +0.000 C 
ENDBRANCH  27  29
ENDBRANCH  25  27
ENDBRANCH  17  25
ENDBRANCH  15  21
ENDBRANCH   1  15
BRANCH   1  30
ATOM     30  C   UNL     1      -0.289   9.884  18.385  0.00  0.00    +0.000 C 
ATOM     31  N   UNL     1      -1.299  10.223  17.932  0.00  0.00    +0.000 NA
ENDBRANCH   1  30
TORSDOF 10
ENDMDL
MODEL 7
REMARK VINA RESULT:      -6.9      3.280      4.404
REMARK  Name = 
REMARK  14 active torsions:
REMARK  status: ('A' for Active; 'I' for Inactive)
REMARK    1  A    between atoms: C_1  and  C_2
REMARK    2  A    between atoms: C_2  and  O_3
REMARK    3  A    between atoms: O_3  and  C_4
REMARK    4  A    between atoms: C_4  and  C_6
REMARK    5  A    between atoms: C_7  and  C_8
REMARK    6  A    between atoms: C_10  and  C_11
REMARK    7  A    between atoms: C_11  and  C_13
REMARK    8  A    between atoms: C_13  and  C_14
REMARK    9  A    between atoms: C_16  and  C_17
REMARK   10  A    between atoms: C_20  and  O_21
REMARK   11  A    between atoms: O_21  and  C_22
REMARK   12  A    between atoms: C_25  and  O_26
REMARK   13  A    between atoms: O_26  and  C_27
REMARK   14  A    between atoms: C_29  and  C_30
REMARK                            x       y       z     vdW  Elec       q    Type
REMARK                         _______ _______ _______ _____ _____    ______ ____
ROOT
ATOM      1  C   UNL     1       1.548   8.757  18.804  0.00  0.00    +0.000 C 
ATOM      2  C   UNL     1       2.148   8.084  17.794  0.00  0.00    +0.000 C 
ENDROOT
BRANCH   2   3
ATOM      3  C   UNL     1       2.744   6.749  17.942  0.00  0.00    +0.000 A 
ATOM      4  C   UNL     1       1.959   5.605  18.053  0.00  0.00    +0.000 A 
ATOM      5  C   UNL     1       2.573   4.350  18.102  0.00  0.00    +0.000 A 
ATOM      6  C   UNL     1       3.968   4.219  18.038  0.00  0.00    +0.000 A 
ATOM      7  C   UNL     1       4.765   5.369  17.922  0.00  0.00    +0.000 A 
ATOM      8  C   UNL     1       4.140   6.627  17.902  0.00  0.00    +0.000 A 
BRANCH   7   9
ATOM      9  O   UNL     1       6.117   5.206  17.788  0.00  0.00    +0.000 OA
ATOM     10  C   UNL     1       6.787   5.975  16.794  0.00  0.00    +0.000 C 
ENDBRANCH   7   9
BRANCH   6  11
ATOM     11  O   UNL     1       4.388   2.916  18.032  0.00  0.00    +0.000 OA
BRANCH  11  12
ATOM     12  C   UNL     1       3.775   2.024  18.949  0.00  0.00    +0.000 C 
ATOM     13  F   UNL     1       3.811   0.763  18.447  0.00  0.00    +0.000 F 
ATOM     14  F   UNL     1       4.559   2.007  20.062  0.00  0.00    +0.000 F 
ENDBRANCH  11  12
ENDBRANCH   6  11
ENDBRANCH   2   3
BRANCH   1  15
ATOM     15  C   UNL     1       0.859  10.064  18.472  0.00  0.00    +0.000 C 
ATOM     16  O   UNL     1      -0.191   9.989  17.832  0.00  0.00    +0.000 OA
BRANCH  15  21
ATOM     17  C   UNL     1       1.886  13.292  20.107  0.00  0.00    +0.000 A 
ATOM     18  C   UNL     1       2.495  13.372  18.868  0.00  0.00    +0.000 A 
ATOM     19  C   UNL     1       3.360  14.408  18.240  0.00  0.00    +0.000 C 
ATOM     20  N   UNL     1       2.195  12.225  18.178  0.00  0.00    +0.000 N 
ATOM     21  C   UNL     1       1.394  11.371  18.913  0.00  0.00    +0.000 A 
ATOM     22  C   UNL     1       1.227  12.005  20.155  0.00  0.00    +0.000 A 
ATOM     23  C   UNL     1       0.472  11.527  21.358  0.00  0.00    +0.000 C 
ATOM     24  H   UNL     1       2.527  12.074  17.235  0.00  0.00    +0.000 HD
BRANCH  17  25
ATOM     25  C   UNL     1       1.862  14.312  21.158  0.00  0.00    +0.000 C 
ATOM     26  O   UNL     1       2.647  14.326  22.099  0.00  0.00    +0.000 OA
BRANCH  25  27
ATOM     27  O   UNL     1       0.770  15.127  21.062  0.00  0.00    +0.000 OA
BRANCH  27  29
ATOM     28  C   UNL     1      -0.721  14.664  22.870  0.00  0.00    +0.000 C 
ATOM     29  C   UNL     1       0.298  15.645  22.313  0.00  0.00    +0.000 C 
ENDBRANCH  27  29
ENDBRANCH  25  27
ENDBRANCH  17  25
ENDBRANCH  15  21
ENDBRANCH   1  15
BRANCH   1  30
ATOM     30  C   UNL     1       1.550   8.258  20.131  0.00  0.00    +0.000 C 
ATOM     31  N   UNL     1       1.463   7.809  21.195  0.00  0.00    +0.000 NA
ENDBRANCH   1  30
TORSDOF 10
ENDMDL
MODEL 8
REMARK VINA RESULT:      -6.9      2.283      3.061
REMARK  Name = 
REMARK  14 active torsions:
REMARK  status: ('A' for Active; 'I' for Inactive)
REMARK    1  A    between atoms: C_1  and  C_2
REMARK    2  A    between atoms: C_2  and  O_3
REMARK    3  A    between atoms: O_3  and  C_4
REMARK    4  A    between atoms: C_4  and  C_6
REMARK    5  A    between atoms: C_7  and  C_8
REMARK    6  A    between atoms: C_10  and  C_11
REMARK    7  A    between atoms: C_11  and  C_13
REMARK    8  A    between atoms: C_13  and  C_14
REMARK    9  A    between atoms: C_16  and  C_17
REMARK   10  A    between atoms: C_20  and  O_21
REMARK   11  A    between atoms: O_21  and  C_22
REMARK   12  A    between atoms: C_25  and  O_26
REMARK   13  A    between atoms: O_26  and  C_27
REMARK   14  A    between atoms: C_29  and  C_30
REMARK                            x       y       z     vdW  Elec       q    Type
REMARK                         _______ _______ _______ _____ _____    ______ ____
ROOT
ATOM      1  C   UNL     1       1.862   8.678  18.885  0.00  0.00    +0.000 C 
ATOM      2  C   UNL     1       2.536   7.803  18.103  0.00  0.00    +0.000 C 
ENDROOT
BRANCH   2   3
ATOM      3  C   UNL     1       2.889   6.438  18.519  0.00  0.00    +0.000 A 
ATOM      4  C   UNL     1       1.956   5.405  18.506  0.00  0.00    +0.000 A 
ATOM      5  C   UNL     1       2.362   4.106  18.825  0.00  0.00    +0.000 A 
ATOM      6  C   UNL     1       3.695   3.820  19.156  0.00  0.00    +0.000 A 
ATOM      7  C   UNL     1       4.642   4.858  19.168  0.00  0.00    +0.000 A 
ATOM      8  C   UNL     1       4.218   6.164  18.872  0.00  0.00    +0.000 A 
BRANCH   7   9
ATOM      9  O   UNL     1       5.947   4.537  19.422  0.00  0.00    +0.000 OA
ATOM     10  C   UNL     1       6.947   5.494  19.089  0.00  0.00    +0.000 C 
ENDBRANCH   7   9
BRANCH   6  11
ATOM     11  O   UNL     1       3.924   2.488  19.375  0.00  0.00    +0.000 OA
BRANCH  11  12
ATOM     12  C   UNL     1       3.475   1.574  18.388  0.00  0.00    +0.000 C 
ATOM     13  F   UNL     1       3.928   1.964  17.169  0.00  0.00    +0.000 F 
ATOM     14  F   UNL     1       4.083   0.385  18.651  0.00  0.00    +0.000 F 
ENDBRANCH  11  12
ENDBRANCH   6  11
ENDBRANCH   2   3
BRANCH   1  15
ATOM     15  C   UNL     1       1.451  10.001  18.273  0.00  0.00    +0.000 C 
ATOM     16  O   UNL     1       2.101  10.386  17.299  0.00  0.00    +0.000 OA
BRANCH  15  21
ATOM     17  C   UNL     1      -1.045  12.226  19.995  0.00  0.00    +0.000 A 
ATOM     18  C   UNL     1      -1.823  11.562  19.064  0.00  0.00    +0.000 A 
ATOM     19  C   UNL     1      -3.272  11.632  18.733  0.00  0.00    +0.000 C 
ATOM     20  N   UNL     1      -1.002  10.717  18.359  0.00  0.00    +0.000 N 
ATOM     21  C   UNL     1       0.310  10.788  18.790  0.00  0.00    +0.000 A 
ATOM     22  C   UNL     1       0.313  11.773  19.791  0.00  0.00    +0.000 A 
ATOM     23  C   UNL     1       1.468  12.288  20.595  0.00  0.00    +0.000 C 
ATOM     24  H   UNL     1      -1.364  10.116  17.630  0.00  0.00    +0.000 HD
BRANCH  17  25
ATOM     25  C   UNL     1      -1.493  13.172  21.020  0.00  0.00    +0.000 C 
ATOM     26  O   UNL     1      -1.987  14.263  20.759  0.00  0.00    +0.000 OA
BRANCH  25  27
ATOM     27  O   UNL     1      -1.137  12.776  22.278  0.00  0.00    +0.000 OA
BRANCH  27  29
ATOM     28  C   UNL     1      -0.995  10.534  23.093  0.00  0.00    +0.000 C 
ATOM     29  C   UNL     1      -1.925  11.705  22.814  0.00  0.00    +0.000 C 
ENDBRANCH  27  29
ENDBRANCH  25  27
ENDBRANCH  17  25
ENDBRANCH  15  21
ENDBRANCH   1  15
BRANCH   1  30
ATOM     30  C   UNL     1       1.538   8.372  20.231  0.00  0.00    +0.000 C 
ATOM     31  N   UNL     1       1.252   8.219  21.342  0.00  0.00    +0.000 NA
ENDBRANCH   1  30
TORSDOF 10
ENDMDL
MODEL 9
REMARK VINA RESULT:      -6.8      2.062      2.887
REMARK  Name = 
REMARK  14 active torsions:
REMARK  status: ('A' for Active; 'I' for Inactive)
REMARK    1  A    between atoms: C_1  and  C_2
REMARK    2  A    between atoms: C_2  and  O_3
REMARK    3  A    between atoms: O_3  and  C_4
REMARK    4  A    between atoms: C_4  and  C_6
REMARK    5  A    between atoms: C_7  and  C_8
REMARK    6  A    between atoms: C_10  and  C_11
REMARK    7  A    between atoms: C_11  and  C_13
REMARK    8  A    between atoms: C_13  and  C_14
REMARK    9  A    between atoms: C_16  and  C_17
REMARK   10  A    between atoms: C_20  and  O_21
REMARK   11  A    between atoms: O_21  and  C_22
REMARK   12  A    between atoms: C_25  and  O_26
REMARK   13  A    between atoms: O_26  and  C_27
REMARK   14  A    between atoms: C_29  and  C_30
REMARK                            x       y       z     vdW  Elec       q    Type
REMARK                         _______ _______ _______ _____ _____    ______ ____
ROOT
ATOM      1  C   UNL     1       2.028   8.555  18.669  0.00  0.00    +0.000 C 
ATOM      2  C   UNL     1       2.710   7.780  17.793  0.00  0.00    +0.000 C 
ENDROOT
BRANCH   2   3
ATOM      3  C   UNL     1       3.014   6.361  18.021  0.00  0.00    +0.000 A 
ATOM      4  C   UNL     1       2.054   5.369  17.838  0.00  0.00    +0.000 A 
ATOM      5  C   UNL     1       2.416   4.026  17.981  0.00  0.00    +0.000 A 
ATOM      6  C   UNL     1       3.730   3.656  18.303  0.00  0.00    +0.000 A 
ATOM      7  C   UNL     1       4.703   4.652  18.486  0.00  0.00    +0.000 A 
ATOM      8  C   UNL     1       4.323   5.999  18.367  0.00  0.00    +0.000 A 
BRANCH   7   9
ATOM      9  O   UNL     1       5.991   4.258  18.726  0.00  0.00    +0.000 OA
ATOM     10  C   UNL     1       7.015   4.770  17.879  0.00  0.00    +0.000 C 
ENDBRANCH   7   9
BRANCH   6  11
ATOM     11  O   UNL     1       3.916   2.300  18.336  0.00  0.00    +0.000 OA
BRANCH  11  12
ATOM     12  C   UNL     1       3.821   1.654  19.596  0.00  0.00    +0.000 C 
ATOM     13  F   UNL     1       4.982   1.821  20.279  0.00  0.00    +0.000 F 
ATOM     14  F   UNL     1       2.869   2.320  20.305  0.00  0.00    +0.000 F 
ENDBRANCH  11  12
ENDBRANCH   6  11
ENDBRANCH   2   3
BRANCH   1  15
ATOM     15  C   UNL     1       1.673   9.963  18.240  0.00  0.00    +0.000 C 
ATOM     16  O   UNL     1       2.492  10.548  17.529  0.00  0.00    +0.000 OA
BRANCH  15  21
ATOM     17  C   UNL     1      -1.267  11.792  19.710  0.00  0.00    +0.000 A 
ATOM     18  C   UNL     1      -1.809  11.204  18.581  0.00  0.00    +0.000 A 
ATOM     19  C   UNL     1      -3.178  11.226  17.996  0.00  0.00    +0.000 C 
ATOM     20  N   UNL     1      -0.809  10.509  17.950  0.00  0.00    +0.000 N 
ATOM     21  C   UNL     1       0.396  10.605  18.622  0.00  0.00    +0.000 A 
ATOM     22  C   UNL     1       0.139  11.453  19.711  0.00  0.00    +0.000 A 
ATOM     23  C   UNL     1       1.086  11.932  20.770  0.00  0.00    +0.000 C 
ATOM     24  H   UNL     1      -0.983   9.985  17.102  0.00  0.00    +0.000 HD
BRANCH  17  25
ATOM     25  C   UNL     1      -1.967  12.569  20.735  0.00  0.00    +0.000 C 
ATOM     26  O   UNL     1      -2.342  12.094  21.800  0.00  0.00    +0.000 OA
BRANCH  25  27
ATOM     27  O   UNL     1      -2.303  13.819  20.296  0.00  0.00    +0.000 OA
BRANCH  27  29
ATOM     28  C   UNL     1      -3.438  15.502  21.555  0.00  0.00    +0.000 C 
ATOM     29  C   UNL     1      -2.090  14.866  21.251  0.00  0.00    +0.000 C 
ENDBRANCH  27  29
ENDBRANCH  25  27
ENDBRANCH  17  25
ENDBRANCH  15  21
ENDBRANCH   1  15
BRANCH   1  30
ATOM     30  C   UNL     1       1.645   8.070  19.945  0.00  0.00    +0.000 C 
ATOM     31  N   UNL     1       1.415   7.717  21.024  0.00  0.00    +0.000 NA
ENDBRANCH   1  30
TORSDOF 10
ENDMDL
