MODEL 1
REMARK VINA RESULT:      -8.4      0.000      0.000
REMARK  Name = 
REMARK  8 active torsions:
REMARK  status: ('A' for Active; 'I' for Inactive)
REMARK    1  A    between atoms: C_2  and  C_3
REMARK    2  A    between atoms: C_7  and  C_8
REMARK    3  A    between atoms: C_12  and  O_13
REMARK    4  A    between atoms: O_13  and  C_14
REMARK    5  A    between atoms: C_14  and  C_15
REMARK    6  A    between atoms: C_15  and  O_16
REMARK    7  A    between atoms: C_15  and  C_17
REMARK    8  A    between atoms: C_17  and  N_18
REMARK                            x       y       z     vdW  Elec       q    Type
REMARK                         _______ _______ _______ _____ _____    ______ ____
ROOT
ATOM      1  C   UNL     1       1.173   9.291  19.884  0.00  0.00    +0.000 A 
ATOM      2  C   UNL     1       0.935   8.504  21.033  0.00  0.00    +0.000 A 
ATOM      3  C   UNL     1       1.386   7.185  21.143  0.00  0.00    +0.000 A 
ATOM      4  C   UNL     1       2.082   6.612  20.088  0.00  0.00    +0.000 A 
ATOM      5  C   UNL     1       2.347   7.343  18.932  0.00  0.00    +0.000 A 
ATOM      6  C   UNL     1       1.883   8.676  18.828  0.00  0.00    +0.000 A 
ENDROOT
BRANCH   1  11
ATOM      7  C   UNL     1      -0.130  12.801  20.922  0.00  0.00    +0.000 A 
ATOM      8  C   UNL     1      -0.245  13.338  19.654  0.00  0.00    +0.000 A 
ATOM      9  N   UNL     1       0.072  12.670  18.525  0.00  0.00    +0.000 NA
ATOM     10  C   UNL     1       0.553  11.394  18.679  0.00  0.00    +0.000 A 
ATOM     11  C   UNL     1       0.755  10.736  19.894  0.00  0.00    +0.000 A 
ATOM     12  C   UNL     1       0.450  11.500  21.040  0.00  0.00    +0.000 A 
BRANCH   7  14
ATOM     13  O   UNL     1       0.053  14.009  22.891  0.00  0.00    +0.000 OA
ATOM     14  C   UNL     1      -0.738  13.516  22.087  0.00  0.00    +0.000 C 
ATOM     15  N   UNL     1      -2.133  13.574  22.302  0.00  0.00    +0.000 N 
ATOM     16  C   UNL     1      -2.654  14.324  23.440  0.00  0.00    +0.000 C 
ATOM     17  C   UNL     1      -3.941  13.615  23.847  0.00  0.00    +0.000 C 
ATOM     18  C   UNL     1      -4.485  13.117  22.518  0.00  0.00    +0.000 C 
ATOM     19  C   UNL     1      -3.227  12.764  21.734  0.00  0.00    +0.000 C 
ENDBRANCH   7  14
ENDBRANCH   1  11
BRANCH   5  20
ATOM     20  O   UNL     1       3.013   6.605  17.991  0.00  0.00    +0.000 OA
BRANCH  20  21
ATOM     21  C   UNL     1       4.147   7.141  17.311  0.00  0.00    +0.000 C 
BRANCH  21  22
ATOM     22  C   UNL     1       4.991   6.029  16.660  0.00  0.00    +0.000 C 
BRANCH  22  23
ATOM     23  O   UNL     1       6.104   6.579  15.927  0.00  0.00    +0.000 OA
ATOM     24  H   UNL     1       5.843   7.448  15.583  0.00  0.00    +0.000 HD
ENDBRANCH  22  23
BRANCH  22  25
ATOM     25  C   UNL     1       5.570   5.021  17.699  0.00  0.00    +0.000 C 
BRANCH  25  26
ATOM     26  N   UNL     1       4.890   3.746  17.930  0.00  0.00    +0.000 NA
ATOM     27  C   UNL     1       3.763   3.596  16.998  0.00  0.00    +0.000 C 
ATOM     28  C   UNL     1       2.803   2.513  17.397  0.00  0.00    +0.000 C 
ATOM     29  C   UNL     1       2.321   2.933  18.734  0.00  0.00    +0.000 A 
ATOM     30  C   UNL     1       1.003   3.218  18.950  0.00  0.00    +0.000 A 
ATOM     31  C   UNL     1       0.599   3.238  20.252  0.00  0.00    +0.000 A 
ATOM     32  C   UNL     1       1.487   3.038  21.315  0.00  0.00    +0.000 A 
ATOM     33  C   UNL     1       2.849   3.027  21.070  0.00  0.00    +0.000 A 
ATOM     34  C   UNL     1       3.272   3.079  19.750  0.00  0.00    +0.000 A 
ATOM     35  C   UNL     1       4.707   3.321  19.338  0.00  0.00    +0.000 C 
ENDBRANCH  25  26
ENDBRANCH  22  25
ENDBRANCH  21  22
ENDBRANCH  20  21
ENDBRANCH   5  20
TORSDOF 8
ENDMDL
MODEL 2
REMARK VINA RESULT:      -8.4      1.268      1.471
REMARK  Name = 
REMARK  8 active torsions:
REMARK  status: ('A' for Active; 'I' for Inactive)
REMARK    1  A    between atoms: C_2  and  C_3
REMARK    2  A    between atoms: C_7  and  C_8
REMARK    3  A    between atoms: C_12  and  O_13
REMARK    4  A    between atoms: O_13  and  C_14
REMARK    5  A    between atoms: C_14  and  C_15
REMARK    6  A    between atoms: C_15  and  O_16
REMARK    7  A    between atoms: C_15  and  C_17
REMARK    8  A    between atoms: C_17  and  N_18
REMARK                            x       y       z     vdW  Elec       q    Type
REMARK                         _______ _______ _______ _____ _____    ______ ____
ROOT
ATOM      1  C   UNL     1       0.893   9.726  19.638  0.00  0.00    +0.000 A 
ATOM      2  C   UNL     1       0.968   8.852  20.745  0.00  0.00    +0.000 A 
ATOM      3  C   UNL     1       1.707   7.665  20.712  0.00  0.00    +0.000 A 
ATOM      4  C   UNL     1       2.386   7.316  19.553  0.00  0.00    +0.000 A 
ATOM      5  C   UNL     1       2.349   8.143  18.432  0.00  0.00    +0.000 A 
ATOM      6  C   UNL     1       1.594   9.340  18.473  0.00  0.00    +0.000 A 
ENDROOT
BRANCH   1  11
ATOM      7  C   UNL     1      -1.759  12.473  20.356  0.00  0.00    +0.000 A 
ATOM      8  C   UNL     1      -1.105  13.526  19.746  0.00  0.00    +0.000 A 
ATOM      9  N   UNL     1       0.101  13.416  19.150  0.00  0.00    +0.000 NA
ATOM     10  C   UNL     1       0.696  12.180  19.187  0.00  0.00    +0.000 A 
ATOM     11  C   UNL     1       0.172  11.036  19.795  0.00  0.00    +0.000 A 
ATOM     12  C   UNL     1      -1.069  11.224  20.441  0.00  0.00    +0.000 A 
BRANCH   7  14
ATOM     13  O   UNL     1      -4.012  12.653  19.846  0.00  0.00    +0.000 OA
ATOM     14  C   UNL     1      -3.191  12.627  20.763  0.00  0.00    +0.000 C 
ATOM     15  N   UNL     1      -3.587  12.801  22.108  0.00  0.00    +0.000 N 
ATOM     16  C   UNL     1      -5.006  12.905  22.430  0.00  0.00    +0.000 C 
ATOM     17  C   UNL     1      -5.084  13.802  23.661  0.00  0.00    +0.000 C 
ATOM     18  C   UNL     1      -3.810  13.454  24.412  0.00  0.00    +0.000 C 
ATOM     19  C   UNL     1      -2.805  13.191  23.296  0.00  0.00    +0.000 C 
ENDBRANCH   7  14
ENDBRANCH   1  11
BRANCH   5  20
ATOM     20  O   UNL     1       3.048   7.621  17.377  0.00  0.00    +0.000 OA
BRANCH  20  21
ATOM     21  C   UNL     1       4.398   7.191  17.538  0.00  0.00    +0.000 C 
BRANCH  21  22
ATOM     22  C   UNL     1       4.758   6.076  16.537  0.00  0.00    +0.000 C 
BRANCH  22  23
ATOM     23  O   UNL     1       5.473   6.603  15.402  0.00  0.00    +0.000 OA
ATOM     24  H   UNL     1       4.975   7.359  15.052  0.00  0.00    +0.000 HD
ENDBRANCH  22  23
BRANCH  22  25
ATOM     25  C   UNL     1       5.642   4.959  17.167  0.00  0.00    +0.000 C 
BRANCH  25  26
ATOM     26  N   UNL     1       5.010   3.777  17.755  0.00  0.00    +0.000 NA
ATOM     27  C   UNL     1       3.910   3.311  16.898  0.00  0.00    +0.000 C 
ATOM     28  C   UNL     1       2.987   2.349  17.588  0.00  0.00    +0.000 C 
ATOM     29  C   UNL     1       2.461   3.119  18.741  0.00  0.00    +0.000 A 
ATOM     30  C   UNL     1       1.128   3.395  18.853  0.00  0.00    +0.000 A 
ATOM     31  C   UNL     1       0.696   3.774  20.090  0.00  0.00    +0.000 A 
ATOM     32  C   UNL     1       1.569   3.933  21.173  0.00  0.00    +0.000 A 
ATOM     33  C   UNL     1       2.935   3.912  20.952  0.00  0.00    +0.000 A 
ATOM     34  C   UNL     1       3.383   3.596  19.678  0.00  0.00    +0.000 A 
ATOM     35  C   UNL     1       4.815   3.772  19.225  0.00  0.00    +0.000 C 
ENDBRANCH  25  26
ENDBRANCH  22  25
ENDBRANCH  21  22
ENDBRANCH  20  21
ENDBRANCH   5  20
TORSDOF 8
ENDMDL
MODEL 3
REMARK VINA RESULT:      -8.2      1.639      2.437
REMARK  Name = 
REMARK  8 active torsions:
REMARK  status: ('A' for Active; 'I' for Inactive)
REMARK    1  A    between atoms: C_2  and  C_3
REMARK    2  A    between atoms: C_7  and  C_8
REMARK    3  A    between atoms: C_12  and  O_13
REMARK    4  A    between atoms: O_13  and  C_14
REMARK    5  A    between atoms: C_14  and  C_15
REMARK    6  A    between atoms: C_15  and  O_16
REMARK    7  A    between atoms: C_15  and  C_17
REMARK    8  A    between atoms: C_17  and  N_18
REMARK                            x       y       z     vdW  Elec       q    Type
REMARK                         _______ _______ _______ _____ _____    ______ ____
ROOT
ATOM      1  C   UNL     1       1.081   9.205  20.001  0.00  0.00    +0.000 A 
ATOM      2  C   UNL     1       1.184   9.808  18.728  0.00  0.00    +0.000 A 
ATOM      3  C   UNL     1       1.883   9.212  17.674  0.00  0.00    +0.000 A 
ATOM      4  C   UNL     1       2.511   7.992  17.875  0.00  0.00    +0.000 A 
ATOM      5  C   UNL     1       2.440   7.351  19.111  0.00  0.00    +0.000 A 
ATOM      6  C   UNL     1       1.734   7.964  20.174  0.00  0.00    +0.000 A 
ENDROOT
BRANCH   1  11
ATOM      7  C   UNL     1      -1.337  11.574  21.909  0.00  0.00    +0.000 A 
ATOM      8  C   UNL     1      -1.104  11.090  23.183  0.00  0.00    +0.000 A 
ATOM      9  N   UNL     1      -0.257  10.076  23.456  0.00  0.00    +0.000 NA
ATOM     10  C   UNL     1       0.378   9.498  22.386  0.00  0.00    +0.000 A 
ATOM     11  C   UNL     1       0.216   9.856  21.045  0.00  0.00    +0.000 A 
ATOM     12  C   UNL     1      -0.716  10.892  20.817  0.00  0.00    +0.000 A 
BRANCH   7  14
ATOM     13  O   UNL     1      -3.208  12.757  21.223  0.00  0.00    +0.000 OA
ATOM     14  C   UNL     1      -2.090  12.855  21.730  0.00  0.00    +0.000 C 
ATOM     15  N   UNL     1      -1.540  14.114  22.055  0.00  0.00    +0.000 N 
ATOM     16  C   UNL     1      -2.350  15.316  21.889  0.00  0.00    +0.000 C 
ATOM     17  C   UNL     1      -1.367  16.434  21.559  0.00  0.00    +0.000 C 
ATOM     18  C   UNL     1      -0.133  16.042  22.355  0.00  0.00    +0.000 C 
ATOM     19  C   UNL     1      -0.141  14.520  22.289  0.00  0.00    +0.000 C 
ENDBRANCH   7  14
ENDBRANCH   1  11
BRANCH   5  20
ATOM     20  O   UNL     1       3.146   6.179  19.130  0.00  0.00    +0.000 OA
BRANCH  20  21
ATOM     21  C   UNL     1       4.571   6.186  19.194  0.00  0.00    +0.000 C 
BRANCH  21  22
ATOM     22  C   UNL     1       5.197   5.771  17.849  0.00  0.00    +0.000 C 
BRANCH  22  23
ATOM     23  O   UNL     1       6.283   6.646  17.485  0.00  0.00    +0.000 OA
ATOM     24  H   UNL     1       6.055   7.084  16.649  0.00  0.00    +0.000 HD
ENDBRANCH  22  23
BRANCH  22  25
ATOM     25  C   UNL     1       5.756   4.316  17.865  0.00  0.00    +0.000 C 
BRANCH  25  26
ATOM     26  N   UNL     1       4.842   3.188  18.043  0.00  0.00    +0.000 NA
ATOM     27  C   UNL     1       3.670   3.343  17.169  0.00  0.00    +0.000 C 
ATOM     28  C   UNL     1       2.527   2.444  17.544  0.00  0.00    +0.000 C 
ATOM     29  C   UNL     1       2.198   2.841  18.934  0.00  0.00    +0.000 A 
ATOM     30  C   UNL     1       0.975   3.365  19.246  0.00  0.00    +0.000 A 
ATOM     31  C   UNL     1       0.639   3.357  20.567  0.00  0.00    +0.000 A 
ATOM     32  C   UNL     1       1.512   2.898  21.560  0.00  0.00    +0.000 A 
ATOM     33  C   UNL     1       2.831   2.635  21.236  0.00  0.00    +0.000 A 
ATOM     34  C   UNL     1       3.200   2.710  19.901  0.00  0.00    +0.000 A 
ATOM     35  C   UNL     1       4.635   2.693  19.425  0.00  0.00    +0.000 C 
ENDBRANCH  25  26
ENDBRANCH  22  25
ENDBRANCH  21  22
ENDBRANCH  20  21
ENDBRANCH   5  20
TORSDOF 8
ENDMDL
MODEL 4
REMARK VINA RESULT:      -8.2      2.228      4.075
REMARK  Name = 
REMARK  8 active torsions:
REMARK  status: ('A' for Active; 'I' for Inactive)
REMARK    1  A    between atoms: C_2  and  C_3
REMARK    2  A    between atoms: C_7  and  C_8
REMARK    3  A    between atoms: C_12  and  O_13
REMARK    4  A    between atoms: O_13  and  C_14
REMARK    5  A    between atoms: C_14  and  C_15
REMARK    6  A    between atoms: C_15  and  O_16
REMARK    7  A    between atoms: C_15  and  C_17
REMARK    8  A    between atoms: C_17  and  N_18
REMARK                            x       y       z     vdW  Elec       q    Type
REMARK                         _______ _______ _______ _____ _____    ______ ____
ROOT
ATOM      1  C   UNL     1       1.307   9.296  19.027  0.00  0.00    +0.000 A 
ATOM      2  C   UNL     1       2.092   8.993  17.893  0.00  0.00    +0.000 A 
ATOM      3  C   UNL     1       2.792   7.789  17.768  0.00  0.00    +0.000 A 
ATOM      4  C   UNL     1       2.732   6.855  18.792  0.00  0.00    +0.000 A 
ATOM      5  C   UNL     1       1.970   7.101  19.933  0.00  0.00    +0.000 A 
ATOM      6  C   UNL     1       1.268   8.324  20.053  0.00  0.00    +0.000 A 
ENDROOT
BRANCH   1  11
ATOM      7  C   UNL     1      -1.596  11.878  18.945  0.00  0.00    +0.000 A 
ATOM      8  C   UNL     1      -0.829  13.013  18.761  0.00  0.00    +0.000 A 
ATOM      9  N   UNL     1       0.518  13.002  18.679  0.00  0.00    +0.000 NA
ATOM     10  C   UNL     1       1.134  11.783  18.809  0.00  0.00    +0.000 A 
ATOM     11  C   UNL     1       0.494  10.562  19.032  0.00  0.00    +0.000 A 
ATOM     12  C   UNL     1      -0.909  10.642  19.155  0.00  0.00    +0.000 A 
BRANCH   7  14
ATOM     13  O   UNL     1      -3.501  11.741  17.633  0.00  0.00    +0.000 OA
ATOM     14  C   UNL     1      -3.080  11.951  18.771  0.00  0.00    +0.000 C 
ATOM     15  N   UNL     1      -3.954  12.304  19.823  0.00  0.00    +0.000 N 
ATOM     16  C   UNL     1      -5.394  12.317  19.586  0.00  0.00    +0.000 C 
ATOM     17  C   UNL     1      -5.954  13.392  20.511  0.00  0.00    +0.000 C 
ATOM     18  C   UNL     1      -5.041  13.304  21.722  0.00  0.00    +0.000 C 
ATOM     19  C   UNL     1      -3.685  12.962  21.115  0.00  0.00    +0.000 C 
ENDBRANCH   7  14
ENDBRANCH   1  11
BRANCH   5  20
ATOM     20  O   UNL     1       2.057   6.084  20.845  0.00  0.00    +0.000 OA
BRANCH  20  21
ATOM     21  C   UNL     1       1.307   4.883  20.674  0.00  0.00    +0.000 C 
BRANCH  21  22
ATOM     22  C   UNL     1       2.207   3.637  20.767  0.00  0.00    +0.000 C 
BRANCH  22  23
ATOM     23  O   UNL     1       1.586   2.599  21.550  0.00  0.00    +0.000 OA
ATOM     24  H   UNL     1       2.252   1.917  21.735  0.00  0.00    +0.000 HD
ENDBRANCH  22  23
BRANCH  22  25
ATOM     25  C   UNL     1       2.546   3.029  19.373  0.00  0.00    +0.000 C 
BRANCH  25  26
ATOM     26  N   UNL     1       3.929   3.032  18.895  0.00  0.00    +0.000 NA
ATOM     27  C   UNL     1       4.736   3.974  19.684  0.00  0.00    +0.000 C 
ATOM     28  C   UNL     1       6.051   4.312  19.042  0.00  0.00    +0.000 C 
ATOM     29  C   UNL     1       5.673   4.911  17.740  0.00  0.00    +0.000 A 
ATOM     30  C   UNL     1       5.989   6.206  17.443  0.00  0.00    +0.000 A 
ATOM     31  C   UNL     1       5.932   6.550  16.124  0.00  0.00    +0.000 A 
ATOM     32  C   UNL     1       5.517   5.653  15.133  0.00  0.00    +0.000 A 
ATOM     33  C   UNL     1       4.947   4.447  15.504  0.00  0.00    +0.000 A 
ATOM     34  C   UNL     1       4.937   4.120  16.852  0.00  0.00    +0.000 A 
ATOM     35  C   UNL     1       4.141   2.971  17.429  0.00  0.00    +0.000 C 
ENDBRANCH  25  26
ENDBRANCH  22  25
ENDBRANCH  21  22
ENDBRANCH  20  21
ENDBRANCH   5  20
TORSDOF 8
ENDMDL
MODEL 5
REMARK VINA RESULT:      -8.1      1.739      3.744
REMARK  Name = 
REMARK  8 active torsions:
REMARK  status: ('A' for Active; 'I' for Inactive)
REMARK    1  A    between atoms: C_2  and  C_3
REMARK    2  A    between atoms: C_7  and  C_8
REMARK    3  A    between atoms: C_12  and  O_13
REMARK    4  A    between atoms: O_13  and  C_14
REMARK    5  A    between atoms: C_14  and  C_15
REMARK    6  A    between atoms: C_15  and  O_16
REMARK    7  A    between atoms: C_15  and  C_17
REMARK    8  A    between atoms: C_17  and  N_18
REMARK                            x       y       z     vdW  Elec       q    Type
REMARK                         _______ _______ _______ _____ _____    ______ ____
ROOT
ATOM      1  C   UNL     1       1.249   9.542  19.448  0.00  0.00    +0.000 A 
ATOM      2  C   UNL     1       1.843   9.330  18.184  0.00  0.00    +0.000 A 
ATOM      3  C   UNL     1       2.411   8.105  17.820  0.00  0.00    +0.000 A 
ATOM      4  C   UNL     1       2.408   7.055  18.727  0.00  0.00    +0.000 A 
ATOM      5  C   UNL     1       1.834   7.208  19.988  0.00  0.00    +0.000 A 
ATOM      6  C   UNL     1       1.265   8.453  20.349  0.00  0.00    +0.000 A 
ENDROOT
BRANCH   1  11
ATOM      7  C   UNL     1      -1.130  12.313  20.773  0.00  0.00    +0.000 A 
ATOM      8  C   UNL     1      -0.782  13.302  19.873  0.00  0.00    +0.000 A 
ATOM      9  N   UNL     1       0.148  13.144  18.908  0.00  0.00    +0.000 NA
ATOM     10  C   UNL     1       0.782  11.928  18.856  0.00  0.00    +0.000 A 
ATOM     11  C   UNL     1       0.560  10.851  19.717  0.00  0.00    +0.000 A 
ATOM     12  C   UNL     1      -0.390  11.091  20.733  0.00  0.00    +0.000 A 
BRANCH   7  14
ATOM     13  O   UNL     1      -2.157  12.377  22.849  0.00  0.00    +0.000 OA
ATOM     14  C   UNL     1      -2.339  12.490  21.636  0.00  0.00    +0.000 C 
ATOM     15  N   UNL     1      -3.630  12.708  21.105  0.00  0.00    +0.000 N 
ATOM     16  C   UNL     1      -4.755  12.910  22.013  0.00  0.00    +0.000 C 
ATOM     17  C   UNL     1      -5.976  12.357  21.285  0.00  0.00    +0.000 C 
ATOM     18  C   UNL     1      -5.669  12.668  19.829  0.00  0.00    +0.000 C 
ATOM     19  C   UNL     1      -4.157  12.494  19.744  0.00  0.00    +0.000 C 
ENDBRANCH   7  14
ENDBRANCH   1  11
BRANCH   5  20
ATOM     20  O   UNL     1       1.955   6.081  20.755  0.00  0.00    +0.000 OA
BRANCH  20  21
ATOM     21  C   UNL     1       1.102   4.957  20.541  0.00  0.00    +0.000 C 
BRANCH  21  22
ATOM     22  C   UNL     1       1.865   3.630  20.704  0.00  0.00    +0.000 C 
BRANCH  22  23
ATOM     23  O   UNL     1       1.062   2.643  21.382  0.00  0.00    +0.000 OA
ATOM     24  H   UNL     1       1.651   1.944  21.710  0.00  0.00    +0.000 HD
ENDBRANCH  22  23
BRANCH  22  25
ATOM     25  C   UNL     1       2.308   3.014  19.342  0.00  0.00    +0.000 C 
BRANCH  25  26
ATOM     26  N   UNL     1       3.715   3.066  18.945  0.00  0.00    +0.000 NA
ATOM     27  C   UNL     1       4.434   4.062  19.752  0.00  0.00    +0.000 C 
ATOM     28  C   UNL     1       5.768   4.441  19.177  0.00  0.00    +0.000 C 
ATOM     29  C   UNL     1       5.441   4.991  17.840  0.00  0.00    +0.000 A 
ATOM     30  C   UNL     1       5.719   6.292  17.528  0.00  0.00    +0.000 A 
ATOM     31  C   UNL     1       5.724   6.601  16.199  0.00  0.00    +0.000 A 
ATOM     32  C   UNL     1       5.405   5.663  15.210  0.00  0.00    +0.000 A 
ATOM     33  C   UNL     1       4.867   4.443  15.580  0.00  0.00    +0.000 A 
ATOM     34  C   UNL     1       4.792   4.148  16.933  0.00  0.00    +0.000 A 
ATOM     35  C   UNL     1       4.014   2.980  17.495  0.00  0.00    +0.000 C 
ENDBRANCH  25  26
ENDBRANCH  22  25
ENDBRANCH  21  22
ENDBRANCH  20  21
ENDBRANCH   5  20
TORSDOF 8
ENDMDL
MODEL 6
REMARK VINA RESULT:      -8.1      2.028     10.948
REMARK  Name = 
REMARK  8 active torsions:
REMARK  status: ('A' for Active; 'I' for Inactive)
REMARK    1  A    between atoms: C_2  and  C_3
REMARK    2  A    between atoms: C_7  and  C_8
REMARK    3  A    between atoms: C_12  and  O_13
REMARK    4  A    between atoms: O_13  and  C_14
REMARK    5  A    between atoms: C_14  and  C_15
REMARK    6  A    between atoms: C_15  and  O_16
REMARK    7  A    between atoms: C_15  and  C_17
REMARK    8  A    between atoms: C_17  and  N_18
REMARK                            x       y       z     vdW  Elec       q    Type
REMARK                         _______ _______ _______ _____ _____    ______ ____
ROOT
ATOM      1  C   UNL     1       1.449   8.187  20.285  0.00  0.00    +0.000 A 
ATOM      2  C   UNL     1       1.397   9.083  19.195  0.00  0.00    +0.000 A 
ATOM      3  C   UNL     1       0.989  10.413  19.339  0.00  0.00    +0.000 A 
ATOM      4  C   UNL     1       0.607  10.878  20.589  0.00  0.00    +0.000 A 
ATOM      5  C   UNL     1       0.641  10.038  21.700  0.00  0.00    +0.000 A 
ATOM      6  C   UNL     1       1.052   8.692  21.544  0.00  0.00    +0.000 A 
ENDROOT
BRANCH   1  11
ATOM      7  C   UNL     1       3.102   5.021  18.756  0.00  0.00    +0.000 A 
ATOM      8  C   UNL     1       2.731   4.124  19.740  0.00  0.00    +0.000 A 
ATOM      9  N   UNL     1       2.019   4.465  20.835  0.00  0.00    +0.000 NA
ATOM     10  C   UNL     1       1.676   5.788  20.960  0.00  0.00    +0.000 A 
ATOM     11  C   UNL     1       2.009   6.809  20.066  0.00  0.00    +0.000 A 
ATOM     12  C   UNL     1       2.793   6.400  18.965  0.00  0.00    +0.000 A 
BRANCH   7  14
ATOM     13  O   UNL     1       3.037   3.601  16.926  0.00  0.00    +0.000 OA
ATOM     14  C   UNL     1       3.665   4.512  17.466  0.00  0.00    +0.000 C 
ATOM     15  N   UNL     1       4.876   4.992  16.921  0.00  0.00    +0.000 N 
ATOM     16  C   UNL     1       5.341   4.474  15.639  0.00  0.00    +0.000 C 
ATOM     17  C   UNL     1       6.864   4.535  15.697  0.00  0.00    +0.000 C 
ATOM     18  C   UNL     1       7.119   5.773  16.540  0.00  0.00    +0.000 C 
ATOM     19  C   UNL     1       5.973   5.757  17.544  0.00  0.00    +0.000 C 
ENDBRANCH   7  14
ENDBRANCH   1  11
BRANCH   5  20
ATOM     20  O   UNL     1       0.200  10.660  22.836  0.00  0.00    +0.000 OA
BRANCH  20  21
ATOM     21  C   UNL     1      -1.193  10.884  23.051  0.00  0.00    +0.000 C 
BRANCH  21  22
ATOM     22  C   UNL     1      -1.529  12.387  23.047  0.00  0.00    +0.000 C 
BRANCH  22  23
ATOM     23  O   UNL     1      -0.342  13.190  23.208  0.00  0.00    +0.000 OA
ATOM     24  H   UNL     1       0.075  13.295  22.338  0.00  0.00    +0.000 HD
ENDBRANCH  22  23
BRANCH  22  25
ATOM     25  C   UNL     1      -2.228  12.848  21.732  0.00  0.00    +0.000 C 
BRANCH  25  26
ATOM     26  N   UNL     1      -3.465  13.627  21.802  0.00  0.00    +0.000 NA
ATOM     27  C   UNL     1      -3.777  13.959  23.199  0.00  0.00    +0.000 C 
ATOM     28  C   UNL     1      -5.190  14.427  23.396  0.00  0.00    +0.000 C 
ATOM     29  C   UNL     1      -6.016  13.286  22.933  0.00  0.00    +0.000 A 
ATOM     30  C   UNL     1      -6.852  12.629  23.791  0.00  0.00    +0.000 A 
ATOM     31  C   UNL     1      -7.816  11.857  23.214  0.00  0.00    +0.000 A 
ATOM     32  C   UNL     1      -7.914  11.691  21.828  0.00  0.00    +0.000 A 
ATOM     33  C   UNL     1      -6.890  12.147  21.015  0.00  0.00    +0.000 A 
ATOM     34  C   UNL     1      -5.867  12.874  21.605  0.00  0.00    +0.000 A 
ATOM     35  C   UNL     1      -4.573  13.221  20.904  0.00  0.00    +0.000 C 
ENDBRANCH  25  26
ENDBRANCH  22  25
ENDBRANCH  21  22
ENDBRANCH  20  21
ENDBRANCH   5  20
TORSDOF 8
ENDMDL
MODEL 7
REMARK VINA RESULT:      -8.0      2.746     10.963
REMARK  Name = 
REMARK  8 active torsions:
REMARK  status: ('A' for Active; 'I' for Inactive)
REMARK    1  A    between atoms: C_2  and  C_3
REMARK    2  A    between atoms: C_7  and  C_8
REMARK    3  A    between atoms: C_12  and  O_13
REMARK    4  A    between atoms: O_13  and  C_14
REMARK    5  A    between atoms: C_14  and  C_15
REMARK    6  A    between atoms: C_15  and  O_16
REMARK    7  A    between atoms: C_15  and  C_17
REMARK    8  A    between atoms: C_17  and  N_18
REMARK                            x       y       z     vdW  Elec       q    Type
REMARK                         _______ _______ _______ _____ _____    ______ ____
ROOT
ATOM      1  C   UNL     1       2.830   7.140  18.348  0.00  0.00    +0.000 A 
ATOM      2  C   UNL     1       2.604   8.250  17.505  0.00  0.00    +0.000 A 
ATOM      3  C   UNL     1       1.838   9.349  17.904  0.00  0.00    +0.000 A 
ATOM      4  C   UNL     1       1.263   9.357  19.167  0.00  0.00    +0.000 A 
ATOM      5  C   UNL     1       1.456   8.289  20.042  0.00  0.00    +0.000 A 
ATOM      6  C   UNL     1       2.229   7.179  19.626  0.00  0.00    +0.000 A 
ENDROOT
BRANCH   1  11
ATOM      7  C   UNL     1       5.641   5.126  16.575  0.00  0.00    +0.000 A 
ATOM      8  C   UNL     1       5.204   3.860  16.916  0.00  0.00    +0.000 A 
ATOM      9  N   UNL     1       4.108   3.621  17.666  0.00  0.00    +0.000 NA
ATOM     10  C   UNL     1       3.420   4.719  18.119  0.00  0.00    +0.000 A 
ATOM     11  C   UNL     1       3.761   6.053  17.884  0.00  0.00    +0.000 A 
ATOM     12  C   UNL     1       4.941   6.240  17.134  0.00  0.00    +0.000 A 
BRANCH   7  14
ATOM     13  O   UNL     1       7.573   6.130  15.782  0.00  0.00    +0.000 OA
ATOM     14  C   UNL     1       6.708   5.287  15.539  0.00  0.00    +0.000 C 
ATOM     15  N   UNL     1       6.703   4.571  14.321  0.00  0.00    +0.000 N 
ATOM     16  C   UNL     1       7.800   4.754  13.377  0.00  0.00    +0.000 C 
ATOM     17  C   UNL     1       7.194   4.538  11.994  0.00  0.00    +0.000 C 
ATOM     18  C   UNL     1       6.132   3.482  12.254  0.00  0.00    +0.000 C 
ATOM     19  C   UNL     1       5.618   3.836  13.645  0.00  0.00    +0.000 C 
ENDBRANCH   7  14
ENDBRANCH   1  11
BRANCH   5  20
ATOM     20  O   UNL     1       0.788   8.458  21.224  0.00  0.00    +0.000 OA
BRANCH  20  21
ATOM     21  C   UNL     1       0.997   9.623  22.020  0.00  0.00    +0.000 C 
BRANCH  21  22
ATOM     22  C   UNL     1      -0.284  10.474  22.122  0.00  0.00    +0.000 C 
BRANCH  22  23
ATOM     23  O   UNL     1      -0.535  10.882  23.481  0.00  0.00    +0.000 OA
ATOM     24  H   UNL     1       0.304  10.849  23.970  0.00  0.00    +0.000 HD
ENDBRANCH  22  23
BRANCH  22  25
ATOM     25  C   UNL     1      -0.223  11.766  21.252  0.00  0.00    +0.000 C 
BRANCH  25  26
ATOM     26  N   UNL     1       0.840  12.745  21.479  0.00  0.00    +0.000 NA
ATOM     27  C   UNL     1       0.264  14.035  21.885  0.00  0.00    +0.000 C 
ATOM     28  C   UNL     1       1.233  15.177  21.783  0.00  0.00    +0.000 C 
ATOM     29  C   UNL     1       1.610  15.202  20.349  0.00  0.00    +0.000 A 
ATOM     30  C   UNL     1       1.328  16.285  19.566  0.00  0.00    +0.000 A 
ATOM     31  C   UNL     1       2.017  16.372  18.392  0.00  0.00    +0.000 A 
ATOM     32  C   UNL     1       2.917  15.385  17.977  0.00  0.00    +0.000 A 
ATOM     33  C   UNL     1       2.969  14.182  18.660  0.00  0.00    +0.000 A 
ATOM     34  C   UNL     1       2.216  14.059  19.818  0.00  0.00    +0.000 A 
ATOM     35  C   UNL     1       1.977  12.745  20.527  0.00  0.00    +0.000 C 
ENDBRANCH  25  26
ENDBRANCH  22  25
ENDBRANCH  21  22
ENDBRANCH  20  21
ENDBRANCH   5  20
TORSDOF 8
ENDMDL
MODEL 8
REMARK VINA RESULT:      -8.0      2.377      3.592
REMARK  Name = 
REMARK  8 active torsions:
REMARK  status: ('A' for Active; 'I' for Inactive)
REMARK    1  A    between atoms: C_2  and  C_3
REMARK    2  A    between atoms: C_7  and  C_8
REMARK    3  A    between atoms: C_12  and  O_13
REMARK    4  A    between atoms: O_13  and  C_14
REMARK    5  A    between atoms: C_14  and  C_15
REMARK    6  A    between atoms: C_15  and  O_16
REMARK    7  A    between atoms: C_15  and  C_17
REMARK    8  A    between atoms: C_17  and  N_18
REMARK                            x       y       z     vdW  Elec       q    Type
REMARK                         _______ _______ _______ _____ _____    ______ ____
ROOT
ATOM      1  C   UNL     1       1.002   9.592  19.534  0.00  0.00    +0.000 A 
ATOM      2  C   UNL     1       0.595   9.162  20.816  0.00  0.00    +0.000 A 
ATOM      3  C   UNL     1       0.953   7.914  21.336  0.00  0.00    +0.000 A 
ATOM      4  C   UNL     1       1.725   7.052  20.569  0.00  0.00    +0.000 A 
ATOM      5  C   UNL     1       2.157   7.426  19.298  0.00  0.00    +0.000 A 
ATOM      6  C   UNL     1       1.785   8.690  18.779  0.00  0.00    +0.000 A 
ENDROOT
BRANCH   1  11
ATOM      7  C   UNL     1       0.985  13.443  19.018  0.00  0.00    +0.000 A 
ATOM      8  C   UNL     1      -0.261  13.545  18.428  0.00  0.00    +0.000 A 
ATOM      9  N   UNL     1      -1.063  12.488  18.182  0.00  0.00    +0.000 NA
ATOM     10  C   UNL     1      -0.578  11.252  18.529  0.00  0.00    +0.000 A 
ATOM     11  C   UNL     1       0.671  10.992  19.098  0.00  0.00    +0.000 A 
ATOM     12  C   UNL     1       1.484  12.131  19.290  0.00  0.00    +0.000 A 
BRANCH   7  14
ATOM     13  O   UNL     1       1.006  15.485  20.113  0.00  0.00    +0.000 OA
ATOM     14  C   UNL     1       1.689  14.679  19.480  0.00  0.00    +0.000 C 
ATOM     15  N   UNL     1       3.038  14.953  19.161  0.00  0.00    +0.000 N 
ATOM     16  C   UNL     1       3.667  16.162  19.681  0.00  0.00    +0.000 C 
ATOM     17  C   UNL     1       4.705  16.567  18.640  0.00  0.00    +0.000 C 
ATOM     18  C   UNL     1       5.178  15.229  18.098  0.00  0.00    +0.000 C 
ATOM     19  C   UNL     1       3.918  14.372  18.130  0.00  0.00    +0.000 C 
ENDBRANCH   7  14
ENDBRANCH   1  11
BRANCH   5  20
ATOM     20  O   UNL     1       2.876   6.438  18.682  0.00  0.00    +0.000 OA
BRANCH  20  21
ATOM     21  C   UNL     1       4.301   6.426  18.745  0.00  0.00    +0.000 C 
BRANCH  21  22
ATOM     22  C   UNL     1       4.921   5.964  17.412  0.00  0.00    +0.000 C 
BRANCH  22  23
ATOM     23  O   UNL     1       5.931   6.886  16.956  0.00  0.00    +0.000 OA
ATOM     24  H   UNL     1       5.589   7.789  17.062  0.00  0.00    +0.000 HD
ENDBRANCH  22  23
BRANCH  22  25
ATOM     25  C   UNL     1       5.584   4.557  17.508  0.00  0.00    +0.000 C 
BRANCH  25  26
ATOM     26  N   UNL     1       4.759   3.383  17.797  0.00  0.00    +0.000 NA
ATOM     27  C   UNL     1       3.521   3.427  17.007  0.00  0.00    +0.000 C 
ATOM     28  C   UNL     1       2.468   2.476  17.501  0.00  0.00    +0.000 C 
ATOM     29  C   UNL     1       2.214   2.912  18.895  0.00  0.00    +0.000 A 
ATOM     30  C   UNL     1       0.985   3.373  19.275  0.00  0.00    +0.000 A 
ATOM     31  C   UNL     1       0.745   3.403  20.617  0.00  0.00    +0.000 A 
ATOM     32  C   UNL     1       1.715   3.042  21.560  0.00  0.00    +0.000 A 
ATOM     33  C   UNL     1       3.022   2.847  21.150  0.00  0.00    +0.000 A 
ATOM     34  C   UNL     1       3.289   2.886  19.789  0.00  0.00    +0.000 A 
ATOM     35  C   UNL     1       4.685   2.938  19.210  0.00  0.00    +0.000 C 
ENDBRANCH  25  26
ENDBRANCH  22  25
ENDBRANCH  21  22
ENDBRANCH  20  21
ENDBRANCH   5  20
TORSDOF 8
ENDMDL
MODEL 9
REMARK VINA RESULT:      -8.0      2.956     10.603
REMARK  Name = 
REMARK  8 active torsions:
REMARK  status: ('A' for Active; 'I' for Inactive)
REMARK    1  A    between atoms: C_2  and  C_3
REMARK    2  A    between atoms: C_7  and  C_8
REMARK    3  A    between atoms: C_12  and  O_13
REMARK    4  A    between atoms: O_13  and  C_14
REMARK    5  A    between atoms: C_14  and  C_15
REMARK    6  A    between atoms: C_15  and  O_16
REMARK    7  A    between atoms: C_15  and  C_17
REMARK    8  A    between atoms: C_17  and  N_18
REMARK                            x       y       z     vdW  Elec       q    Type
REMARK                         _______ _______ _______ _____ _____    ______ ____
ROOT
ATOM      1  C   UNL     1       2.736   7.165  18.655  0.00  0.00    +0.000 A 
ATOM      2  C   UNL     1       2.272   6.965  19.973  0.00  0.00    +0.000 A 
ATOM      3  C   UNL     1       1.449   7.889  20.624  0.00  0.00    +0.000 A 
ATOM      4  C   UNL     1       1.077   9.053  19.968  0.00  0.00    +0.000 A 
ATOM      5  C   UNL     1       1.504   9.301  18.664  0.00  0.00    +0.000 A 
ATOM      6  C   UNL     1       2.341   8.361  18.015  0.00  0.00    +0.000 A 
ENDROOT
BRANCH   1  11
ATOM      7  C   UNL     1       5.322   5.161  16.558  0.00  0.00    +0.000 A 
ATOM      8  C   UNL     1       4.681   3.937  16.594  0.00  0.00    +0.000 A 
ATOM      9  N   UNL     1       3.517   3.719  17.241  0.00  0.00    +0.000 NA
ATOM     10  C   UNL     1       2.973   4.788  17.907  0.00  0.00    +0.000 A 
ATOM     11  C   UNL     1       3.522   6.070  17.987  0.00  0.00    +0.000 A 
ATOM     12  C   UNL     1       4.762   6.225  17.331  0.00  0.00    +0.000 A 
BRANCH   7  14
ATOM     13  O   UNL     1       7.265   6.254  15.925  0.00  0.00    +0.000 OA
ATOM     14  C   UNL     1       6.465   5.370  15.615  0.00  0.00    +0.000 C 
ATOM     15  N   UNL     1       6.597   4.652  14.406  0.00  0.00    +0.000 N 
ATOM     16  C   UNL     1       7.761   4.885  13.557  0.00  0.00    +0.000 C 
ATOM     17  C   UNL     1       7.285   4.635  12.129  0.00  0.00    +0.000 C 
ATOM     18  C   UNL     1       6.257   3.531  12.305  0.00  0.00    +0.000 C 
ATOM     19  C   UNL     1       5.611   3.863  13.645  0.00  0.00    +0.000 C 
ENDBRANCH   7  14
ENDBRANCH   1  11
BRANCH   5  20
ATOM     20  O   UNL     1       1.067  10.509  18.195  0.00  0.00    +0.000 OA
BRANCH  20  21
ATOM     21  C   UNL     1       1.671  11.725  18.635  0.00  0.00    +0.000 C 
BRANCH  21  22
ATOM     22  C   UNL     1       0.622  12.703  19.199  0.00  0.00    +0.000 C 
BRANCH  22  23
ATOM     23  O   UNL     1       1.147  14.043  19.279  0.00  0.00    +0.000 OA
ATOM     24  H   UNL     1       1.960  14.021  19.810  0.00  0.00    +0.000 HD
ENDBRANCH  22  23
BRANCH  22  25
ATOM     25  C   UNL     1      -0.676  12.761  18.338  0.00  0.00    +0.000 C 
BRANCH  25  26
ATOM     26  N   UNL     1      -1.760  11.812  18.594  0.00  0.00    +0.000 NA
ATOM     27  C   UNL     1      -2.250  11.249  17.327  0.00  0.00    +0.000 C 
ATOM     28  C   UNL     1      -3.579  10.562  17.459  0.00  0.00    +0.000 C 
ATOM     29  C   UNL     1      -4.489  11.627  17.943  0.00  0.00    +0.000 A 
ATOM     30  C   UNL     1      -5.558  12.033  17.196  0.00  0.00    +0.000 A 
ATOM     31  C   UNL     1      -6.522  12.733  17.859  0.00  0.00    +0.000 A 
ATOM     32  C   UNL     1      -6.405  13.073  19.212  0.00  0.00    +0.000 A 
ATOM     33  C   UNL     1      -5.195  12.884  19.857  0.00  0.00    +0.000 A 
ATOM     34  C   UNL     1      -4.183  12.235  19.165  0.00  0.00    +0.000 A 
ATOM     35  C   UNL     1      -2.748  12.176  19.638  0.00  0.00    +0.000 C 
ENDBRANCH  25  26
ENDBRANCH  22  25
ENDBRANCH  21  22
ENDBRANCH  20  21
ENDBRANCH   5  20
TORSDOF 8
ENDMDL
