MODEL 1
REMARK VINA RESULT:      -6.8      0.000      0.000
REMARK  Name = 
REMARK  12 active torsions:
REMARK  status: ('A' for Active; 'I' for Inactive)
REMARK    1  A    between atoms: C_1  and  C_2
REMARK    2  A    between atoms: C_2  and  O_3
REMARK    3  A    between atoms: O_3  and  P_4
REMARK    4  A    between atoms: P_4  and  O_6
REMARK    5  A    between atoms: P_4  and  C_9
REMARK    6  A    between atoms: O_6  and  C_7
REMARK    7  A    between atoms: C_7  and  C_8
REMARK    8  A    between atoms: C_9  and  N_10
REMARK    9  A    between atoms: C_9  and  C_21
REMARK   10  A    between atoms: C_11  and  C_13
REMARK   11  A    between atoms: C_16  and  O_17
REMARK   12  A    between atoms: O_17  and  C_18
REMARK                            x       y       z     vdW  Elec       q    Type
REMARK                         _______ _______ _______ _____ _____    ______ ____
ROOT
ATOM      1  C   UNL     1       3.681   4.755  18.926  0.00  0.00    +0.000 C 
ENDROOT
BRANCH   1   2
ATOM      2  N   UNL     1       3.140   6.135  18.867  0.00  0.00    +0.000 N 
ATOM      3  C   UNL     1       2.306   6.650  19.825  0.00  0.00    +0.000 C 
ATOM      4  O   UNL     1       1.977   6.029  20.828  0.00  0.00    +0.000 OA
ATOM      5  H   UNL     1       3.536   6.735  18.146  0.00  0.00    +0.000 HD
BRANCH   3   6
ATOM      6  C   UNL     1       1.813   8.023  19.569  0.00  0.00    +0.000 A 
ATOM      7  C   UNL     1       1.167   8.746  20.581  0.00  0.00    +0.000 A 
ATOM      8  C   UNL     1       0.682  10.026  20.312  0.00  0.00    +0.000 A 
ATOM      9  C   UNL     1       0.857  10.608  19.054  0.00  0.00    +0.000 A 
ATOM     10  C   UNL     1       1.524   9.897  18.054  0.00  0.00    +0.000 A 
ATOM     11  C   UNL     1       2.011   8.607  18.315  0.00  0.00    +0.000 A 
BRANCH   9  12
ATOM     12  O   UNL     1       0.287  11.842  18.915  0.00  0.00    +0.000 OA
ATOM     13  C   UNL     1      -1.047  11.873  18.424  0.00  0.00    +0.000 C 
ENDBRANCH   9  12
ENDBRANCH   3   6
ENDBRANCH   1   2
BRANCH   1  14
ATOM     14  C   UNL     1       2.663   3.615  18.605  0.00  0.00    +0.000 C 
ATOM     15 CL   UNL     1       3.384   2.219  17.686  0.00  0.00    +0.000 Cl
ATOM     16 CL   UNL     1       2.019   2.883  20.126  0.00  0.00    +0.000 Cl
ATOM     17 CL   UNL     1       1.255   4.152  17.611  0.00  0.00    +0.000 Cl
ENDBRANCH   1  14
BRANCH   1  18
ATOM     18  P   UNL     1       5.162   4.576  17.865  0.00  0.00    +0.000 P 
ATOM     19  O   UNL     1       5.857   3.817  19.008  0.00  0.00    +0.000 OA
BRANCH  18  20
ATOM     20  O   UNL     1       6.561   4.406  16.862  0.00  0.00    +0.000 OA
BRANCH  20  22
ATOM     21  C   UNL     1       6.798   4.589  14.475  0.00  0.00    +0.000 C 
ATOM     22  C   UNL     1       6.271   3.758  15.624  0.00  0.00    +0.000 C 
ENDBRANCH  20  22
ENDBRANCH  18  20
BRANCH  18  23
ATOM     23  O   UNL     1       5.537   6.196  18.093  0.00  0.00    +0.000 OA
BRANCH  23  24
ATOM     24  C   UNL     1       6.211   6.938  17.080  0.00  0.00    +0.000 C 
ATOM     25  C   UNL     1       7.514   7.488  17.624  0.00  0.00    +0.000 C 
ENDBRANCH  23  24
ENDBRANCH  18  23
ENDBRANCH   1  18
TORSDOF 9
ENDMDL
MODEL 2
REMARK VINA RESULT:      -6.8      0.402      1.492
REMARK  Name = 
REMARK  12 active torsions:
REMARK  status: ('A' for Active; 'I' for Inactive)
REMARK    1  A    between atoms: C_1  and  C_2
REMARK    2  A    between atoms: C_2  and  O_3
REMARK    3  A    between atoms: O_3  and  P_4
REMARK    4  A    between atoms: P_4  and  O_6
REMARK    5  A    between atoms: P_4  and  C_9
REMARK    6  A    between atoms: O_6  and  C_7
REMARK    7  A    between atoms: C_7  and  C_8
REMARK    8  A    between atoms: C_9  and  N_10
REMARK    9  A    between atoms: C_9  and  C_21
REMARK   10  A    between atoms: C_11  and  C_13
REMARK   11  A    between atoms: C_16  and  O_17
REMARK   12  A    between atoms: O_17  and  C_18
REMARK                            x       y       z     vdW  Elec       q    Type
REMARK                         _______ _______ _______ _____ _____    ______ ____
ROOT
ATOM      1  C   UNL     1       3.533   4.638  18.941  0.00  0.00    +0.000 C 
ENDROOT
BRANCH   1   2
ATOM      2  N   UNL     1       3.060   6.041  18.868  0.00  0.00    +0.000 N 
ATOM      3  C   UNL     1       2.271   6.614  19.831  0.00  0.00    +0.000 C 
ATOM      4  O   UNL     1       1.930   6.026  20.850  0.00  0.00    +0.000 OA
ATOM      5  H   UNL     1       3.472   6.610  18.129  0.00  0.00    +0.000 HD
BRANCH   3   6
ATOM      6  C   UNL     1       1.842   8.005  19.560  0.00  0.00    +0.000 A 
ATOM      7  C   UNL     1       2.083   8.591  18.309  0.00  0.00    +0.000 A 
ATOM      8  C   UNL     1       1.699   9.912  18.082  0.00  0.00    +0.000 A 
ATOM      9  C   UNL     1       1.050  10.650  19.074  0.00  0.00    +0.000 A 
ATOM     10  C   UNL     1       0.786  10.057  20.311  0.00  0.00    +0.000 A 
ATOM     11  C   UNL     1       1.174   8.729  20.550  0.00  0.00    +0.000 A 
BRANCH   9  12
ATOM     12  O   UNL     1       0.778  11.946  18.733  0.00  0.00    +0.000 OA
ATOM     13  C   UNL     1      -0.581  12.255  18.455  0.00  0.00    +0.000 C 
ENDBRANCH   9  12
ENDBRANCH   3   6
ENDBRANCH   1   2
BRANCH   1  14
ATOM     14  C   UNL     1       2.476   3.547  18.577  0.00  0.00    +0.000 C 
ATOM     15 CL   UNL     1       1.571   2.888  20.012  0.00  0.00    +0.000 Cl
ATOM     16 CL   UNL     1       1.197   4.229  17.498  0.00  0.00    +0.000 Cl
ATOM     17 CL   UNL     1       3.175   2.098  17.758  0.00  0.00    +0.000 Cl
ENDBRANCH   1  14
BRANCH   1  18
ATOM     18  P   UNL     1       5.042   4.391  17.935  0.00  0.00    +0.000 P 
ATOM     19  O   UNL     1       5.685   3.661  19.126  0.00  0.00    +0.000 OA
BRANCH  18  20
ATOM     20  O   UNL     1       6.468   4.158  16.984  0.00  0.00    +0.000 OA
BRANCH  20  22
ATOM     21  C   UNL     1       6.958   4.807  14.720  0.00  0.00    +0.000 C 
ATOM     22  C   UNL     1       6.174   3.875  15.617  0.00  0.00    +0.000 C 
ENDBRANCH  20  22
ENDBRANCH  18  20
BRANCH  18  23
ATOM     23  O   UNL     1       5.444   6.011  18.118  0.00  0.00    +0.000 OA
BRANCH  23  24
ATOM     24  C   UNL     1       6.800   6.410  18.302  0.00  0.00    +0.000 C 
ATOM     25  C   UNL     1       7.136   7.545  17.356  0.00  0.00    +0.000 C 
ENDBRANCH  23  24
ENDBRANCH  18  23
ENDBRANCH   1  18
TORSDOF 9
ENDMDL
MODEL 3
REMARK VINA RESULT:      -6.8      2.920      4.206
REMARK  Name = 
REMARK  12 active torsions:
REMARK  status: ('A' for Active; 'I' for Inactive)
REMARK    1  A    between atoms: C_1  and  C_2
REMARK    2  A    between atoms: C_2  and  O_3
REMARK    3  A    between atoms: O_3  and  P_4
REMARK    4  A    between atoms: P_4  and  O_6
REMARK    5  A    between atoms: P_4  and  C_9
REMARK    6  A    between atoms: O_6  and  C_7
REMARK    7  A    between atoms: C_7  and  C_8
REMARK    8  A    between atoms: C_9  and  N_10
REMARK    9  A    between atoms: C_9  and  C_21
REMARK   10  A    between atoms: C_11  and  C_13
REMARK   11  A    between atoms: C_16  and  O_17
REMARK   12  A    between atoms: O_17  and  C_18
REMARK                            x       y       z     vdW  Elec       q    Type
REMARK                         _______ _______ _______ _____ _____    ______ ____
ROOT
ATOM      1  C   UNL     1       3.098   5.673  17.920  0.00  0.00    +0.000 C 
ENDROOT
BRANCH   1   2
ATOM      2  N   UNL     1       2.484   6.563  18.934  0.00  0.00    +0.000 N 
ATOM      3  C   UNL     1       2.012   7.816  18.638  0.00  0.00    +0.000 C 
ATOM      4  O   UNL     1       2.022   8.283  17.507  0.00  0.00    +0.000 OA
ATOM      5  H   UNL     1       2.296   6.139  19.841  0.00  0.00    +0.000 HD
BRANCH   3   6
ATOM      6  C   UNL     1       1.490   8.588  19.790  0.00  0.00    +0.000 A 
ATOM      7  C   UNL     1       1.529   8.048  21.083  0.00  0.00    +0.000 A 
ATOM      8  C   UNL     1       1.005   8.777  22.150  0.00  0.00    +0.000 A 
ATOM      9  C   UNL     1       0.468  10.050  21.952  0.00  0.00    +0.000 A 
ATOM     10  C   UNL     1       0.454  10.599  20.667  0.00  0.00    +0.000 A 
ATOM     11  C   UNL     1       0.975   9.870  19.587  0.00  0.00    +0.000 A 
BRANCH   9  12
ATOM     12  O   UNL     1      -0.056  10.628  23.075  0.00  0.00    +0.000 OA
ATOM     13  C   UNL     1      -1.308  11.285  22.924  0.00  0.00    +0.000 C 
ENDBRANCH   9  12
ENDBRANCH   3   6
ENDBRANCH   1   2
BRANCH   1  14
ATOM     14  C   UNL     1       4.655   5.742  17.813  0.00  0.00    +0.000 C 
ATOM     15 CL   UNL     1       5.286   7.345  17.226  0.00  0.00    +0.000 Cl
ATOM     16 CL   UNL     1       5.419   5.509  19.434  0.00  0.00    +0.000 Cl
ATOM     17 CL   UNL     1       5.364   4.520  16.688  0.00  0.00    +0.000 Cl
ENDBRANCH   1  14
BRANCH   1  18
ATOM     18  P   UNL     1       2.574   3.935  18.155  0.00  0.00    +0.000 P 
ATOM     19  O   UNL     1       1.363   4.205  17.246  0.00  0.00    +0.000 OA
BRANCH  18  20
ATOM     20  O   UNL     1       2.079   2.293  18.378  0.00  0.00    +0.000 OA
BRANCH  20  22
ATOM     21  C   UNL     1       4.250   1.945  19.355  0.00  0.00    +0.000 C 
ATOM     22  C   UNL     1       3.183   1.391  18.436  0.00  0.00    +0.000 C 
ENDBRANCH  20  22
ENDBRANCH  18  20
BRANCH  18  23
ATOM     23  O   UNL     1       2.065   4.287  19.716  0.00  0.00    +0.000 OA
BRANCH  23  24
ATOM     24  C   UNL     1       0.966   3.593  20.299  0.00  0.00    +0.000 C 
ATOM     25  C   UNL     1       1.406   2.911  21.579  0.00  0.00    +0.000 C 
ENDBRANCH  23  24
ENDBRANCH  18  23
ENDBRANCH   1  18
TORSDOF 9
ENDMDL
MODEL 4
REMARK VINA RESULT:      -6.7      2.908      4.200
REMARK  Name = 
REMARK  12 active torsions:
REMARK  status: ('A' for Active; 'I' for Inactive)
REMARK    1  A    between atoms: C_1  and  C_2
REMARK    2  A    between atoms: C_2  and  O_3
REMARK    3  A    between atoms: O_3  and  P_4
REMARK    4  A    between atoms: P_4  and  O_6
REMARK    5  A    between atoms: P_4  and  C_9
REMARK    6  A    between atoms: O_6  and  C_7
REMARK    7  A    between atoms: C_7  and  C_8
REMARK    8  A    between atoms: C_9  and  N_10
REMARK    9  A    between atoms: C_9  and  C_21
REMARK   10  A    between atoms: C_11  and  C_13
REMARK   11  A    between atoms: C_16  and  O_17
REMARK   12  A    between atoms: O_17  and  C_18
REMARK                            x       y       z     vdW  Elec       q    Type
REMARK                         _______ _______ _______ _____ _____    ______ ____
ROOT
ATOM      1  C   UNL     1       3.129   5.681  17.926  0.00  0.00    +0.000 C 
ENDROOT
BRANCH   1   2
ATOM      2  N   UNL     1       2.510   6.580  18.930  0.00  0.00    +0.000 N 
ATOM      3  C   UNL     1       2.053   7.836  18.626  0.00  0.00    +0.000 C 
ATOM      4  O   UNL     1       2.079   8.299  17.493  0.00  0.00    +0.000 OA
ATOM      5  H   UNL     1       2.310   6.160  19.836  0.00  0.00    +0.000 HD
BRANCH   3   6
ATOM      6  C   UNL     1       1.524   8.615  19.769  0.00  0.00    +0.000 A 
ATOM      7  C   UNL     1       1.564   8.088  21.067  0.00  0.00    +0.000 A 
ATOM      8  C   UNL     1       1.033   8.823  22.126  0.00  0.00    +0.000 A 
ATOM      9  C   UNL     1       0.489  10.092  21.915  0.00  0.00    +0.000 A 
ATOM     10  C   UNL     1       0.474  10.628  20.626  0.00  0.00    +0.000 A 
ATOM     11  C   UNL     1       1.001   9.892  19.553  0.00  0.00    +0.000 A 
BRANCH   9  12
ATOM     12  O   UNL     1      -0.040  10.677  23.032  0.00  0.00    +0.000 OA
ATOM     13  C   UNL     1      -1.169  11.517  22.832  0.00  0.00    +0.000 C 
ENDBRANCH   9  12
ENDBRANCH   3   6
ENDBRANCH   1   2
BRANCH   1  14
ATOM     14  C   UNL     1       4.687   5.745  17.829  0.00  0.00    +0.000 C 
ATOM     15 CL   UNL     1       5.535   5.536  19.426  0.00  0.00    +0.000 Cl
ATOM     16 CL   UNL     1       5.320   4.409  16.791  0.00  0.00    +0.000 Cl
ATOM     17 CL   UNL     1       5.314   7.303  17.166  0.00  0.00    +0.000 Cl
ENDBRANCH   1  14
BRANCH   1  18
ATOM     18  P   UNL     1       2.598   3.947  18.168  0.00  0.00    +0.000 P 
ATOM     19  O   UNL     1       1.407   4.208  17.232  0.00  0.00    +0.000 OA
BRANCH  18  20
ATOM     20  O   UNL     1       2.096   2.307  18.398  0.00  0.00    +0.000 OA
BRANCH  20  22
ATOM     21  C   UNL     1       4.266   1.883  19.347  0.00  0.00    +0.000 C 
ATOM     22  C   UNL     1       3.193   1.395  18.399  0.00  0.00    +0.000 C 
ENDBRANCH  20  22
ENDBRANCH  18  20
BRANCH  18  23
ATOM     23  O   UNL     1       2.057   4.315  19.714  0.00  0.00    +0.000 OA
BRANCH  23  24
ATOM     24  C   UNL     1       0.993   3.578  20.310  0.00  0.00    +0.000 C 
ATOM     25  C   UNL     1       1.472   2.926  21.592  0.00  0.00    +0.000 C 
ENDBRANCH  23  24
ENDBRANCH  18  23
ENDBRANCH   1  18
TORSDOF 9
ENDMDL
MODEL 5
REMARK VINA RESULT:      -6.7      0.288      1.455
REMARK  Name = 
REMARK  12 active torsions:
REMARK  status: ('A' for Active; 'I' for Inactive)
REMARK    1  A    between atoms: C_1  and  C_2
REMARK    2  A    between atoms: C_2  and  O_3
REMARK    3  A    between atoms: O_3  and  P_4
REMARK    4  A    between atoms: P_4  and  O_6
REMARK    5  A    between atoms: P_4  and  C_9
REMARK    6  A    between atoms: O_6  and  C_7
REMARK    7  A    between atoms: C_7  and  C_8
REMARK    8  A    between atoms: C_9  and  N_10
REMARK    9  A    between atoms: C_9  and  C_21
REMARK   10  A    between atoms: C_11  and  C_13
REMARK   11  A    between atoms: C_16  and  O_17
REMARK   12  A    between atoms: O_17  and  C_18
REMARK                            x       y       z     vdW  Elec       q    Type
REMARK                         _______ _______ _______ _____ _____    ______ ____
ROOT
ATOM      1  C   UNL     1       3.797   4.800  18.893  0.00  0.00    +0.000 C 
ENDROOT
BRANCH   1   2
ATOM      2  N   UNL     1       3.218   6.165  18.854  0.00  0.00    +0.000 N 
ATOM      3  C   UNL     1       2.372   6.644  19.819  0.00  0.00    +0.000 C 
ATOM      4  O   UNL     1       2.059   6.000  20.812  0.00  0.00    +0.000 OA
ATOM      5  H   UNL     1       3.598   6.787  18.141  0.00  0.00    +0.000 HD
BRANCH   3   6
ATOM      6  C   UNL     1       1.841   8.006  19.582  0.00  0.00    +0.000 A 
ATOM      7  C   UNL     1       1.967   8.608  18.322  0.00  0.00    +0.000 A 
ATOM      8  C   UNL     1       1.488   9.903  18.126  0.00  0.00    +0.000 A 
ATOM      9  C   UNL     1       0.858  10.598  19.160  0.00  0.00    +0.000 A 
ATOM     10  C   UNL     1       0.709   9.988  20.408  0.00  0.00    +0.000 A 
ATOM     11  C   UNL     1       1.193   8.687  20.615  0.00  0.00    +0.000 A 
BRANCH   9  12
ATOM     12  O   UNL     1       0.486  11.875  18.844  0.00  0.00    +0.000 OA
ATOM     13  C   UNL     1      -0.873  12.064  18.471  0.00  0.00    +0.000 C 
ENDBRANCH   9  12
ENDBRANCH   3   6
ENDBRANCH   1   2
BRANCH   1  14
ATOM     14  C   UNL     1       2.797   3.633  18.614  0.00  0.00    +0.000 C 
ATOM     15 CL   UNL     1       1.332   4.129  17.655  0.00  0.00    +0.000 Cl
ATOM     16 CL   UNL     1       3.581   2.340  17.625  0.00  0.00    +0.000 Cl
ATOM     17 CL   UNL     1       2.140   2.862  20.109  0.00  0.00    +0.000 Cl
ENDBRANCH   1  14
BRANCH   1  18
ATOM     18  P   UNL     1       5.238   4.656  17.775  0.00  0.00    +0.000 P 
ATOM     19  O   UNL     1       6.036   4.023  18.927  0.00  0.00    +0.000 OA
BRANCH  18  20
ATOM     20  O   UNL     1       6.601   4.520  16.718  0.00  0.00    +0.000 OA
BRANCH  20  22
ATOM     21  C   UNL     1       5.614   4.451  14.524  0.00  0.00    +0.000 C 
ATOM     22  C   UNL     1       6.342   3.673  15.599  0.00  0.00    +0.000 C 
ENDBRANCH  20  22
ENDBRANCH  18  20
BRANCH  18  23
ATOM     23  O   UNL     1       5.506   6.310  17.885  0.00  0.00    +0.000 OA
BRANCH  23  24
ATOM     24  C   UNL     1       6.401   6.966  16.991  0.00  0.00    +0.000 C 
ATOM     25  C   UNL     1       7.579   7.528  17.762  0.00  0.00    +0.000 C 
ENDBRANCH  23  24
ENDBRANCH  18  23
ENDBRANCH   1  18
TORSDOF 9
ENDMDL
MODEL 6
REMARK VINA RESULT:      -6.7      0.232      1.065
REMARK  Name = 
REMARK  12 active torsions:
REMARK  status: ('A' for Active; 'I' for Inactive)
REMARK    1  A    between atoms: C_1  and  C_2
REMARK    2  A    between atoms: C_2  and  O_3
REMARK    3  A    between atoms: O_3  and  P_4
REMARK    4  A    between atoms: P_4  and  O_6
REMARK    5  A    between atoms: P_4  and  C_9
REMARK    6  A    between atoms: O_6  and  C_7
REMARK    7  A    between atoms: C_7  and  C_8
REMARK    8  A    between atoms: C_9  and  N_10
REMARK    9  A    between atoms: C_9  and  C_21
REMARK   10  A    between atoms: C_11  and  C_13
REMARK   11  A    between atoms: C_16  and  O_17
REMARK   12  A    between atoms: O_17  and  C_18
REMARK                            x       y       z     vdW  Elec       q    Type
REMARK                         _______ _______ _______ _____ _____    ______ ____
ROOT
ATOM      1  C   UNL     1       3.801   4.745  18.896  0.00  0.00    +0.000 C 
ENDROOT
BRANCH   1   2
ATOM      2  N   UNL     1       3.224   6.109  18.827  0.00  0.00    +0.000 N 
ATOM      3  C   UNL     1       2.389   6.614  19.790  0.00  0.00    +0.000 C 
ATOM      4  O   UNL     1       2.088   5.996  20.803  0.00  0.00    +0.000 OA
ATOM      5  H   UNL     1       3.596   6.711  18.094  0.00  0.00    +0.000 HD
BRANCH   3   6
ATOM      6  C   UNL     1       1.857   7.970  19.523  0.00  0.00    +0.000 A 
ATOM      7  C   UNL     1       1.180   8.678  20.527  0.00  0.00    +0.000 A 
ATOM      8  C   UNL     1       0.660   9.941  20.248  0.00  0.00    +0.000 A 
ATOM      9  C   UNL     1       0.829  10.524  18.990  0.00  0.00    +0.000 A 
ATOM     10  C   UNL     1       1.527   9.830  17.999  0.00  0.00    +0.000 A 
ATOM     11  C   UNL     1       2.049   8.556  18.270  0.00  0.00    +0.000 A 
BRANCH   9  12
ATOM     12  O   UNL     1       0.223  11.740  18.841  0.00  0.00    +0.000 OA
ATOM     13  C   UNL     1      -1.173  11.789  19.100  0.00  0.00    +0.000 C 
ENDBRANCH   9  12
ENDBRANCH   3   6
ENDBRANCH   1   2
BRANCH   1  14
ATOM     14  C   UNL     1       2.794   3.572  18.675  0.00  0.00    +0.000 C 
ATOM     15 CL   UNL     1       1.278   4.055  17.791  0.00  0.00    +0.000 Cl
ATOM     16 CL   UNL     1       3.531   2.277  17.654  0.00  0.00    +0.000 Cl
ATOM     17 CL   UNL     1       2.218   2.807  20.206  0.00  0.00    +0.000 Cl
ENDBRANCH   1  14
BRANCH   1  18
ATOM     18  P   UNL     1       5.217   4.564  17.750  0.00  0.00    +0.000 P 
ATOM     19  O   UNL     1       6.041   3.967  18.903  0.00  0.00    +0.000 OA
BRANCH  18  20
ATOM     20  O   UNL     1       6.555   4.392  16.667  0.00  0.00    +0.000 OA
BRANCH  20  22
ATOM     21  C   UNL     1       6.561   4.464  14.262  0.00  0.00    +0.000 C 
ATOM     22  C   UNL     1       6.217   3.655  15.493  0.00  0.00    +0.000 C 
ENDBRANCH  20  22
ENDBRANCH  18  20
BRANCH  18  23
ATOM     23  O   UNL     1       5.487   6.220  17.801  0.00  0.00    +0.000 OA
BRANCH  23  24
ATOM     24  C   UNL     1       6.495   6.820  16.992  0.00  0.00    +0.000 C 
ATOM     25  C   UNL     1       7.607   7.358  17.870  0.00  0.00    +0.000 C 
ENDBRANCH  23  24
ENDBRANCH  18  23
ENDBRANCH   1  18
TORSDOF 9
ENDMDL
MODEL 7
REMARK VINA RESULT:      -6.7      2.782      4.101
REMARK  Name = 
REMARK  12 active torsions:
REMARK  status: ('A' for Active; 'I' for Inactive)
REMARK    1  A    between atoms: C_1  and  C_2
REMARK    2  A    between atoms: C_2  and  O_3
REMARK    3  A    between atoms: O_3  and  P_4
REMARK    4  A    between atoms: P_4  and  O_6
REMARK    5  A    between atoms: P_4  and  C_9
REMARK    6  A    between atoms: O_6  and  C_7
REMARK    7  A    between atoms: C_7  and  C_8
REMARK    8  A    between atoms: C_9  and  N_10
REMARK    9  A    between atoms: C_9  and  C_21
REMARK   10  A    between atoms: C_11  and  C_13
REMARK   11  A    between atoms: C_16  and  O_17
REMARK   12  A    between atoms: O_17  and  C_18
REMARK                            x       y       z     vdW  Elec       q    Type
REMARK                         _______ _______ _______ _____ _____    ______ ____
ROOT
ATOM      1  C   UNL     1       3.310   5.481  17.790  0.00  0.00    +0.000 C 
ENDROOT
BRANCH   1   2
ATOM      2  N   UNL     1       2.650   6.437  18.712  0.00  0.00    +0.000 N 
ATOM      3  C   UNL     1       2.308   7.712  18.345  0.00  0.00    +0.000 C 
ATOM      4  O   UNL     1       2.482   8.150  17.215  0.00  0.00    +0.000 OA
ATOM      5  H   UNL     1       2.329   6.048  19.598  0.00  0.00    +0.000 HD
BRANCH   3   6
ATOM      6  C   UNL     1       1.715   8.546  19.416  0.00  0.00    +0.000 A 
ATOM      7  C   UNL     1       1.187   9.811  19.121  0.00  0.00    +0.000 A 
ATOM      8  C   UNL     1       0.660  10.594  20.147  0.00  0.00    +0.000 A 
ATOM      9  C   UNL     1       0.625  10.123  21.461  0.00  0.00    +0.000 A 
ATOM     10  C   UNL     1       1.127   8.852  21.750  0.00  0.00    +0.000 A 
ATOM     11  C   UNL     1       1.663   8.059  20.724  0.00  0.00    +0.000 A 
BRANCH   9  12
ATOM     12  O   UNL     1       0.130  11.014  22.372  0.00  0.00    +0.000 OA
ATOM     13  C   UNL     1      -1.046  10.622  23.067  0.00  0.00    +0.000 C 
ENDBRANCH   9  12
ENDBRANCH   3   6
ENDBRANCH   1   2
BRANCH   1  14
ATOM     14  C   UNL     1       4.870   5.548  17.749  0.00  0.00    +0.000 C 
ATOM     15 CL   UNL     1       5.526   7.101  17.064  0.00  0.00    +0.000 Cl
ATOM     16 CL   UNL     1       5.559   5.452  19.417  0.00  0.00    +0.000 Cl
ATOM     17 CL   UNL     1       5.631   4.242  16.761  0.00  0.00    +0.000 Cl
ENDBRANCH   1  14
BRANCH   1  18
ATOM     18  P   UNL     1       2.776   3.762  18.119  0.00  0.00    +0.000 P 
ATOM     19  O   UNL     1       2.301   3.658  16.661  0.00  0.00    +0.000 OA
BRANCH  18  20
ATOM     20  O   UNL     1       2.272   2.137  18.431  0.00  0.00    +0.000 OA
BRANCH  20  22
ATOM     21  C   UNL     1       4.392   2.002  19.561  0.00  0.00    +0.000 C 
ATOM     22  C   UNL     1       3.368   1.270  18.722  0.00  0.00    +0.000 C 
ENDBRANCH  20  22
ENDBRANCH  18  20
BRANCH  18  23
ATOM     23  O   UNL     1       1.458   4.325  18.994  0.00  0.00    +0.000 OA
BRANCH  23  24
ATOM     24  C   UNL     1       1.079   3.707  20.221  0.00  0.00    +0.000 C 
ATOM     25  C   UNL     1       2.061   4.083  21.312  0.00  0.00    +0.000 C 
ENDBRANCH  23  24
ENDBRANCH  18  23
ENDBRANCH   1  18
TORSDOF 9
ENDMDL
MODEL 8
REMARK VINA RESULT:      -6.7      0.486      1.135
REMARK  Name = 
REMARK  12 active torsions:
REMARK  status: ('A' for Active; 'I' for Inactive)
REMARK    1  A    between atoms: C_1  and  C_2
REMARK    2  A    between atoms: C_2  and  O_3
REMARK    3  A    between atoms: O_3  and  P_4
REMARK    4  A    between atoms: P_4  and  O_6
REMARK    5  A    between atoms: P_4  and  C_9
REMARK    6  A    between atoms: O_6  and  C_7
REMARK    7  A    between atoms: C_7  and  C_8
REMARK    8  A    between atoms: C_9  and  N_10
REMARK    9  A    between atoms: C_9  and  C_21
REMARK   10  A    between atoms: C_11  and  C_13
REMARK   11  A    between atoms: C_16  and  O_17
REMARK   12  A    between atoms: O_17  and  C_18
REMARK                            x       y       z     vdW  Elec       q    Type
REMARK                         _______ _______ _______ _____ _____    ______ ____
ROOT
ATOM      1  C   UNL     1       3.656   4.686  18.922  0.00  0.00    +0.000 C 
ENDROOT
BRANCH   1   2
ATOM      2  N   UNL     1       3.124   6.070  18.923  0.00  0.00    +0.000 N 
ATOM      3  C   UNL     1       2.294   6.550  19.903  0.00  0.00    +0.000 C 
ATOM      4  O   UNL     1       1.961   5.887  20.878  0.00  0.00    +0.000 OA
ATOM      5  H   UNL     1       3.524   6.699  18.228  0.00  0.00    +0.000 HD
BRANCH   3   6
ATOM      6  C   UNL     1       1.810   7.935  19.707  0.00  0.00    +0.000 A 
ATOM      7  C   UNL     1       1.180   8.623  20.753  0.00  0.00    +0.000 A 
ATOM      8  C   UNL     1       0.703   9.916  20.540  0.00  0.00    +0.000 A 
ATOM      9  C   UNL     1       0.871  10.546  19.305  0.00  0.00    +0.000 A 
ATOM     10  C   UNL     1       1.523   9.871  18.271  0.00  0.00    +0.000 A 
ATOM     11  C   UNL     1       2.001   8.567  18.476  0.00  0.00    +0.000 A 
BRANCH   9  12
ATOM     12  O   UNL     1       0.310  11.790  19.221  0.00  0.00    +0.000 OA
ATOM     13  C   UNL     1       1.036  12.763  18.480  0.00  0.00    +0.000 C 
ENDBRANCH   9  12
ENDBRANCH   3   6
ENDBRANCH   1   2
BRANCH   1  14
ATOM     14  C   UNL     1       2.628   3.567  18.558  0.00  0.00    +0.000 C 
ATOM     15 CL   UNL     1       1.821   2.807  20.001  0.00  0.00    +0.000 Cl
ATOM     16 CL   UNL     1       1.273   4.237  17.570  0.00  0.00    +0.000 Cl
ATOM     17 CL   UNL     1       3.348   2.186  17.644  0.00  0.00    +0.000 Cl
ENDBRANCH   1  14
BRANCH   1  18
ATOM     18  P   UNL     1       5.130   4.541  17.848  0.00  0.00    +0.000 P 
ATOM     19  O   UNL     1       5.853   3.798  18.984  0.00  0.00    +0.000 OA
BRANCH  18  20
ATOM     20  O   UNL     1       6.524   4.403  16.832  0.00  0.00    +0.000 OA
BRANCH  20  22
ATOM     21  C   UNL     1       6.787   4.586  14.447  0.00  0.00    +0.000 C 
ATOM     22  C   UNL     1       6.234   3.763  15.590  0.00  0.00    +0.000 C 
ENDBRANCH  20  22
ENDBRANCH  18  20
BRANCH  18  23
ATOM     23  O   UNL     1       5.470   6.169  18.072  0.00  0.00    +0.000 OA
BRANCH  23  24
ATOM     24  C   UNL     1       6.166   6.913  17.076  0.00  0.00    +0.000 C 
ATOM     25  C   UNL     1       7.483   7.415  17.633  0.00  0.00    +0.000 C 
ENDBRANCH  23  24
ENDBRANCH  18  23
ENDBRANCH   1  18
TORSDOF 9
ENDMDL
MODEL 9
REMARK VINA RESULT:      -6.7      0.374      1.055
REMARK  Name = 
REMARK  12 active torsions:
REMARK  status: ('A' for Active; 'I' for Inactive)
REMARK    1  A    between atoms: C_1  and  C_2
REMARK    2  A    between atoms: C_2  and  O_3
REMARK    3  A    between atoms: O_3  and  P_4
REMARK    4  A    between atoms: P_4  and  O_6
REMARK    5  A    between atoms: P_4  and  C_9
REMARK    6  A    between atoms: O_6  and  C_7
REMARK    7  A    between atoms: C_7  and  C_8
REMARK    8  A    between atoms: C_9  and  N_10
REMARK    9  A    between atoms: C_9  and  C_21
REMARK   10  A    between atoms: C_11  and  C_13
REMARK   11  A    between atoms: C_16  and  O_17
REMARK   12  A    between atoms: O_17  and  C_18
REMARK                            x       y       z     vdW  Elec       q    Type
REMARK                         _______ _______ _______ _____ _____    ______ ____
ROOT
ATOM      1  C   UNL     1       3.840   4.815  18.843  0.00  0.00    +0.000 C 
ENDROOT
BRANCH   1   2
ATOM      2  N   UNL     1       3.257   6.176  18.772  0.00  0.00    +0.000 N 
ATOM      3  C   UNL     1       2.401   6.671  19.721  0.00  0.00    +0.000 C 
ATOM      4  O   UNL     1       2.084   6.046  20.725  0.00  0.00    +0.000 OA
ATOM      5  H   UNL     1       3.639   6.785  18.050  0.00  0.00    +0.000 HD
BRANCH   3   6
ATOM      6  C   UNL     1       1.867   8.026  19.453  0.00  0.00    +0.000 A 
ATOM      7  C   UNL     1       2.019   8.612  18.188  0.00  0.00    +0.000 A 
ATOM      8  C   UNL     1       1.537   9.900  17.962  0.00  0.00    +0.000 A 
ATOM      9  C   UNL     1       0.878  10.606  18.972  0.00  0.00    +0.000 A 
ATOM     10  C   UNL     1       0.704  10.011  20.224  0.00  0.00    +0.000 A 
ATOM     11  C   UNL     1       1.191   8.716  20.461  0.00  0.00    +0.000 A 
BRANCH   9  12
ATOM     12  O   UNL     1       0.505  11.875  18.629  0.00  0.00    +0.000 OA
ATOM     13  C   UNL     1      -0.575  12.438  19.363  0.00  0.00    +0.000 C 
ENDBRANCH   9  12
ENDBRANCH   3   6
ENDBRANCH   1   2
BRANCH   1  14
ATOM     14  C   UNL     1       2.834   3.636  18.644  0.00  0.00    +0.000 C 
ATOM     15 CL   UNL     1       3.482   2.276  17.623  0.00  0.00    +0.000 Cl
ATOM     16 CL   UNL     1       2.423   2.870  20.228  0.00  0.00    +0.000 Cl
ATOM     17 CL   UNL     1       1.288   4.123  17.849  0.00  0.00    +0.000 Cl
ENDBRANCH   1  14
BRANCH   1  18
ATOM     18  P   UNL     1       5.241   4.630  17.681  0.00  0.00    +0.000 P 
ATOM     19  O   UNL     1       6.071   4.014  18.820  0.00  0.00    +0.000 OA
BRANCH  18  20
ATOM     20  O   UNL     1       6.566   4.455  16.582  0.00  0.00    +0.000 OA
BRANCH  20  22
ATOM     21  C   UNL     1       6.406   4.499  14.182  0.00  0.00    +0.000 C 
ATOM     22  C   UNL     1       6.227   3.674  15.437  0.00  0.00    +0.000 C 
ENDBRANCH  20  22
ENDBRANCH  18  20
BRANCH  18  23
ATOM     23  O   UNL     1       5.529   6.282  17.744  0.00  0.00    +0.000 OA
BRANCH  23  24
ATOM     24  C   UNL     1       6.673   6.849  17.111  0.00  0.00    +0.000 C 
ATOM     25  C   UNL     1       7.747   7.130  18.143  0.00  0.00    +0.000 C 
ENDBRANCH  23  24
ENDBRANCH  18  23
ENDBRANCH   1  18
TORSDOF 9
ENDMDL
