MODEL 1
REMARK VINA RESULT:      -6.3      0.000      0.000
REMARK  Name = 
REMARK  5 active torsions:
REMARK  status: ('A' for Active; 'I' for Inactive)
REMARK    1  A    between atoms: N_6  and  C_7
REMARK    2  A    between atoms: C_7  and  C_8
REMARK    3  A    between atoms: C_8  and  O_9
REMARK    4  A    between atoms: C_8  and  C_10
REMARK    5  A    between atoms: C_10  and  N_11
REMARK                            x       y       z     vdW  Elec       q    Type
REMARK                         _______ _______ _______ _____ _____    ______ ____
ROOT
ATOM      1  C   UNL     1       6.741   4.309  16.837  0.00  0.00    +0.000 C 
ENDROOT
BRANCH   1   2
ATOM      2  O   UNL     1       8.056   4.191  17.403  0.00  0.00    +0.000 OA
ATOM      3  H   UNL     1       8.569   3.590  16.834  0.00  0.00    +0.000 HD
ENDBRANCH   1   2
BRANCH   1   4
ATOM      4  C   UNL     1       5.766   4.489  18.027  0.00  0.00    +0.000 C 
BRANCH   4  10
ATOM      5  O   UNL     1       1.273   2.990  21.265  0.00  0.00    +0.000 OA
ATOM      6  C   UNL     1       1.790   2.563  20.244  0.00  0.00    +0.000 C 
ATOM      7  N   UNL     1       2.799   3.175  19.539  0.00  0.00    +0.000 N 
ATOM      8  C   UNL     1       3.399   2.556  18.363  0.00  0.00    +0.000 C 
ATOM      9  C   UNL     1       3.606   3.600  17.250  0.00  0.00    +0.000 C 
ATOM     10  N   UNL     1       4.365   4.796  17.685  0.00  0.00    +0.000 NA
ATOM     11  C   UNL     1       3.665   5.396  18.851  0.00  0.00    +0.000 C 
ATOM     12  C   UNL     1       3.403   4.418  20.015  0.00  0.00    +0.000 C 
ENDBRANCH   4  10
ENDBRANCH   1   4
BRANCH   1  13
ATOM     13  C   UNL     1       6.634   5.501  15.853  0.00  0.00    +0.000 C 
BRANCH  13  14
ATOM     14  N   UNL     1       6.448   5.174  14.421  0.00  0.00    +0.000 NA
ATOM     15  C   UNL     1       7.740   5.331  13.726  0.00  0.00    +0.000 C 
ATOM     16  C   UNL     1       7.625   5.071  12.224  0.00  0.00    +0.000 C 
ATOM     17  C   UNL     1       7.003   3.711  11.938  0.00  0.00    +0.000 C 
ATOM     18  C   UNL     1       5.698   3.559  12.706  0.00  0.00    +0.000 C 
ATOM     19  C   UNL     1       5.897   3.830  14.198  0.00  0.00    +0.000 C 
ENDBRANCH  13  14
ENDBRANCH   1  13
TORSDOF 5
ENDMDL
MODEL 2
REMARK VINA RESULT:      -6.0      1.026      1.057
REMARK  Name = 
REMARK  5 active torsions:
REMARK  status: ('A' for Active; 'I' for Inactive)
REMARK    1  A    between atoms: N_6  and  C_7
REMARK    2  A    between atoms: C_7  and  C_8
REMARK    3  A    between atoms: C_8  and  O_9
REMARK    4  A    between atoms: C_8  and  C_10
REMARK    5  A    between atoms: C_10  and  N_11
REMARK                            x       y       z     vdW  Elec       q    Type
REMARK                         _______ _______ _______ _____ _____    ______ ____
ROOT
ATOM      1  C   UNL     1       6.952   4.271  16.717  0.00  0.00    +0.000 C 
ENDROOT
BRANCH   1   2
ATOM      2  O   UNL     1       8.169   4.163  17.473  0.00  0.00    +0.000 OA
ATOM      3  H   UNL     1       8.215   4.933  18.067  0.00  0.00    +0.000 HD
ENDBRANCH   1   2
BRANCH   1   4
ATOM      4  C   UNL     1       5.815   4.496  17.746  0.00  0.00    +0.000 C 
BRANCH   4  10
ATOM      5  O   UNL     1       1.208   5.656  20.962  0.00  0.00    +0.000 OA
ATOM      6  C   UNL     1       1.605   4.690  20.328  0.00  0.00    +0.000 C 
ATOM      7  N   UNL     1       2.694   4.673  19.489  0.00  0.00    +0.000 N 
ATOM      8  C   UNL     1       3.132   3.453  18.823  0.00  0.00    +0.000 C 
ATOM      9  C   UNL     1       3.506   3.741  17.358  0.00  0.00    +0.000 C 
ATOM     10  N   UNL     1       4.491   4.836  17.196  0.00  0.00    +0.000 NA
ATOM     11  C   UNL     1       3.950   6.053  17.854  0.00  0.00    +0.000 C 
ATOM     12  C   UNL     1       3.537   5.856  19.328  0.00  0.00    +0.000 C 
ENDBRANCH   4  10
ENDBRANCH   1   4
BRANCH   1  13
ATOM     13  C   UNL     1       7.003   5.431  15.692  0.00  0.00    +0.000 C 
BRANCH  13  14
ATOM     14  N   UNL     1       6.641   5.106  14.293  0.00  0.00    +0.000 NA
ATOM     15  C   UNL     1       7.838   5.263  13.444  0.00  0.00    +0.000 C 
ATOM     16  C   UNL     1       7.539   5.005  11.968  0.00  0.00    +0.000 C 
ATOM     17  C   UNL     1       6.885   3.646  11.759  0.00  0.00    +0.000 C 
ATOM     18  C   UNL     1       5.685   3.494  12.682  0.00  0.00    +0.000 C 
ATOM     19  C   UNL     1       6.066   3.763  14.138  0.00  0.00    +0.000 C 
ENDBRANCH  13  14
ENDBRANCH   1  13
TORSDOF 5
ENDMDL
MODEL 3
REMARK VINA RESULT:      -5.9      1.236      1.280
REMARK  Name = 
REMARK  5 active torsions:
REMARK  status: ('A' for Active; 'I' for Inactive)
REMARK    1  A    between atoms: N_6  and  C_7
REMARK    2  A    between atoms: C_7  and  C_8
REMARK    3  A    between atoms: C_8  and  O_9
REMARK    4  A    between atoms: C_8  and  C_10
REMARK    5  A    between atoms: C_10  and  N_11
REMARK                            x       y       z     vdW  Elec       q    Type
REMARK                         _______ _______ _______ _____ _____    ______ ____
ROOT
ATOM      1  C   UNL     1       6.103   6.283  16.715  0.00  0.00    +0.000 C 
ENDROOT
BRANCH   1   2
ATOM      2  O   UNL     1       5.026   6.822  15.931  0.00  0.00    +0.000 OA
ATOM      3  H   UNL     1       4.885   6.225  15.175  0.00  0.00    +0.000 HD
ENDBRANCH   1   2
BRANCH   1   4
ATOM      4  C   UNL     1       5.450   5.411  17.817  0.00  0.00    +0.000 C 
BRANCH   4  10
ATOM      5  O   UNL     1       1.985   3.371  21.909  0.00  0.00    +0.000 OA
ATOM      6  C   UNL     1       2.645   2.882  21.004  0.00  0.00    +0.000 C 
ATOM      7  N   UNL     1       3.306   3.582  20.024  0.00  0.00    +0.000 N 
ATOM      8  C   UNL     1       4.124   2.913  19.020  0.00  0.00    +0.000 C 
ATOM      9  C   UNL     1       3.881   3.525  17.629  0.00  0.00    +0.000 C 
ATOM     10  N   UNL     1       4.056   4.996  17.583  0.00  0.00    +0.000 NA
ATOM     11  C   UNL     1       3.154   5.605  18.596  0.00  0.00    +0.000 C 
ATOM     12  C   UNL     1       3.320   5.044  20.023  0.00  0.00    +0.000 C 
ENDBRANCH   4  10
ENDBRANCH   1   4
BRANCH   1  13
ATOM     13  C   UNL     1       7.084   5.442  15.858  0.00  0.00    +0.000 C 
BRANCH  13  14
ATOM     14  N   UNL     1       6.656   5.113  14.479  0.00  0.00    +0.000 NA
ATOM     15  C   UNL     1       7.824   5.214  13.583  0.00  0.00    +0.000 C 
ATOM     16  C   UNL     1       7.458   4.950  12.122  0.00  0.00    +0.000 C 
ATOM     17  C   UNL     1       6.746   3.614  11.958  0.00  0.00    +0.000 C 
ATOM     18  C   UNL     1       5.577   3.519  12.928  0.00  0.00    +0.000 C 
ATOM     19  C   UNL     1       6.025   3.792  14.365  0.00  0.00    +0.000 C 
ENDBRANCH  13  14
ENDBRANCH   1  13
TORSDOF 5
ENDMDL
MODEL 4
REMARK VINA RESULT:      -5.9      2.926      6.847
REMARK  Name = 
REMARK  5 active torsions:
REMARK  status: ('A' for Active; 'I' for Inactive)
REMARK    1  A    between atoms: N_6  and  C_7
REMARK    2  A    between atoms: C_7  and  C_8
REMARK    3  A    between atoms: C_8  and  O_9
REMARK    4  A    between atoms: C_8  and  C_10
REMARK    5  A    between atoms: C_10  and  N_11
REMARK                            x       y       z     vdW  Elec       q    Type
REMARK                         _______ _______ _______ _____ _____    ______ ____
ROOT
ATOM      1  C   UNL     1       4.407   4.040  17.068  0.00  0.00    +0.000 C 
ENDROOT
BRANCH   1   2
ATOM      2  O   UNL     1       3.701   5.279  16.901  0.00  0.00    +0.000 OA
ATOM      3  H   UNL     1       4.364   5.987  16.815  0.00  0.00    +0.000 HD
ENDBRANCH   1   2
BRANCH   1   4
ATOM      4  C   UNL     1       5.634   4.351  17.960  0.00  0.00    +0.000 C 
BRANCH   4  10
ATOM      5  O   UNL     1       8.940   8.968  18.783  0.00  0.00    +0.000 OA
ATOM      6  C   UNL     1       8.142   8.610  17.929  0.00  0.00    +0.000 C 
ATOM      7  N   UNL     1       7.554   7.370  17.850  0.00  0.00    +0.000 N 
ATOM      8  C   UNL     1       6.561   7.055  16.830  0.00  0.00    +0.000 C 
ATOM      9  C   UNL     1       6.817   5.655  16.241  0.00  0.00    +0.000 C 
ATOM     10  N   UNL     1       6.910   4.585  17.262  0.00  0.00    +0.000 NA
ATOM     11  C   UNL     1       7.975   4.955  18.231  0.00  0.00    +0.000 C 
ATOM     12  C   UNL     1       7.806   6.351  18.866  0.00  0.00    +0.000 C 
ENDBRANCH   4  10
ENDBRANCH   1   4
BRANCH   1  13
ATOM     13  C   UNL     1       3.520   2.945  17.714  0.00  0.00    +0.000 C 
BRANCH  13  14
ATOM     14  N   UNL     1       2.925   3.258  19.034  0.00  0.00    +0.000 NA
ATOM     15  C   UNL     1       1.455   3.228  18.910  0.00  0.00    +0.000 C 
ATOM     16  C   UNL     1       0.757   3.602  20.218  0.00  0.00    +0.000 C 
ATOM     17  C   UNL     1       1.235   2.735  21.375  0.00  0.00    +0.000 C 
ATOM     18  C   UNL     1       2.755   2.746  21.446  0.00  0.00    +0.000 C 
ATOM     19  C   UNL     1       3.377   2.358  20.103  0.00  0.00    +0.000 C 
ENDBRANCH  13  14
ENDBRANCH   1  13
TORSDOF 5
ENDMDL
MODEL 5
REMARK VINA RESULT:      -5.8      2.309      6.732
REMARK  Name = 
REMARK  5 active torsions:
REMARK  status: ('A' for Active; 'I' for Inactive)
REMARK    1  A    between atoms: N_6  and  C_7
REMARK    2  A    between atoms: C_7  and  C_8
REMARK    3  A    between atoms: C_8  and  O_9
REMARK    4  A    between atoms: C_8  and  C_10
REMARK    5  A    between atoms: C_10  and  N_11
REMARK                            x       y       z     vdW  Elec       q    Type
REMARK                         _______ _______ _______ _____ _____    ______ ____
ROOT
ATOM      1  C   UNL     1       3.351   6.157  18.468  0.00  0.00    +0.000 C 
ENDROOT
BRANCH   1   2
ATOM      2  O   UNL     1       3.277   7.383  17.722  0.00  0.00    +0.000 OA
ATOM      3  H   UNL     1       3.916   7.321  16.990  0.00  0.00    +0.000 HD
ENDBRANCH   1   2
BRANCH   1   4
ATOM      4  C   UNL     1       4.837   5.977  18.868  0.00  0.00    +0.000 C 
BRANCH   4  10
ATOM      5  O   UNL     1       8.031   5.335  14.146  0.00  0.00    +0.000 OA
ATOM      6  C   UNL     1       6.885   5.058  14.465  0.00  0.00    +0.000 C 
ATOM      7  N   UNL     1       6.353   5.173  15.727  0.00  0.00    +0.000 N 
ATOM      8  C   UNL     1       4.951   4.879  15.999  0.00  0.00    +0.000 C 
ATOM      9  C   UNL     1       4.811   4.076  17.305  0.00  0.00    +0.000 C 
ATOM     10  N   UNL     1       5.473   4.709  18.470  0.00  0.00    +0.000 NA
ATOM     11  C   UNL     1       6.904   4.927  18.134  0.00  0.00    +0.000 C 
ATOM     12  C   UNL     1       7.142   5.717  16.829  0.00  0.00    +0.000 C 
ENDBRANCH   4  10
ENDBRANCH   1   4
BRANCH   1  13
ATOM     13  C   UNL     1       2.443   6.183  19.723  0.00  0.00    +0.000 C 
BRANCH  13  14
ATOM     14  N   UNL     1       1.717   4.934  20.050  0.00  0.00    +0.000 NA
ATOM     15  C   UNL     1       1.608   4.114  18.829  0.00  0.00    +0.000 C 
ATOM     16  C   UNL     1       0.815   2.828  19.063  0.00  0.00    +0.000 C 
ATOM     17  C   UNL     1       1.385   2.023  20.222  0.00  0.00    +0.000 C 
ATOM     18  C   UNL     1       1.533   2.907  21.453  0.00  0.00    +0.000 C 
ATOM     19  C   UNL     1       2.339   4.167  21.138  0.00  0.00    +0.000 C 
ENDBRANCH  13  14
ENDBRANCH   1  13
TORSDOF 5
ENDMDL
MODEL 6
REMARK VINA RESULT:      -5.8      1.749      2.186
REMARK  Name = 
REMARK  5 active torsions:
REMARK  status: ('A' for Active; 'I' for Inactive)
REMARK    1  A    between atoms: N_6  and  C_7
REMARK    2  A    between atoms: C_7  and  C_8
REMARK    3  A    between atoms: C_8  and  O_9
REMARK    4  A    between atoms: C_8  and  C_10
REMARK    5  A    between atoms: C_10  and  N_11
REMARK                            x       y       z     vdW  Elec       q    Type
REMARK                         _______ _______ _______ _____ _____    ______ ____
ROOT
ATOM      1  C   UNL     1       6.578   5.312  18.937  0.00  0.00    +0.000 C 
ENDROOT
BRANCH   1   2
ATOM      2  O   UNL     1       7.444   5.419  20.078  0.00  0.00    +0.000 OA
ATOM      3  H   UNL     1       7.746   4.521  20.303  0.00  0.00    +0.000 HD
ENDBRANCH   1   2
BRANCH   1   4
ATOM      4  C   UNL     1       5.134   5.512  19.462  0.00  0.00    +0.000 C 
BRANCH   4  10
ATOM      5  O   UNL     1       1.032   2.541  22.156  0.00  0.00    +0.000 OA
ATOM      6  C   UNL     1       2.078   2.262  21.590  0.00  0.00    +0.000 C 
ATOM      7  N   UNL     1       2.857   3.135  20.869  0.00  0.00    +0.000 N 
ATOM      8  C   UNL     1       4.127   2.725  20.280  0.00  0.00    +0.000 C 
ATOM      9  C   UNL     1       4.269   3.289  18.855  0.00  0.00    +0.000 C 
ATOM     10  N   UNL     1       4.075   4.756  18.770  0.00  0.00    +0.000 NA
ATOM     11  C   UNL     1       2.743   5.086  19.340  0.00  0.00    +0.000 C 
ATOM     12  C   UNL     1       2.506   4.550  20.767  0.00  0.00    +0.000 C 
ENDBRANCH   4  10
ENDBRANCH   1   4
BRANCH   1  13
ATOM     13  C   UNL     1       6.917   6.362  17.848  0.00  0.00    +0.000 C 
BRANCH  13  14
ATOM     14  N   UNL     1       6.711   5.955  16.439  0.00  0.00    +0.000 NA
ATOM     15  C   UNL     1       7.007   4.515  16.312  0.00  0.00    +0.000 C 
ATOM     16  C   UNL     1       6.879   4.023  14.870  0.00  0.00    +0.000 C 
ATOM     17  C   UNL     1       5.516   4.364  14.282  0.00  0.00    +0.000 C 
ATOM     18  C   UNL     1       5.217   5.844  14.472  0.00  0.00    +0.000 C 
ATOM     19  C   UNL     1       5.363   6.256  15.938  0.00  0.00    +0.000 C 
ENDBRANCH  13  14
ENDBRANCH   1  13
TORSDOF 5
ENDMDL
MODEL 7
REMARK VINA RESULT:      -5.8      2.881      3.876
REMARK  Name = 
REMARK  5 active torsions:
REMARK  status: ('A' for Active; 'I' for Inactive)
REMARK    1  A    between atoms: N_6  and  C_7
REMARK    2  A    between atoms: C_7  and  C_8
REMARK    3  A    between atoms: C_8  and  O_9
REMARK    4  A    between atoms: C_8  and  C_10
REMARK    5  A    between atoms: C_10  and  N_11
REMARK                            x       y       z     vdW  Elec       q    Type
REMARK                         _______ _______ _______ _____ _____    ______ ____
ROOT
ATOM      1  C   UNL     1       3.697   4.528  17.624  0.00  0.00    +0.000 C 
ENDROOT
BRANCH   1   2
ATOM      2  O   UNL     1       3.068   5.695  18.176  0.00  0.00    +0.000 OA
ATOM      3  H   UNL     1       3.194   6.424  17.543  0.00  0.00    +0.000 HD
ENDBRANCH   1   2
BRANCH   1   4
ATOM      4  C   UNL     1       2.559   3.642  17.057  0.00  0.00    +0.000 C 
BRANCH   4  10
ATOM      5  O   UNL     1       1.241   2.640  22.551  0.00  0.00    +0.000 OA
ATOM      6  C   UNL     1       2.266   2.626  21.885  0.00  0.00    +0.000 C 
ATOM      7  N   UNL     1       2.338   2.760  20.520  0.00  0.00    +0.000 N 
ATOM      8  C   UNL     1       3.615   2.795  19.817  0.00  0.00    +0.000 C 
ATOM      9  C   UNL     1       3.551   1.944  18.536  0.00  0.00    +0.000 C 
ATOM     10  N   UNL     1       2.425   2.296  17.639  0.00  0.00    +0.000 NA
ATOM     11  C   UNL     1       1.160   2.186  18.412  0.00  0.00    +0.000 C 
ATOM     12  C   UNL     1       1.137   3.001  19.723  0.00  0.00    +0.000 C 
ENDBRANCH   4  10
ENDBRANCH   1   4
BRANCH   1  13
ATOM     13  C   UNL     1       4.719   4.885  16.514  0.00  0.00    +0.000 C 
BRANCH  13  14
ATOM     14  N   UNL     1       6.064   5.319  16.957  0.00  0.00    +0.000 NA
ATOM     15  C   UNL     1       6.107   6.794  16.967  0.00  0.00    +0.000 C 
ATOM     16  C   UNL     1       7.485   7.331  17.354  0.00  0.00    +0.000 C 
ATOM     17  C   UNL     1       7.957   6.752  18.681  0.00  0.00    +0.000 C 
ATOM     18  C   UNL     1       7.854   5.234  18.659  0.00  0.00    +0.000 C 
ATOM     19  C   UNL     1       6.448   4.778  18.267  0.00  0.00    +0.000 C 
ENDBRANCH  13  14
ENDBRANCH   1  13
TORSDOF 5
ENDMDL
MODEL 8
REMARK VINA RESULT:      -5.8      2.497      3.559
REMARK  Name = 
REMARK  5 active torsions:
REMARK  status: ('A' for Active; 'I' for Inactive)
REMARK    1  A    between atoms: N_6  and  C_7
REMARK    2  A    between atoms: C_7  and  C_8
REMARK    3  A    between atoms: C_8  and  O_9
REMARK    4  A    between atoms: C_8  and  C_10
REMARK    5  A    between atoms: C_10  and  N_11
REMARK                            x       y       z     vdW  Elec       q    Type
REMARK                         _______ _______ _______ _____ _____    ______ ____
ROOT
ATOM      1  C   UNL     1       4.721   4.206  16.100  0.00  0.00    +0.000 C 
ENDROOT
BRANCH   1   2
ATOM      2  O   UNL     1       5.903   3.391  16.073  0.00  0.00    +0.000 OA
ATOM      3  H   UNL     1       6.061   3.071  16.979  0.00  0.00    +0.000 HD
ENDBRANCH   1   2
BRANCH   1   4
ATOM      4  C   UNL     1       3.790   3.593  17.177  0.00  0.00    +0.000 C 
BRANCH   4  10
ATOM      5  O   UNL     1       1.603   2.717  22.408  0.00  0.00    +0.000 OA
ATOM      6  C   UNL     1       1.195   2.594  21.263  0.00  0.00    +0.000 C 
ATOM      7  N   UNL     1       1.852   3.008  20.129  0.00  0.00    +0.000 N 
ATOM      8  C   UNL     1       1.314   2.758  18.796  0.00  0.00    +0.000 C 
ATOM      9  C   UNL     1       1.476   4.004  17.906  0.00  0.00    +0.000 C 
ATOM     10  N   UNL     1       2.864   4.521  17.848  0.00  0.00    +0.000 NA
ATOM     11  C   UNL     1       3.319   4.798  19.235  0.00  0.00    +0.000 C 
ATOM     12  C   UNL     1       3.183   3.606  20.205  0.00  0.00    +0.000 C 
ENDBRANCH   4  10
ENDBRANCH   1   4
BRANCH   1  13
ATOM     13  C   UNL     1       5.040   5.686  16.428  0.00  0.00    +0.000 C 
BRANCH  13  14
ATOM     14  N   UNL     1       6.376   5.973  16.998  0.00  0.00    +0.000 NA
ATOM     15  C   UNL     1       6.545   7.435  17.099  0.00  0.00    +0.000 C 
ATOM     16  C   UNL     1       7.928   7.824  17.623  0.00  0.00    +0.000 C 
ATOM     17  C   UNL     1       8.238   7.136  18.946  0.00  0.00    +0.000 C 
ATOM     18  C   UNL     1       8.007   5.637  18.825  0.00  0.00    +0.000 C 
ATOM     19  C   UNL     1       6.604   5.331  18.300  0.00  0.00    +0.000 C 
ENDBRANCH  13  14
ENDBRANCH   1  13
TORSDOF 5
ENDMDL
MODEL 9
REMARK VINA RESULT:      -5.8      0.868      1.001
REMARK  Name = 
REMARK  5 active torsions:
REMARK  status: ('A' for Active; 'I' for Inactive)
REMARK    1  A    between atoms: N_6  and  C_7
REMARK    2  A    between atoms: C_7  and  C_8
REMARK    3  A    between atoms: C_8  and  O_9
REMARK    4  A    between atoms: C_8  and  C_10
REMARK    5  A    between atoms: C_10  and  N_11
REMARK                            x       y       z     vdW  Elec       q    Type
REMARK                         _______ _______ _______ _____ _____    ______ ____
ROOT
ATOM      1  C   UNL     1       6.652   4.183  16.789  0.00  0.00    +0.000 C 
ENDROOT
BRANCH   1   2
ATOM      2  O   UNL     1       7.481   4.344  17.950  0.00  0.00    +0.000 OA
ATOM      3  H   UNL     1       6.921   4.203  18.734  0.00  0.00    +0.000 HD
ENDBRANCH   1   2
BRANCH   1   4
ATOM      4  C   UNL     1       5.202   4.007  17.307  0.00  0.00    +0.000 C 
BRANCH   4  10
ATOM      5  O   UNL     1       0.942   3.260  21.076  0.00  0.00    +0.000 OA
ATOM      6  C   UNL     1       1.042   3.757  19.965  0.00  0.00    +0.000 C 
ATOM      7  N   UNL     1       2.217   3.965  19.282  0.00  0.00    +0.000 N 
ATOM      8  C   UNL     1       2.233   4.506  17.928  0.00  0.00    +0.000 C 
ATOM      9  C   UNL     1       3.349   5.556  17.779  0.00  0.00    +0.000 C 
ATOM     10  N   UNL     1       4.687   5.069  18.189  0.00  0.00    +0.000 NA
ATOM     11  C   UNL     1       4.600   4.584  19.591  0.00  0.00    +0.000 C 
ATOM     12  C   UNL     1       3.497   3.533  19.838  0.00  0.00    +0.000 C 
ENDBRANCH   4  10
ENDBRANCH   1   4
BRANCH   1  13
ATOM     13  C   UNL     1       6.749   5.397  15.830  0.00  0.00    +0.000 C 
BRANCH  13  14
ATOM     14  N   UNL     1       6.531   5.131  14.389  0.00  0.00    +0.000 NA
ATOM     15  C   UNL     1       7.794   5.369  13.666  0.00  0.00    +0.000 C 
ATOM     16  C   UNL     1       7.643   5.177  12.157  0.00  0.00    +0.000 C 
ATOM     17  C   UNL     1       7.061   3.810  11.823  0.00  0.00    +0.000 C 
ATOM     18  C   UNL     1       5.786   3.574  12.620  0.00  0.00    +0.000 C 
ATOM     19  C   UNL     1       6.021   3.781  14.117  0.00  0.00    +0.000 C 
ENDBRANCH  13  14
ENDBRANCH   1  13
TORSDOF 5
ENDMDL
