MODEL 1
REMARK VINA RESULT:      -7.6      0.000      0.000
REMARK  Name = 
REMARK  5 active torsions:
REMARK  status: ('A' for Active; 'I' for Inactive)
REMARK    1  A    between atoms: C_2  and  C_3
REMARK    2  A    between atoms: C_4  and  C_5
REMARK    3  A    between atoms: N_15  and  C_16
REMARK    4  A    between atoms: C_16  and  C_17
REMARK    5  A    between atoms: C_23  and  C_24
REMARK                            x       y       z     vdW  Elec       q    Type
REMARK                         _______ _______ _______ _____ _____    ______ ____
ROOT
ATOM      1  O   UNL     1       2.385  10.306  17.242  0.00  0.00    +0.000 OA
ATOM      2  C   UNL     1       1.797   9.817  18.202  0.00  0.00    +0.000 C 
ATOM      3  N   UNL     1       1.121  10.557  19.147  0.00  0.00    +0.000 N 
ATOM      4  C   UNL     1       0.521  10.025  20.375  0.00  0.00    +0.000 C 
ATOM      5  C   UNL     1       0.951  10.845  21.602  0.00  0.00    +0.000 C 
ATOM      6  N   UNL     1       0.728  12.307  21.480  0.00  0.00    +0.000 NA
ATOM      7  C   UNL     1       1.419  12.769  20.249  0.00  0.00    +0.000 C 
ATOM      8  C   UNL     1       1.019  12.008  18.969  0.00  0.00    +0.000 C 
ENDROOT
BRANCH   2   9
ATOM      9  C   UNL     1       1.783   8.353  18.382  0.00  0.00    +0.000 C 
ATOM     10  C   UNL     1       2.904   7.664  18.127  0.00  0.00    +0.000 C 
BRANCH  10  11
ATOM     11  C   UNL     1       3.000   6.203  18.225  0.00  0.00    +0.000 A 
ATOM     12  C   UNL     1       1.915   5.373  17.914  0.00  0.00    +0.000 A 
ATOM     13  C   UNL     1       2.042   3.983  17.963  0.00  0.00    +0.000 A 
ATOM     14  C   UNL     1       3.263   3.416  18.314  0.00  0.00    +0.000 A 
ATOM     15 BR   UNL     1       3.438   1.536  18.361  0.00  0.00    +0.000 Br
ATOM     16  C   UNL     1       4.357   4.225  18.618  0.00  0.00    +0.000 A 
ATOM     17  C   UNL     1       4.224   5.616  18.571  0.00  0.00    +0.000 A 
ENDBRANCH  10  11
ENDBRANCH   2   9
BRANCH   6  18
ATOM     18  C   UNL     1      -0.705  12.673  21.446  0.00  0.00    +0.000 C 
BRANCH  18  19
ATOM     19  C   UNL     1      -1.119  13.687  22.508  0.00  0.00    +0.000 A 
ATOM     20  C   UNL     1      -0.467  14.939  22.540  0.00  0.00    +0.000 A 
ATOM     21  C   UNL     1      -0.683  15.847  23.574  0.00  0.00    +0.000 A 
ATOM     22  C   UNL     1      -1.597  15.540  24.570  0.00  0.00    +0.000 A 
ATOM     23 CL   UNL     1      -1.826  16.623  25.885  0.00  0.00    +0.000 Cl
ATOM     24  C   UNL     1      -2.330  14.360  24.507  0.00  0.00    +0.000 A 
ATOM     25  C   UNL     1      -2.125  13.425  23.468  0.00  0.00    +0.000 A 
BRANCH  25  26
ATOM     26  C   UNL     1      -3.017  12.198  23.483  0.00  0.00    +0.000 C 
ATOM     27  F   UNL     1      -3.886  12.119  24.526  0.00  0.00    +0.000 F 
ATOM     28  F   UNL     1      -3.779  12.110  22.357  0.00  0.00    +0.000 F 
ATOM     29  F   UNL     1      -2.295  11.044  23.534  0.00  0.00    +0.000 F 
ENDBRANCH  25  26
ENDBRANCH  18  19
ENDBRANCH   6  18
TORSDOF 5
ENDMDL
MODEL 2
REMARK VINA RESULT:      -7.5      0.486      1.069
REMARK  Name = 
REMARK  5 active torsions:
REMARK  status: ('A' for Active; 'I' for Inactive)
REMARK    1  A    between atoms: C_2  and  C_3
REMARK    2  A    between atoms: C_4  and  C_5
REMARK    3  A    between atoms: N_15  and  C_16
REMARK    4  A    between atoms: C_16  and  C_17
REMARK    5  A    between atoms: C_23  and  C_24
REMARK                            x       y       z     vdW  Elec       q    Type
REMARK                         _______ _______ _______ _____ _____    ______ ____
ROOT
ATOM      1  O   UNL     1       2.464  10.639  17.177  0.00  0.00    +0.000 OA
ATOM      2  C   UNL     1       1.830  10.054  18.050  0.00  0.00    +0.000 C 
ATOM      3  N   UNL     1       1.140  10.692  19.057  0.00  0.00    +0.000 N 
ATOM      4  C   UNL     1       0.483  10.032  20.190  0.00  0.00    +0.000 C 
ATOM      5  C   UNL     1       0.890  10.683  21.522  0.00  0.00    +0.000 C 
ATOM      6  N   UNL     1       0.710  12.155  21.575  0.00  0.00    +0.000 NA
ATOM      7  C   UNL     1       1.456  12.743  20.433  0.00  0.00    +0.000 C 
ATOM      8  C   UNL     1       1.082  12.157  19.057  0.00  0.00    +0.000 C 
ENDROOT
BRANCH   2   9
ATOM      9  C   UNL     1       1.772   8.580  18.047  0.00  0.00    +0.000 C 
ATOM     10  C   UNL     1       2.918   7.891  18.133  0.00  0.00    +0.000 C 
BRANCH  10  11
ATOM     11  C   UNL     1       2.991   6.427  18.093  0.00  0.00    +0.000 A 
ATOM     12  C   UNL     1       3.937   5.759  17.305  0.00  0.00    +0.000 A 
ATOM     13  C   UNL     1       4.025   4.365  17.321  0.00  0.00    +0.000 A 
ATOM     14  C   UNL     1       3.172   3.633  18.139  0.00  0.00    +0.000 A 
ATOM     15 BR   UNL     1       3.304   1.748  18.175  0.00  0.00    +0.000 Br
ATOM     16  C   UNL     1       2.229   4.279  18.938  0.00  0.00    +0.000 A 
ATOM     17  C   UNL     1       2.144   5.674  18.916  0.00  0.00    +0.000 A 
ENDBRANCH  10  11
ENDBRANCH   2   9
BRANCH   6  18
ATOM     18  C   UNL     1      -0.711  12.565  21.540  0.00  0.00    +0.000 C 
BRANCH  18  19
ATOM     19  C   UNL     1      -1.086  13.616  22.580  0.00  0.00    +0.000 A 
ATOM     20  C   UNL     1      -0.355  14.823  22.617  0.00  0.00    +0.000 A 
ATOM     21  C   UNL     1      -0.539  15.756  23.636  0.00  0.00    +0.000 A 
ATOM     22  C   UNL     1      -1.497  15.521  24.609  0.00  0.00    +0.000 A 
ATOM     23 CL   UNL     1      -1.691  16.632  25.907  0.00  0.00    +0.000 Cl
ATOM     24  C   UNL     1      -2.304  14.390  24.538  0.00  0.00    +0.000 A 
ATOM     25  C   UNL     1      -2.133  13.432  23.515  0.00  0.00    +0.000 A 
BRANCH  25  26
ATOM     26  C   UNL     1      -3.104  12.267  23.517  0.00  0.00    +0.000 C 
ATOM     27  F   UNL     1      -3.941  12.200  22.448  0.00  0.00    +0.000 F 
ATOM     28  F   UNL     1      -2.460  11.067  23.561  0.00  0.00    +0.000 F 
ATOM     29  F   UNL     1      -3.921  12.289  24.608  0.00  0.00    +0.000 F 
ENDBRANCH  25  26
ENDBRANCH  18  19
ENDBRANCH   6  18
TORSDOF 5
ENDMDL
MODEL 3
REMARK VINA RESULT:      -7.5      3.909      4.813
REMARK  Name = 
REMARK  5 active torsions:
REMARK  status: ('A' for Active; 'I' for Inactive)
REMARK    1  A    between atoms: C_2  and  C_3
REMARK    2  A    between atoms: C_4  and  C_5
REMARK    3  A    between atoms: N_15  and  C_16
REMARK    4  A    between atoms: C_16  and  C_17
REMARK    5  A    between atoms: C_23  and  C_24
REMARK                            x       y       z     vdW  Elec       q    Type
REMARK                         _______ _______ _______ _____ _____    ______ ____
ROOT
ATOM      1  O   UNL     1       1.670   6.129  20.856  0.00  0.00    +0.000 OA
ATOM      2  C   UNL     1       1.880   6.896  19.921  0.00  0.00    +0.000 C 
ATOM      3  N   UNL     1       1.628   8.249  19.965  0.00  0.00    +0.000 N 
ATOM      4  C   UNL     1       1.741   9.174  18.833  0.00  0.00    +0.000 C 
ATOM      5  C   UNL     1       0.474  10.032  18.690  0.00  0.00    +0.000 C 
ATOM      6  N   UNL     1       0.062  10.740  19.928  0.00  0.00    +0.000 NA
ATOM      7  C   UNL     1      -0.088   9.725  21.001  0.00  0.00    +0.000 C 
ATOM      8  C   UNL     1       1.155   8.839  21.220  0.00  0.00    +0.000 C 
ENDROOT
BRANCH   2   9
ATOM      9  C   UNL     1       2.447   6.375  18.662  0.00  0.00    +0.000 C 
ATOM     10  C   UNL     1       3.736   6.007  18.642  0.00  0.00    +0.000 C 
BRANCH  10  11
ATOM     11  C   UNL     1       4.423   5.519  17.441  0.00  0.00    +0.000 A 
ATOM     12  C   UNL     1       4.615   4.151  17.210  0.00  0.00    +0.000 A 
ATOM     13  C   UNL     1       5.225   3.704  16.035  0.00  0.00    +0.000 A 
ATOM     14  C   UNL     1       5.634   4.628  15.079  0.00  0.00    +0.000 A 
ATOM     15 BR   UNL     1       6.441   4.021  13.482  0.00  0.00    +0.000 Br
ATOM     16  C   UNL     1       5.443   5.993  15.286  0.00  0.00    +0.000 A 
ATOM     17  C   UNL     1       4.836   6.435  16.465  0.00  0.00    +0.000 A 
ENDBRANCH  10  11
ENDBRANCH   2   9
BRANCH   6  18
ATOM     18  C   UNL     1       1.015  11.796  20.334  0.00  0.00    +0.000 C 
BRANCH  18  19
ATOM     19  C   UNL     1       0.548  13.215  20.023  0.00  0.00    +0.000 A 
ATOM     20  C   UNL     1      -0.613  13.703  20.662  0.00  0.00    +0.000 A 
ATOM     21  C   UNL     1      -1.181  14.924  20.309  0.00  0.00    +0.000 A 
ATOM     22  C   UNL     1      -0.568  15.707  19.343  0.00  0.00    +0.000 A 
ATOM     23 CL   UNL     1      -1.293  17.186  18.852  0.00  0.00    +0.000 Cl
ATOM     24  C   UNL     1       0.634  15.299  18.772  0.00  0.00    +0.000 A 
ATOM     25  C   UNL     1       1.225  14.064  19.115  0.00  0.00    +0.000 A 
BRANCH  25  26
ATOM     26  C   UNL     1       2.558  13.753  18.460  0.00  0.00    +0.000 C 
ATOM     27  F   UNL     1       3.617  13.654  19.306  0.00  0.00    +0.000 F 
ATOM     28  F   UNL     1       2.523  12.581  17.767  0.00  0.00    +0.000 F 
ATOM     29  F   UNL     1       2.914  14.708  17.555  0.00  0.00    +0.000 F 
ENDBRANCH  25  26
ENDBRANCH  18  19
ENDBRANCH   6  18
TORSDOF 5
ENDMDL
MODEL 4
REMARK VINA RESULT:      -7.5      3.125      3.753
REMARK  Name = 
REMARK  5 active torsions:
REMARK  status: ('A' for Active; 'I' for Inactive)
REMARK    1  A    between atoms: C_2  and  C_3
REMARK    2  A    between atoms: C_4  and  C_5
REMARK    3  A    between atoms: N_15  and  C_16
REMARK    4  A    between atoms: C_16  and  C_17
REMARK    5  A    between atoms: C_23  and  C_24
REMARK                            x       y       z     vdW  Elec       q    Type
REMARK                         _______ _______ _______ _____ _____    ______ ____
ROOT
ATOM      1  O   UNL     1       2.638  10.656  17.686  0.00  0.00    +0.000 OA
ATOM      2  C   UNL     1       1.666  10.070  18.152  0.00  0.00    +0.000 C 
ATOM      3  N   UNL     1       0.497  10.695  18.525  0.00  0.00    +0.000 N 
ATOM      4  C   UNL     1      -0.633  10.053  19.204  0.00  0.00    +0.000 C 
ATOM      5  C   UNL     1      -1.069  10.860  20.438  0.00  0.00    +0.000 C 
ATOM      6  N   UNL     1      -1.340  12.295  20.177  0.00  0.00    +0.000 NA
ATOM      7  C   UNL     1      -0.127  12.877  19.549  0.00  0.00    +0.000 C 
ATOM      8  C   UNL     1       0.358  12.135  18.287  0.00  0.00    +0.000 C 
ENDROOT
BRANCH   2   9
ATOM      9  C   UNL     1       1.710   8.605  18.326  0.00  0.00    +0.000 C 
ATOM     10  C   UNL     1       2.827   7.951  17.977  0.00  0.00    +0.000 C 
BRANCH  10  11
ATOM     11  C   UNL     1       2.974   6.493  18.060  0.00  0.00    +0.000 A 
ATOM     12  C   UNL     1       1.861   5.644  18.092  0.00  0.00    +0.000 A 
ATOM     13  C   UNL     1       2.022   4.256  18.118  0.00  0.00    +0.000 A 
ATOM     14  C   UNL     1       3.302   3.713  18.101  0.00  0.00    +0.000 A 
ATOM     15 BR   UNL     1       3.519   1.836  18.118  0.00  0.00    +0.000 Br
ATOM     16  C   UNL     1       4.423   4.542  18.061  0.00  0.00    +0.000 A 
ATOM     17  C   UNL     1       4.256   5.930  18.037  0.00  0.00    +0.000 A 
ENDBRANCH  10  11
ENDBRANCH   2   9
BRANCH   6  18
ATOM     18  C   UNL     1      -2.529  12.513  19.324  0.00  0.00    +0.000 C 
BRANCH  18  19
ATOM     19  C   UNL     1      -3.847  12.573  20.089  0.00  0.00    +0.000 A 
ATOM     20  C   UNL     1      -3.866  13.186  21.361  0.00  0.00    +0.000 A 
ATOM     21  C   UNL     1      -4.994  13.136  22.177  0.00  0.00    +0.000 A 
ATOM     22  C   UNL     1      -6.143  12.515  21.714  0.00  0.00    +0.000 A 
ATOM     23 CL   UNL     1      -7.520  12.390  22.735  0.00  0.00    +0.000 Cl
ATOM     24  C   UNL     1      -6.186  11.994  20.425  0.00  0.00    +0.000 A 
ATOM     25  C   UNL     1      -5.053  12.033  19.582  0.00  0.00    +0.000 A 
BRANCH  25  26
ATOM     26  C   UNL     1      -5.239  11.476  18.183  0.00  0.00    +0.000 C 
ATOM     27  F   UNL     1      -4.967  12.339  17.168  0.00  0.00    +0.000 F 
ATOM     28  F   UNL     1      -4.455  10.383  17.963  0.00  0.00    +0.000 F 
ATOM     29  F   UNL     1      -6.519  11.063  17.966  0.00  0.00    +0.000 F 
ENDBRANCH  25  26
ENDBRANCH  18  19
ENDBRANCH   6  18
TORSDOF 5
ENDMDL
MODEL 5
REMARK VINA RESULT:      -7.5      3.871      4.768
REMARK  Name = 
REMARK  5 active torsions:
REMARK  status: ('A' for Active; 'I' for Inactive)
REMARK    1  A    between atoms: C_2  and  C_3
REMARK    2  A    between atoms: C_4  and  C_5
REMARK    3  A    between atoms: N_15  and  C_16
REMARK    4  A    between atoms: C_16  and  C_17
REMARK    5  A    between atoms: C_23  and  C_24
REMARK                            x       y       z     vdW  Elec       q    Type
REMARK                         _______ _______ _______ _____ _____    ______ ____
ROOT
ATOM      1  O   UNL     1       1.783   6.156  20.822  0.00  0.00    +0.000 OA
ATOM      2  C   UNL     1       1.927   6.969  19.914  0.00  0.00    +0.000 C 
ATOM      3  N   UNL     1       1.637   8.310  20.030  0.00  0.00    +0.000 N 
ATOM      4  C   UNL     1       1.670   9.286  18.936  0.00  0.00    +0.000 C 
ATOM      5  C   UNL     1       0.373  10.109  18.889  0.00  0.00    +0.000 C 
ATOM      6  N   UNL     1      -0.003  10.750  20.174  0.00  0.00    +0.000 NA
ATOM      7  C   UNL     1      -0.073   9.684  21.207  0.00  0.00    +0.000 C 
ATOM      8  C   UNL     1       1.205   8.831  21.330  0.00  0.00    +0.000 C 
ENDROOT
BRANCH   2   9
ATOM      9  C   UNL     1       2.451   6.521  18.609  0.00  0.00    +0.000 C 
ATOM     10  C   UNL     1       3.665   5.955  18.564  0.00  0.00    +0.000 C 
BRANCH  10  11
ATOM     11  C   UNL     1       4.309   5.513  17.322  0.00  0.00    +0.000 A 
ATOM     12  C   UNL     1       4.807   6.429  16.387  0.00  0.00    +0.000 A 
ATOM     13  C   UNL     1       5.465   5.988  15.235  0.00  0.00    +0.000 A 
ATOM     14  C   UNL     1       5.637   4.625  15.023  0.00  0.00    +0.000 A 
ATOM     15 BR   UNL     1       6.543   4.030  13.474  0.00  0.00    +0.000 Br
ATOM     16  C   UNL     1       5.157   3.698  15.946  0.00  0.00    +0.000 A 
ATOM     17  C   UNL     1       4.497   4.144  17.095  0.00  0.00    +0.000 A 
ENDBRANCH  10  11
ENDBRANCH   2   9
BRANCH   6  18
ATOM     18  C   UNL     1       0.936  11.817  20.584  0.00  0.00    +0.000 C 
BRANCH  18  19
ATOM     19  C   UNL     1       0.502  13.223  20.179  0.00  0.00    +0.000 A 
ATOM     20  C   UNL     1      -0.657  13.771  20.770  0.00  0.00    +0.000 A 
ATOM     21  C   UNL     1      -1.196  14.979  20.333  0.00  0.00    +0.000 A 
ATOM     22  C   UNL     1      -0.554  15.688  19.330  0.00  0.00    +0.000 A 
ATOM     23 CL   UNL     1      -1.242  17.148  18.738  0.00  0.00    +0.000 Cl
ATOM     24  C   UNL     1       0.647  15.223  18.804  0.00  0.00    +0.000 A 
ATOM     25  C   UNL     1       1.209  14.000  19.231  0.00  0.00    +0.000 A 
BRANCH  25  26
ATOM     26  C   UNL     1       2.544  13.624  18.616  0.00  0.00    +0.000 C 
ATOM     27  F   UNL     1       2.585  12.410  18.004  0.00  0.00    +0.000 F 
ATOM     28  F   UNL     1       2.945  14.527  17.679  0.00  0.00    +0.000 F 
ATOM     29  F   UNL     1       3.539  13.588  19.546  0.00  0.00    +0.000 F 
ENDBRANCH  25  26
ENDBRANCH  18  19
ENDBRANCH   6  18
TORSDOF 5
ENDMDL
MODEL 6
REMARK VINA RESULT:      -7.4      3.100      3.960
REMARK  Name = 
REMARK  5 active torsions:
REMARK  status: ('A' for Active; 'I' for Inactive)
REMARK    1  A    between atoms: C_2  and  C_3
REMARK    2  A    between atoms: C_4  and  C_5
REMARK    3  A    between atoms: N_15  and  C_16
REMARK    4  A    between atoms: C_16  and  C_17
REMARK    5  A    between atoms: C_23  and  C_24
REMARK                            x       y       z     vdW  Elec       q    Type
REMARK                         _______ _______ _______ _____ _____    ______ ____
ROOT
ATOM      1  O   UNL     1       1.922   6.056  20.809  0.00  0.00    +0.000 OA
ATOM      2  C   UNL     1       2.029   6.915  19.939  0.00  0.00    +0.000 C 
ATOM      3  N   UNL     1       1.603   8.216  20.087  0.00  0.00    +0.000 N 
ATOM      4  C   UNL     1       1.593   9.234  19.031  0.00  0.00    +0.000 C 
ATOM      5  C   UNL     1       0.224   9.929  18.946  0.00  0.00    +0.000 C 
ATOM      6  N   UNL     1      -0.274  10.478  20.231  0.00  0.00    +0.000 NA
ATOM      7  C   UNL     1      -0.289   9.371  21.220  0.00  0.00    +0.000 C 
ATOM      8  C   UNL     1       1.059   8.640  21.380  0.00  0.00    +0.000 C 
ENDROOT
BRANCH   2   9
ATOM      9  C   UNL     1       2.657   6.573  18.648  0.00  0.00    +0.000 C 
ATOM     10  C   UNL     1       3.708   5.741  18.645  0.00  0.00    +0.000 C 
BRANCH  10  11
ATOM     11  C   UNL     1       4.442   5.364  17.432  0.00  0.00    +0.000 A 
ATOM     12  C   UNL     1       4.761   4.030  17.152  0.00  0.00    +0.000 A 
ATOM     13  C   UNL     1       5.415   3.685  15.966  0.00  0.00    +0.000 A 
ATOM     14  C   UNL     1       5.741   4.678  15.048  0.00  0.00    +0.000 A 
ATOM     15 BR   UNL     1       6.608   4.209  13.436  0.00  0.00    +0.000 Br
ATOM     16  C   UNL     1       5.424   6.011  15.305  0.00  0.00    +0.000 A 
ATOM     17  C   UNL     1       4.773   6.351  16.495  0.00  0.00    +0.000 A 
ENDBRANCH  10  11
ENDBRANCH   2   9
BRANCH   6  18
ATOM     18  C   UNL     1       0.534  11.614  20.727  0.00  0.00    +0.000 C 
BRANCH  18  19
ATOM     19  C   UNL     1      -0.286  12.826  21.157  0.00  0.00    +0.000 A 
ATOM     20  C   UNL     1      -0.704  12.919  22.503  0.00  0.00    +0.000 A 
ATOM     21  C   UNL     1      -1.582  13.914  22.926  0.00  0.00    +0.000 A 
ATOM     22  C   UNL     1      -2.020  14.867  22.020  0.00  0.00    +0.000 A 
ATOM     23 CL   UNL     1      -3.154  16.061  22.514  0.00  0.00    +0.000 Cl
ATOM     24  C   UNL     1      -1.542  14.861  20.714  0.00  0.00    +0.000 A 
ATOM     25  C   UNL     1      -0.653  13.861  20.264  0.00  0.00    +0.000 A 
BRANCH  25  26
ATOM     26  C   UNL     1      -0.167  13.990  18.832  0.00  0.00    +0.000 C 
ATOM     27  F   UNL     1       1.171  13.830  18.652  0.00  0.00    +0.000 F 
ATOM     28  F   UNL     1      -0.765  13.084  18.009  0.00  0.00    +0.000 F 
ATOM     29  F   UNL     1      -0.454  15.214  18.307  0.00  0.00    +0.000 F 
ENDBRANCH  25  26
ENDBRANCH  18  19
ENDBRANCH   6  18
TORSDOF 5
ENDMDL
MODEL 7
REMARK VINA RESULT:      -7.4      3.823      4.666
REMARK  Name = 
REMARK  5 active torsions:
REMARK  status: ('A' for Active; 'I' for Inactive)
REMARK    1  A    between atoms: C_2  and  C_3
REMARK    2  A    between atoms: C_4  and  C_5
REMARK    3  A    between atoms: N_15  and  C_16
REMARK    4  A    between atoms: C_16  and  C_17
REMARK    5  A    between atoms: C_23  and  C_24
REMARK                            x       y       z     vdW  Elec       q    Type
REMARK                         _______ _______ _______ _____ _____    ______ ____
ROOT
ATOM      1  O   UNL     1       1.261   7.374  21.053  0.00  0.00    +0.000 OA
ATOM      2  C   UNL     1       1.547   8.146  20.142  0.00  0.00    +0.000 C 
ATOM      3  N   UNL     1       1.255   9.491  20.154  0.00  0.00    +0.000 N 
ATOM      4  C   UNL     1       1.460  10.417  19.035  0.00  0.00    +0.000 C 
ATOM      5  C   UNL     1       0.191  11.240  18.758  0.00  0.00    +0.000 C 
ATOM      6  N   UNL     1      -0.367  11.938  19.943  0.00  0.00    +0.000 NA
ATOM      7  C   UNL     1      -0.600  10.921  20.999  0.00  0.00    +0.000 C 
ATOM      8  C   UNL     1       0.637  10.070  21.350  0.00  0.00    +0.000 C 
ENDROOT
BRANCH   2   9
ATOM      9  C   UNL     1       2.256   7.639  18.951  0.00  0.00    +0.000 C 
ATOM     10  C   UNL     1       2.979   6.516  19.063  0.00  0.00    +0.000 C 
BRANCH  10  11
ATOM     11  C   UNL     1       3.763   5.941  17.965  0.00  0.00    +0.000 A 
ATOM     12  C   UNL     1       3.770   4.564  17.710  0.00  0.00    +0.000 A 
ATOM     13  C   UNL     1       4.481   4.042  16.626  0.00  0.00    +0.000 A 
ATOM     14  C   UNL     1       5.180   4.901  15.785  0.00  0.00    +0.000 A 
ATOM     15 BR   UNL     1       6.126   4.196  14.309  0.00  0.00    +0.000 Br
ATOM     16  C   UNL     1       5.177   6.276  16.017  0.00  0.00    +0.000 A 
ATOM     17  C   UNL     1       4.467   6.793  17.104  0.00  0.00    +0.000 A 
ENDBRANCH  10  11
ENDBRANCH   2   9
BRANCH   6  18
ATOM     18  C   UNL     1       0.509  13.021  20.441  0.00  0.00    +0.000 C 
BRANCH  18  19
ATOM     19  C   UNL     1       0.131  14.413  19.944  0.00  0.00    +0.000 A 
ATOM     20  C   UNL     1      -1.036  15.022  20.457  0.00  0.00    +0.000 A 
ATOM     21  C   UNL     1      -1.523  16.218  19.934  0.00  0.00    +0.000 A 
ATOM     22  C   UNL     1      -0.823  16.854  18.922  0.00  0.00    +0.000 A 
ATOM     23 CL   UNL     1      -1.447  18.296  18.225  0.00  0.00    +0.000 Cl
ATOM     24  C   UNL     1       0.384  16.331  18.471  0.00  0.00    +0.000 A 
ATOM     25  C   UNL     1       0.895  15.119  18.986  0.00  0.00    +0.000 A 
BRANCH  25  26
ATOM     26  C   UNL     1       2.242  14.677  18.447  0.00  0.00    +0.000 C 
ATOM     27  F   UNL     1       2.874  15.572  17.643  0.00  0.00    +0.000 F 
ATOM     28  F   UNL     1       3.121  14.390  19.448  0.00  0.00    +0.000 F 
ATOM     29  F   UNL     1       2.143  13.539  17.703  0.00  0.00    +0.000 F 
ENDBRANCH  25  26
ENDBRANCH  18  19
ENDBRANCH   6  18
TORSDOF 5
ENDMDL
MODEL 8
REMARK VINA RESULT:      -7.4      6.207     10.560
REMARK  Name = 
REMARK  5 active torsions:
REMARK  status: ('A' for Active; 'I' for Inactive)
REMARK    1  A    between atoms: C_2  and  C_3
REMARK    2  A    between atoms: C_4  and  C_5
REMARK    3  A    between atoms: N_15  and  C_16
REMARK    4  A    between atoms: C_16  and  C_17
REMARK    5  A    between atoms: C_23  and  C_24
REMARK                            x       y       z     vdW  Elec       q    Type
REMARK                         _______ _______ _______ _____ _____    ______ ____
ROOT
ATOM      1  O   UNL     1       0.945   9.917  17.776  0.00  0.00    +0.000 OA
ATOM      2  C   UNL     1       1.116   9.476  18.909  0.00  0.00    +0.000 C 
ATOM      3  N   UNL     1       1.807   8.318  19.187  0.00  0.00    +0.000 N 
ATOM      4  C   UNL     1       1.921   7.689  20.507  0.00  0.00    +0.000 C 
ATOM      5  C   UNL     1       1.574   6.193  20.440  0.00  0.00    +0.000 C 
ATOM      6  N   UNL     1       2.322   5.428  19.410  0.00  0.00    +0.000 NA
ATOM      7  C   UNL     1       2.101   6.096  18.102  0.00  0.00    +0.000 C 
ATOM      8  C   UNL     1       2.452   7.597  18.085  0.00  0.00    +0.000 C 
ENDROOT
BRANCH   2   9
ATOM      9  C   UNL     1       0.572  10.209  20.068  0.00  0.00    +0.000 C 
ATOM     10  C   UNL     1      -0.590  10.861  19.928  0.00  0.00    +0.000 C 
BRANCH  10  11
ATOM     11  C   UNL     1      -1.207  11.661  20.992  0.00  0.00    +0.000 A 
ATOM     12  C   UNL     1      -2.005  12.776  20.705  0.00  0.00    +0.000 A 
ATOM     13  C   UNL     1      -2.626  13.493  21.730  0.00  0.00    +0.000 A 
ATOM     14  C   UNL     1      -2.459  13.088  23.050  0.00  0.00    +0.000 A 
ATOM     15 BR   UNL     1      -3.315  14.048  24.435  0.00  0.00    +0.000 Br
ATOM     16  C   UNL     1      -1.676  11.976  23.356  0.00  0.00    +0.000 A 
ATOM     17  C   UNL     1      -1.054  11.264  22.326  0.00  0.00    +0.000 A 
ENDBRANCH  10  11
ENDBRANCH   2   9
BRANCH   6  18
ATOM     18  C   UNL     1       3.767   5.320  19.708  0.00  0.00    +0.000 C 
BRANCH  18  19
ATOM     19  C   UNL     1       4.634   4.996  18.495  0.00  0.00    +0.000 A 
ATOM     20  C   UNL     1       5.627   5.922  18.106  0.00  0.00    +0.000 A 
ATOM     21  C   UNL     1       6.345   5.766  16.923  0.00  0.00    +0.000 A 
ATOM     22  C   UNL     1       6.119   4.651  16.131  0.00  0.00    +0.000 A 
ATOM     23 CL   UNL     1       6.952   4.479  14.637  0.00  0.00    +0.000 Cl
ATOM     24  C   UNL     1       5.222   3.671  16.542  0.00  0.00    +0.000 A 
ATOM     25  C   UNL     1       4.482   3.811  17.737  0.00  0.00    +0.000 A 
BRANCH  25  26
ATOM     26  C   UNL     1       3.571   2.654  18.102  0.00  0.00    +0.000 C 
ATOM     27  F   UNL     1       2.261   2.817  17.779  0.00  0.00    +0.000 F 
ATOM     28  F   UNL     1       3.960   1.493  17.505  0.00  0.00    +0.000 F 
ATOM     29  F   UNL     1       3.580   2.403  19.441  0.00  0.00    +0.000 F 
ENDBRANCH  25  26
ENDBRANCH  18  19
ENDBRANCH   6  18
TORSDOF 5
ENDMDL
MODEL 9
REMARK VINA RESULT:      -7.4      6.150     10.640
REMARK  Name = 
REMARK  5 active torsions:
REMARK  status: ('A' for Active; 'I' for Inactive)
REMARK    1  A    between atoms: C_2  and  C_3
REMARK    2  A    between atoms: C_4  and  C_5
REMARK    3  A    between atoms: N_15  and  C_16
REMARK    4  A    between atoms: C_16  and  C_17
REMARK    5  A    between atoms: C_23  and  C_24
REMARK                            x       y       z     vdW  Elec       q    Type
REMARK                         _______ _______ _______ _____ _____    ______ ____
ROOT
ATOM      1  O   UNL     1       0.738  10.223  18.051  0.00  0.00    +0.000 OA
ATOM      2  C   UNL     1       0.987   9.724  19.144  0.00  0.00    +0.000 C 
ATOM      3  N   UNL     1       1.714   8.566  19.312  0.00  0.00    +0.000 N 
ATOM      4  C   UNL     1       1.922   7.868  20.585  0.00  0.00    +0.000 C 
ATOM      5  C   UNL     1       1.597   6.371  20.456  0.00  0.00    +0.000 C 
ATOM      6  N   UNL     1       2.292   5.680  19.341  0.00  0.00    +0.000 NA
ATOM      7  C   UNL     1       1.978   6.414  18.088  0.00  0.00    +0.000 C 
ATOM      8  C   UNL     1       2.301   7.921  18.134  0.00  0.00    +0.000 C 
ENDROOT
BRANCH   2   9
ATOM      9  C   UNL     1       0.505  10.380  20.374  0.00  0.00    +0.000 C 
ATOM     10  C   UNL     1      -0.166  11.535  20.265  0.00  0.00    +0.000 C 
BRANCH  10  11
ATOM     11  C   UNL     1      -0.654  12.303  21.416  0.00  0.00    +0.000 A 
ATOM     12  C   UNL     1      -0.100  13.542  21.760  0.00  0.00    +0.000 A 
ATOM     13  C   UNL     1      -0.613  14.283  22.828  0.00  0.00    +0.000 A 
ATOM     14  C   UNL     1      -1.695  13.789  23.549  0.00  0.00    +0.000 A 
ATOM     15 BR   UNL     1      -2.400  14.799  24.981  0.00  0.00    +0.000 Br
ATOM     16  C   UNL     1      -2.266  12.561  23.216  0.00  0.00    +0.000 A 
ATOM     17  C   UNL     1      -1.747  11.823  22.149  0.00  0.00    +0.000 A 
ENDBRANCH  10  11
ENDBRANCH   2   9
BRANCH   6  18
ATOM     18  C   UNL     1       3.754   5.585  19.541  0.00  0.00    +0.000 C 
BRANCH  18  19
ATOM     19  C   UNL     1       4.529   5.143  18.304  0.00  0.00    +0.000 A 
ATOM     20  C   UNL     1       5.438   6.048  17.714  0.00  0.00    +0.000 A 
ATOM     21  C   UNL     1       6.059   5.769  16.498  0.00  0.00    +0.000 A 
ATOM     22  C   UNL     1       5.822   4.554  15.875  0.00  0.00    +0.000 A 
ATOM     23 CL   UNL     1       6.531   4.224  14.344  0.00  0.00    +0.000 Cl
ATOM     24  C   UNL     1       5.013   3.601  16.486  0.00  0.00    +0.000 A 
ATOM     25  C   UNL     1       4.372   3.865  17.716  0.00  0.00    +0.000 A 
BRANCH  25  26
ATOM     26  C   UNL     1       3.554   2.730  18.303  0.00  0.00    +0.000 C 
ATOM     27  F   UNL     1       3.725   2.514  19.635  0.00  0.00    +0.000 F 
ATOM     28  F   UNL     1       2.218   2.922  18.125  0.00  0.00    +0.000 F 
ATOM     29  F   UNL     1       3.840   1.538  17.709  0.00  0.00    +0.000 F 
ENDBRANCH  25  26
ENDBRANCH  18  19
ENDBRANCH   6  18
TORSDOF 5
ENDMDL
