MODEL 1
REMARK VINA RESULT:      -7.5      0.000      0.000
REMARK  Name = 
REMARK  4 active torsions:
REMARK  status: ('A' for Active; 'I' for Inactive)
REMARK    1  A    between atoms: C_1  and  C_2
REMARK    2  A    between atoms: C_7  and  C_9
REMARK    3  A    between atoms: C_9  and  C_10
REMARK    4  A    between atoms: C_10  and  C_11
REMARK                            x       y       z     vdW  Elec       q    Type
REMARK                         _______ _______ _______ _____ _____    ______ ____
ROOT
ATOM      1  C   UNL     1       1.792   5.896  17.865  0.00  0.00    +0.000 C 
ENDROOT
BRANCH   1   8
ATOM      2  C   UNL     1       4.063   2.186  19.875  0.00  0.00    +0.000 C 
ATOM      3  C   UNL     1       2.637   1.955  20.385  0.00  0.00    +0.000 C 
ATOM      4  C   UNL     1       2.376   2.706  21.702  0.00  0.00    +0.000 C 
ATOM      5  C   UNL     1       2.250   4.217  21.496  0.00  0.00    +0.000 C 
ATOM      6  C   UNL     1       1.231   4.542  20.406  0.00  0.00    +0.000 C 
ATOM      7  N   UNL     1       1.537   3.811  19.175  0.00  0.00    +0.000 N 
ATOM      8  C   UNL     1       1.802   4.377  17.930  0.00  0.00    +0.000 C 
ATOM      9  O   UNL     1       2.053   3.697  16.936  0.00  0.00    +0.000 OA
ATOM     10  C   UNL     1       1.598   2.357  19.327  0.00  0.00    +0.000 C 
ENDBRANCH   1   8
BRANCH   1  11
ATOM     11  C   UNL     1       3.041   6.531  18.480  0.00  0.00    +0.000 C 
BRANCH  11  12
ATOM     12  C   UNL     1       4.332   5.987  17.897  0.00  0.00    +0.000 A 
ATOM     13  C   UNL     1       5.279   5.365  18.743  0.00  0.00    +0.000 A 
ATOM     14  C   UNL     1       6.475   4.839  18.231  0.00  0.00    +0.000 A 
ATOM     15  C   UNL     1       6.699   4.950  16.880  0.00  0.00    +0.000 A 
ATOM     16  C   UNL     1       5.797   5.562  16.049  0.00  0.00    +0.000 A 
ATOM     17  C   UNL     1       4.610   6.095  16.525  0.00  0.00    +0.000 A 
ATOM     18  O   UNL     1       6.203   5.583  14.754  0.00  0.00    +0.000 OA
ATOM     19  C   UNL     1       7.494   4.952  14.869  0.00  0.00    +0.000 C 
ATOM     20  O   UNL     1       7.795   4.501  16.205  0.00  0.00    +0.000 OA
ENDBRANCH  11  12
ENDBRANCH   1  11
TORSDOF 3
ENDMDL
MODEL 2
REMARK VINA RESULT:      -7.2      2.201      2.988
REMARK  Name = 
REMARK  4 active torsions:
REMARK  status: ('A' for Active; 'I' for Inactive)
REMARK    1  A    between atoms: C_1  and  C_2
REMARK    2  A    between atoms: C_7  and  C_9
REMARK    3  A    between atoms: C_9  and  C_10
REMARK    4  A    between atoms: C_10  and  C_11
REMARK                            x       y       z     vdW  Elec       q    Type
REMARK                         _______ _______ _______ _____ _____    ______ ____
ROOT
ATOM      1  C   UNL     1       4.198   3.574  16.911  0.00  0.00    +0.000 C 
ENDROOT
BRANCH   1   8
ATOM      2  C   UNL     1       0.674   3.852  20.147  0.00  0.00    +0.000 C 
ATOM      3  C   UNL     1       1.882   4.228  21.011  0.00  0.00    +0.000 C 
ATOM      4  C   UNL     1       2.553   2.986  21.622  0.00  0.00    +0.000 C 
ATOM      5  C   UNL     1       3.325   2.169  20.583  0.00  0.00    +0.000 C 
ATOM      6  C   UNL     1       4.292   3.051  19.796  0.00  0.00    +0.000 C 
ATOM      7  N   UNL     1       3.597   4.207  19.228  0.00  0.00    +0.000 N 
ATOM      8  C   UNL     1       3.516   4.531  17.875  0.00  0.00    +0.000 C 
ATOM      9  O   UNL     1       2.911   5.522  17.469  0.00  0.00    +0.000 OA
ATOM     10  C   UNL     1       2.905   5.046  20.207  0.00  0.00    +0.000 C 
ENDBRANCH   1   8
BRANCH   1  11
ATOM     11  C   UNL     1       5.263   4.252  16.045  0.00  0.00    +0.000 C 
BRANCH  11  12
ATOM     12  C   UNL     1       6.175   5.172  16.836  0.00  0.00    +0.000 A 
ATOM     13  C   UNL     1       6.974   4.645  17.877  0.00  0.00    +0.000 A 
ATOM     14  C   UNL     1       7.839   5.467  18.615  0.00  0.00    +0.000 A 
ATOM     15  C   UNL     1       7.883   6.803  18.297  0.00  0.00    +0.000 A 
ATOM     16  C   UNL     1       7.104   7.331  17.300  0.00  0.00    +0.000 A 
ATOM     17  C   UNL     1       6.237   6.546  16.557  0.00  0.00    +0.000 A 
ATOM     18  O   UNL     1       7.279   8.668  17.146  0.00  0.00    +0.000 OA
ATOM     19  C   UNL     1       8.230   8.935  18.197  0.00  0.00    +0.000 C 
ATOM     20  O   UNL     1       8.657   7.750  18.899  0.00  0.00    +0.000 OA
ENDBRANCH  11  12
ENDBRANCH   1  11
TORSDOF 3
ENDMDL
MODEL 3
REMARK VINA RESULT:      -7.2      2.080      2.670
REMARK  Name = 
REMARK  4 active torsions:
REMARK  status: ('A' for Active; 'I' for Inactive)
REMARK    1  A    between atoms: C_1  and  C_2
REMARK    2  A    between atoms: C_7  and  C_9
REMARK    3  A    between atoms: C_9  and  C_10
REMARK    4  A    between atoms: C_10  and  C_11
REMARK                            x       y       z     vdW  Elec       q    Type
REMARK                         _______ _______ _______ _____ _____    ______ ____
ROOT
ATOM      1  C   UNL     1       3.828   4.248  16.461  0.00  0.00    +0.000 C 
ENDROOT
BRANCH   1   8
ATOM      2  C   UNL     1       2.745   2.940  20.942  0.00  0.00    +0.000 C 
ATOM      3  C   UNL     1       1.548   3.837  20.612  0.00  0.00    +0.000 C 
ATOM      4  C   UNL     1       1.833   5.312  20.948  0.00  0.00    +0.000 C 
ATOM      5  C   UNL     1       2.815   5.954  19.965  0.00  0.00    +0.000 C 
ATOM      6  C   UNL     1       2.368   5.741  18.521  0.00  0.00    +0.000 C 
ATOM      7  N   UNL     1       2.124   4.322  18.256  0.00  0.00    +0.000 N 
ATOM      8  C   UNL     1       2.765   3.548  17.291  0.00  0.00    +0.000 C 
ATOM      9  O   UNL     1       2.509   2.355  17.126  0.00  0.00    +0.000 OA
ATOM     10  C   UNL     1       1.139   3.696  19.138  0.00  0.00    +0.000 C 
ENDBRANCH   1   8
BRANCH   1  11
ATOM     11  C   UNL     1       5.246   3.760  16.767  0.00  0.00    +0.000 C 
BRANCH  11  12
ATOM     12  C   UNL     1       6.137   4.843  17.346  0.00  0.00    +0.000 A 
ATOM     13  C   UNL     1       6.954   4.559  18.464  0.00  0.00    +0.000 A 
ATOM     14  C   UNL     1       7.799   5.535  19.013  0.00  0.00    +0.000 A 
ATOM     15  C   UNL     1       7.806   6.780  18.430  0.00  0.00    +0.000 A 
ATOM     16  C   UNL     1       7.010   7.074  17.354  0.00  0.00    +0.000 A 
ATOM     17  C   UNL     1       6.161   6.133  16.794  0.00  0.00    +0.000 A 
ATOM     18  O   UNL     1       7.148   8.357  16.930  0.00  0.00    +0.000 OA
ATOM     19  C   UNL     1       8.095   8.855  17.897  0.00  0.00    +0.000 C 
ATOM     20  O   UNL     1       8.557   7.849  18.821  0.00  0.00    +0.000 OA
ENDBRANCH  11  12
ENDBRANCH   1  11
TORSDOF 3
ENDMDL
MODEL 4
REMARK VINA RESULT:      -7.1      1.801      3.082
REMARK  Name = 
REMARK  4 active torsions:
REMARK  status: ('A' for Active; 'I' for Inactive)
REMARK    1  A    between atoms: C_1  and  C_2
REMARK    2  A    between atoms: C_7  and  C_9
REMARK    3  A    between atoms: C_9  and  C_10
REMARK    4  A    between atoms: C_10  and  C_11
REMARK                            x       y       z     vdW  Elec       q    Type
REMARK                         _______ _______ _______ _____ _____    ______ ____
ROOT
ATOM      1  C   UNL     1       5.729   5.141  19.170  0.00  0.00    +0.000 C 
ENDROOT
BRANCH   1   8
ATOM      2  C   UNL     1       1.338   4.066  17.580  0.00  0.00    +0.000 C 
ATOM      3  C   UNL     1       1.347   3.316  18.916  0.00  0.00    +0.000 C 
ATOM      4  C   UNL     1       1.917   1.895  18.766  0.00  0.00    +0.000 C 
ATOM      5  C   UNL     1       3.432   1.893  18.550  0.00  0.00    +0.000 C 
ATOM      6  C   UNL     1       4.142   2.716  19.622  0.00  0.00    +0.000 C 
ATOM      7  N   UNL     1       3.568   4.061  19.710  0.00  0.00    +0.000 N 
ATOM      8  C   UNL     1       4.255   5.258  19.522  0.00  0.00    +0.000 C 
ATOM      9  O   UNL     1       3.705   6.355  19.611  0.00  0.00    +0.000 OA
ATOM     10  C   UNL     1       2.131   4.095  19.984  0.00  0.00    +0.000 C 
ENDBRANCH   1   8
BRANCH   1  11
ATOM     11  C   UNL     1       6.145   6.060  18.019  0.00  0.00    +0.000 C 
BRANCH  11  12
ATOM     12  C   UNL     1       6.122   5.368  16.668  0.00  0.00    +0.000 A 
ATOM     13  C   UNL     1       5.175   4.349  16.416  0.00  0.00    +0.000 A 
ATOM     14  C   UNL     1       5.118   3.701  15.173  0.00  0.00    +0.000 A 
ATOM     15  C   UNL     1       6.015   4.088  14.206  0.00  0.00    +0.000 A 
ATOM     16  C   UNL     1       6.947   5.066  14.439  0.00  0.00    +0.000 A 
ATOM     17  C   UNL     1       7.031   5.719  15.658  0.00  0.00    +0.000 A 
ATOM     18  O   UNL     1       7.749   5.297  13.368  0.00  0.00    +0.000 OA
ATOM     19  C   UNL     1       7.244   4.314  12.441  0.00  0.00    +0.000 C 
ATOM     20  O   UNL     1       6.111   3.579  12.945  0.00  0.00    +0.000 OA
ENDBRANCH  11  12
ENDBRANCH   1  11
TORSDOF 3
ENDMDL
MODEL 5
REMARK VINA RESULT:      -7.0      1.927      2.808
REMARK  Name = 
REMARK  4 active torsions:
REMARK  status: ('A' for Active; 'I' for Inactive)
REMARK    1  A    between atoms: C_1  and  C_2
REMARK    2  A    between atoms: C_7  and  C_9
REMARK    3  A    between atoms: C_9  and  C_10
REMARK    4  A    between atoms: C_10  and  C_11
REMARK                            x       y       z     vdW  Elec       q    Type
REMARK                         _______ _______ _______ _____ _____    ______ ____
ROOT
ATOM      1  C   UNL     1       3.193   3.337  16.657  0.00  0.00    +0.000 C 
ENDROOT
BRANCH   1   8
ATOM      2  C   UNL     1       2.502   3.021  21.389  0.00  0.00    +0.000 C 
ATOM      3  C   UNL     1       1.338   3.936  20.993  0.00  0.00    +0.000 C 
ATOM      4  C   UNL     1       1.753   5.417  20.997  0.00  0.00    +0.000 C 
ATOM      5  C   UNL     1       2.666   5.771  19.821  0.00  0.00    +0.000 C 
ATOM      6  C   UNL     1       2.057   5.320  18.496  0.00  0.00    +0.000 C 
ATOM      7  N   UNL     1       1.695   3.902  18.545  0.00  0.00    +0.000 N 
ATOM      8  C   UNL     1       2.179   2.904  17.704  0.00  0.00    +0.000 C 
ATOM      9  O   UNL     1       1.830   1.728  17.806  0.00  0.00    +0.000 OA
ATOM     10  C   UNL     1       0.769   3.546  19.620  0.00  0.00    +0.000 C 
ENDBRANCH   1   8
BRANCH   1  11
ATOM     11  C   UNL     1       4.640   3.221  17.141  0.00  0.00    +0.000 C 
BRANCH  11  12
ATOM     12  C   UNL     1       5.368   4.553  17.163  0.00  0.00    +0.000 A 
ATOM     13  C   UNL     1       5.009   5.566  16.245  0.00  0.00    +0.000 A 
ATOM     14  C   UNL     1       5.652   6.813  16.251  0.00  0.00    +0.000 A 
ATOM     15  C   UNL     1       6.647   7.018  17.177  0.00  0.00    +0.000 A 
ATOM     16  C   UNL     1       7.015   6.041  18.065  0.00  0.00    +0.000 A 
ATOM     17  C   UNL     1       6.402   4.799  18.080  0.00  0.00    +0.000 A 
ATOM     18  O   UNL     1       8.022   6.429  18.889  0.00  0.00    +0.000 OA
ATOM     19  C   UNL     1       8.280   7.756  18.386  0.00  0.00    +0.000 C 
ATOM     20  O   UNL     1       7.379   8.157  17.335  0.00  0.00    +0.000 OA
ENDBRANCH  11  12
ENDBRANCH   1  11
TORSDOF 3
ENDMDL
MODEL 6
REMARK VINA RESULT:      -7.0      2.714      4.490
REMARK  Name = 
REMARK  4 active torsions:
REMARK  status: ('A' for Active; 'I' for Inactive)
REMARK    1  A    between atoms: C_1  and  C_2
REMARK    2  A    between atoms: C_7  and  C_9
REMARK    3  A    between atoms: C_9  and  C_10
REMARK    4  A    between atoms: C_10  and  C_11
REMARK                            x       y       z     vdW  Elec       q    Type
REMARK                         _______ _______ _______ _____ _____    ______ ____
ROOT
ATOM      1  C   UNL     1       4.582   4.598  17.207  0.00  0.00    +0.000 C 
ENDROOT
BRANCH   1   8
ATOM      2  C   UNL     1       2.277   3.925  21.355  0.00  0.00    +0.000 C 
ATOM      3  C   UNL     1       2.017   2.582  20.665  0.00  0.00    +0.000 C 
ATOM      4  C   UNL     1       0.752   2.626  19.792  0.00  0.00    +0.000 C 
ATOM      5  C   UNL     1       0.952   3.446  18.516  0.00  0.00    +0.000 C 
ATOM      6  C   UNL     1       2.193   2.986  17.754  0.00  0.00    +0.000 C 
ATOM      7  N   UNL     1       3.366   2.976  18.629  0.00  0.00    +0.000 N 
ATOM      8  C   UNL     1       4.540   3.701  18.434  0.00  0.00    +0.000 C 
ATOM      9  O   UNL     1       5.488   3.644  19.216  0.00  0.00    +0.000 OA
ATOM     10  C   UNL     1       3.229   2.146  19.826  0.00  0.00    +0.000 C 
ENDBRANCH   1   8
BRANCH   1  11
ATOM     11  C   UNL     1       4.988   6.038  17.531  0.00  0.00    +0.000 C 
BRANCH  11  12
ATOM     12  C   UNL     1       3.844   6.868  18.084  0.00  0.00    +0.000 A 
ATOM     13  C   UNL     1       3.217   6.485  19.292  0.00  0.00    +0.000 A 
ATOM     14  C   UNL     1       2.168   7.240  19.837  0.00  0.00    +0.000 A 
ATOM     15  C   UNL     1       1.766   8.365  19.156  0.00  0.00    +0.000 A 
ATOM     16  C   UNL     1       2.355   8.742  17.978  0.00  0.00    +0.000 A 
ATOM     17  C   UNL     1       3.390   8.013  17.413  0.00  0.00    +0.000 A 
ATOM     18  O   UNL     1       1.812   9.870  17.453  0.00  0.00    +0.000 OA
ATOM     19  C   UNL     1       0.774  10.139  18.418  0.00  0.00    +0.000 C 
ATOM     20  O   UNL     1       0.771   9.219  19.528  0.00  0.00    +0.000 OA
ENDBRANCH  11  12
ENDBRANCH   1  11
TORSDOF 3
ENDMDL
MODEL 7
REMARK VINA RESULT:      -7.0      1.897      3.116
REMARK  Name = 
REMARK  4 active torsions:
REMARK  status: ('A' for Active; 'I' for Inactive)
REMARK    1  A    between atoms: C_1  and  C_2
REMARK    2  A    between atoms: C_7  and  C_9
REMARK    3  A    between atoms: C_9  and  C_10
REMARK    4  A    between atoms: C_10  and  C_11
REMARK                            x       y       z     vdW  Elec       q    Type
REMARK                         _______ _______ _______ _____ _____    ______ ____
ROOT
ATOM      1  C   UNL     1       5.090   4.928  18.667  0.00  0.00    +0.000 C 
ENDROOT
BRANCH   1   8
ATOM      2  C   UNL     1       1.517   2.830  21.076  0.00  0.00    +0.000 C 
ATOM      3  C   UNL     1       1.443   2.074  19.745  0.00  0.00    +0.000 C 
ATOM      4  C   UNL     1       0.541   2.797  18.730  0.00  0.00    +0.000 C 
ATOM      5  C   UNL     1       1.186   4.070  18.178  0.00  0.00    +0.000 C 
ATOM      6  C   UNL     1       2.588   3.789  17.642  0.00  0.00    +0.000 C 
ATOM      7  N   UNL     1       3.405   3.114  18.653  0.00  0.00    +0.000 N 
ATOM      8  C   UNL     1       4.606   3.582  19.180  0.00  0.00    +0.000 C 
ATOM      9  O   UNL     1       5.240   2.958  20.032  0.00  0.00    +0.000 OA
ATOM     10  C   UNL     1       2.845   1.858  19.152  0.00  0.00    +0.000 C 
ENDBRANCH   1   8
BRANCH   1  11
ATOM     11  C   UNL     1       6.508   4.878  18.094  0.00  0.00    +0.000 C 
BRANCH  11  12
ATOM     12  C   UNL     1       6.535   4.647  16.594  0.00  0.00    +0.000 A 
ATOM     13  C   UNL     1       5.669   3.692  16.013  0.00  0.00    +0.000 A 
ATOM     14  C   UNL     1       5.659   3.468  14.628  0.00  0.00    +0.000 A 
ATOM     15  C   UNL     1       6.522   4.205  13.852  0.00  0.00    +0.000 A 
ATOM     16  C   UNL     1       7.377   5.125  14.402  0.00  0.00    +0.000 A 
ATOM     17  C   UNL     1       7.413   5.364  15.766  0.00  0.00    +0.000 A 
ATOM     18  O   UNL     1       8.156   5.739  13.476  0.00  0.00    +0.000 OA
ATOM     19  C   UNL     1       7.727   5.065  12.276  0.00  0.00    +0.000 C 
ATOM     20  O   UNL     1       6.654   4.126  12.498  0.00  0.00    +0.000 OA
ENDBRANCH  11  12
ENDBRANCH   1  11
TORSDOF 3
ENDMDL
MODEL 8
REMARK VINA RESULT:      -6.9      2.873      5.103
REMARK  Name = 
REMARK  4 active torsions:
REMARK  status: ('A' for Active; 'I' for Inactive)
REMARK    1  A    between atoms: C_1  and  C_2
REMARK    2  A    between atoms: C_7  and  C_9
REMARK    3  A    between atoms: C_9  and  C_10
REMARK    4  A    between atoms: C_10  and  C_11
REMARK                            x       y       z     vdW  Elec       q    Type
REMARK                         _______ _______ _______ _____ _____    ______ ____
ROOT
ATOM      1  C   UNL     1       3.875   5.244  17.233  0.00  0.00    +0.000 C 
ENDROOT
BRANCH   1   8
ATOM      2  C   UNL     1       2.412   4.099  21.651  0.00  0.00    +0.000 C 
ATOM      3  C   UNL     1       2.436   2.716  20.993  0.00  0.00    +0.000 C 
ATOM      4  C   UNL     1       1.100   2.393  20.301  0.00  0.00    +0.000 C 
ATOM      5  C   UNL     1       0.899   3.199  19.016  0.00  0.00    +0.000 C 
ATOM      6  C   UNL     1       2.105   3.066  18.088  0.00  0.00    +0.000 C 
ATOM      7  N   UNL     1       3.343   3.398  18.795  0.00  0.00    +0.000 N 
ATOM      8  C   UNL     1       4.240   4.405  18.447  0.00  0.00    +0.000 C 
ATOM      9  O   UNL     1       5.265   4.628  19.092  0.00  0.00    +0.000 OA
ATOM     10  C   UNL     1       3.596   2.597  19.993  0.00  0.00    +0.000 C 
ENDBRANCH   1   8
BRANCH   1  11
ATOM     11  C   UNL     1       4.222   6.725  17.400  0.00  0.00    +0.000 C 
BRANCH  11  12
ATOM     12  C   UNL     1       3.145   7.508  18.129  0.00  0.00    +0.000 A 
ATOM     13  C   UNL     1       2.552   8.632  17.509  0.00  0.00    +0.000 A 
ATOM     14  C   UNL     1       1.544   9.367  18.151  0.00  0.00    +0.000 A 
ATOM     15  C   UNL     1       1.152   8.962  19.405  0.00  0.00    +0.000 A 
ATOM     16  C   UNL     1       1.727   7.882  20.024  0.00  0.00    +0.000 A 
ATOM     17  C   UNL     1       2.728   7.140  19.418  0.00  0.00    +0.000 A 
ATOM     18  O   UNL     1       1.216   7.649  21.259  0.00  0.00    +0.000 OA
ATOM     19  C   UNL     1       0.278   8.739  21.370  0.00  0.00    +0.000 C 
ATOM     20  O   UNL     1       0.194   9.547  20.178  0.00  0.00    +0.000 OA
ENDBRANCH  11  12
ENDBRANCH   1  11
TORSDOF 3
ENDMDL
MODEL 9
REMARK VINA RESULT:      -6.9      4.487      6.754
REMARK  Name = 
REMARK  4 active torsions:
REMARK  status: ('A' for Active; 'I' for Inactive)
REMARK    1  A    between atoms: C_1  and  C_2
REMARK    2  A    between atoms: C_7  and  C_9
REMARK    3  A    between atoms: C_9  and  C_10
REMARK    4  A    between atoms: C_10  and  C_11
REMARK                            x       y       z     vdW  Elec       q    Type
REMARK                         _______ _______ _______ _____ _____    ______ ____
ROOT
ATOM      1  C   UNL     1       2.313   7.145  18.421  0.00  0.00    +0.000 C 
ENDROOT
BRANCH   1   8
ATOM      2  C   UNL     1       4.323   2.951  19.581  0.00  0.00    +0.000 C 
ATOM      3  C   UNL     1       3.765   2.624  18.192  0.00  0.00    +0.000 C 
ATOM      4  C   UNL     1       2.312   2.123  18.267  0.00  0.00    +0.000 C 
ATOM      5  C   UNL     1       1.325   3.245  18.596  0.00  0.00    +0.000 C 
ATOM      6  C   UNL     1       1.504   4.432  17.652  0.00  0.00    +0.000 C 
ATOM      7  N   UNL     1       2.901   4.873  17.632  0.00  0.00    +0.000 N 
ATOM      8  C   UNL     1       3.363   6.143  17.970  0.00  0.00    +0.000 C 
ATOM      9  O   UNL     1       4.556   6.442  17.930  0.00  0.00    +0.000 OA
ATOM     10  C   UNL     1       3.863   3.837  17.255  0.00  0.00    +0.000 C 
ENDBRANCH   1   8
BRANCH   1  11
ATOM     11  C   UNL     1       2.247   7.300  19.942  0.00  0.00    +0.000 C 
BRANCH  11  12
ATOM     12  C   UNL     1       1.366   8.454  20.384  0.00  0.00    +0.000 A 
ATOM     13  C   UNL     1       0.930   9.409  19.438  0.00  0.00    +0.000 A 
ATOM     14  C   UNL     1       0.101  10.478  19.813  0.00  0.00    +0.000 A 
ATOM     15  C   UNL     1      -0.271  10.569  21.133  0.00  0.00    +0.000 A 
ATOM     16  C   UNL     1       0.154   9.658  22.065  0.00  0.00    +0.000 A 
ATOM     17  C   UNL     1       0.976   8.596  21.726  0.00  0.00    +0.000 A 
ATOM     18  O   UNL     1      -0.309   9.925  23.313  0.00  0.00    +0.000 OA
ATOM     19  C   UNL     1      -1.042  11.143  23.070  0.00  0.00    +0.000 C 
ATOM     20  O   UNL     1      -1.066  11.531  21.681  0.00  0.00    +0.000 OA
ENDBRANCH  11  12
ENDBRANCH   1  11
TORSDOF 3
ENDMDL
