MODEL 1
REMARK VINA RESULT:      -7.3      0.000      0.000
REMARK  Name = 
REMARK  9 active torsions:
REMARK  status: ('A' for Active; 'I' for Inactive)
REMARK    1  A    between atoms: C_1  and  C_2
REMARK    2  A    between atoms: C_2  and  C_3
REMARK    3  A    between atoms: C_4  and  C_5
REMARK    4  A    between atoms: C_5  and  N_6
REMARK    5  A    between atoms: C_8  and  C_9
REMARK    6  A    between atoms: C_9  and  N_10
REMARK    7  A    between atoms: N_10  and  C_11
REMARK    8  A    between atoms: N_10  and  C_12
REMARK    9  A    between atoms: N_10  and  C_13
REMARK                            x       y       z     vdW  Elec       q    Type
REMARK                         _______ _______ _______ _____ _____    ______ ____
ROOT
ATOM      1  N   UNL     1       5.612   4.189  15.916  0.00  0.00    +0.000 N 
ATOM      2  C   UNL     1       4.315   3.919  16.202  0.00  0.00    +0.000 A 
ATOM      3  C   UNL     1       4.048   4.215  17.535  0.00  0.00    +0.000 A 
ATOM      4  C   UNL     1       5.241   4.679  18.065  0.00  0.00    +0.000 A 
ATOM      5  C   UNL     1       5.571   5.122  19.349  0.00  0.00    +0.000 A 
ATOM      6  C   UNL     1       6.897   5.529  19.585  0.00  0.00    +0.000 A 
ATOM      7  C   UNL     1       7.855   5.488  18.549  0.00  0.00    +0.000 A 
ATOM      8  C   UNL     1       7.497   5.046  17.265  0.00  0.00    +0.000 A 
ATOM      9  C   UNL     1       6.172   4.647  17.054  0.00  0.00    +0.000 A 
ENDROOT
BRANCH   1  10
ATOM     10  C   UNL     1       6.248   4.006  14.612  0.00  0.00    +0.000 C 
BRANCH  10  14
ATOM     11  C   UNL     1       4.334   3.196  11.341  0.00  0.00    +0.000 C 
ATOM     12  C   UNL     1       5.479   3.431  12.291  0.00  0.00    +0.000 C 
ATOM     13  C   UNL     1       6.903   3.285  11.808  0.00  0.00    +0.000 C 
ATOM     14  C   UNL     1       5.196   3.766  13.564  0.00  0.00    +0.000 C 
ENDBRANCH  10  14
ENDBRANCH   1  10
BRANCH   3  15
ATOM     15  C   UNL     1       2.700   4.100  18.215  0.00  0.00    +0.000 C 
BRANCH  15  16
ATOM     16  N   UNL     1       2.460   2.821  18.947  0.00  0.00    +0.000 N 
ATOM     17  C   UNL     1       3.277   1.716  18.392  0.00  0.00    +0.000 C 
ATOM     18  C   UNL     1       2.752   2.975  20.392  0.00  0.00    +0.000 C 
ATOM     19  C   UNL     1       1.028   2.461  18.796  0.00  0.00    +0.000 C 
ENDBRANCH  15  16
ENDBRANCH   3  15
TORSDOF 4
ENDMDL
MODEL 2
REMARK VINA RESULT:      -6.8      0.846      1.365
REMARK  Name = 
REMARK  9 active torsions:
REMARK  status: ('A' for Active; 'I' for Inactive)
REMARK    1  A    between atoms: C_1  and  C_2
REMARK    2  A    between atoms: C_2  and  C_3
REMARK    3  A    between atoms: C_4  and  C_5
REMARK    4  A    between atoms: C_5  and  N_6
REMARK    5  A    between atoms: C_8  and  C_9
REMARK    6  A    between atoms: C_9  and  N_10
REMARK    7  A    between atoms: N_10  and  C_11
REMARK    8  A    between atoms: N_10  and  C_12
REMARK    9  A    between atoms: N_10  and  C_13
REMARK                            x       y       z     vdW  Elec       q    Type
REMARK                         _______ _______ _______ _____ _____    ______ ____
ROOT
ATOM      1  N   UNL     1       5.546   4.631  15.829  0.00  0.00    +0.000 N 
ATOM      2  C   UNL     1       4.560   3.798  16.244  0.00  0.00    +0.000 A 
ATOM      3  C   UNL     1       4.542   3.734  17.634  0.00  0.00    +0.000 A 
ATOM      4  C   UNL     1       5.564   4.565  18.063  0.00  0.00    +0.000 A 
ATOM      5  C   UNL     1       6.011   4.892  19.347  0.00  0.00    +0.000 A 
ATOM      6  C   UNL     1       7.102   5.774  19.460  0.00  0.00    +0.000 A 
ATOM      7  C   UNL     1       7.714   6.309  18.306  0.00  0.00    +0.000 A 
ATOM      8  C   UNL     1       7.241   5.971  17.028  0.00  0.00    +0.000 A 
ATOM      9  C   UNL     1       6.156   5.092  16.940  0.00  0.00    +0.000 A 
ENDROOT
BRANCH   1  10
ATOM     10  C   UNL     1       5.858   4.946  14.436  0.00  0.00    +0.000 C 
BRANCH  10  14
ATOM     11  C   UNL     1       5.633   2.285  11.629  0.00  0.00    +0.000 C 
ATOM     12  C   UNL     1       6.107   3.480  12.411  0.00  0.00    +0.000 C 
ATOM     13  C   UNL     1       7.275   4.297  11.910  0.00  0.00    +0.000 C 
ATOM     14  C   UNL     1       5.468   3.791  13.556  0.00  0.00    +0.000 C 
ENDBRANCH  10  14
ENDBRANCH   1  10
BRANCH   3  15
ATOM     15  C   UNL     1       3.550   2.955  18.472  0.00  0.00    +0.000 C 
BRANCH  15  16
ATOM     16  N   UNL     1       2.328   3.710  18.882  0.00  0.00    +0.000 N 
ATOM     17  C   UNL     1       2.084   4.872  17.995  0.00  0.00    +0.000 C 
ATOM     18  C   UNL     1       1.137   2.828  18.882  0.00  0.00    +0.000 C 
ATOM     19  C   UNL     1       2.536   4.214  20.262  0.00  0.00    +0.000 C 
ENDBRANCH  15  16
ENDBRANCH   3  15
TORSDOF 4
ENDMDL
MODEL 3
REMARK VINA RESULT:      -6.8      0.676      1.193
REMARK  Name = 
REMARK  9 active torsions:
REMARK  status: ('A' for Active; 'I' for Inactive)
REMARK    1  A    between atoms: C_1  and  C_2
REMARK    2  A    between atoms: C_2  and  C_3
REMARK    3  A    between atoms: C_4  and  C_5
REMARK    4  A    between atoms: C_5  and  N_6
REMARK    5  A    between atoms: C_8  and  C_9
REMARK    6  A    between atoms: C_9  and  N_10
REMARK    7  A    between atoms: N_10  and  C_11
REMARK    8  A    between atoms: N_10  and  C_12
REMARK    9  A    between atoms: N_10  and  C_13
REMARK                            x       y       z     vdW  Elec       q    Type
REMARK                         _______ _______ _______ _____ _____    ______ ____
ROOT
ATOM      1  N   UNL     1       5.779   4.410  15.839  0.00  0.00    +0.000 N 
ATOM      2  C   UNL     1       4.749   3.609  16.206  0.00  0.00    +0.000 A 
ATOM      3  C   UNL     1       4.598   3.628  17.589  0.00  0.00    +0.000 A 
ATOM      4  C   UNL     1       5.584   4.477  18.065  0.00  0.00    +0.000 A 
ATOM      5  C   UNL     1       5.911   4.876  19.364  0.00  0.00    +0.000 A 
ATOM      6  C   UNL     1       6.997   5.756  19.529  0.00  0.00    +0.000 A 
ATOM      7  C   UNL     1       7.723   6.218  18.410  0.00  0.00    +0.000 A 
ATOM      8  C   UNL     1       7.369   5.808  17.114  0.00  0.00    +0.000 A 
ATOM      9  C   UNL     1       6.287   4.932  16.974  0.00  0.00    +0.000 A 
ENDROOT
BRANCH   1  10
ATOM     10  C   UNL     1       6.226   4.640  14.466  0.00  0.00    +0.000 C 
BRANCH  10  14
ATOM     11  C   UNL     1       4.498   2.956  11.434  0.00  0.00    +0.000 C 
ATOM     12  C   UNL     1       5.579   3.550  12.298  0.00  0.00    +0.000 C 
ATOM     13  C   UNL     1       7.007   3.582  11.805  0.00  0.00    +0.000 C 
ATOM     14  C   UNL     1       5.238   4.041  13.504  0.00  0.00    +0.000 C 
ENDBRANCH  10  14
ENDBRANCH   1  10
BRANCH   3  15
ATOM     15  C   UNL     1       3.522   2.906  18.373  0.00  0.00    +0.000 C 
BRANCH  15  16
ATOM     16  N   UNL     1       2.362   3.749  18.790  0.00  0.00    +0.000 N 
ATOM     17  C   UNL     1       2.499   4.207  20.193  0.00  0.00    +0.000 C 
ATOM     18  C   UNL     1       2.214   4.923  17.898  0.00  0.00    +0.000 C 
ATOM     19  C   UNL     1       1.131   2.927  18.688  0.00  0.00    +0.000 C 
ENDBRANCH  15  16
ENDBRANCH   3  15
TORSDOF 4
ENDMDL
MODEL 4
REMARK VINA RESULT:      -6.7      3.370      7.214
REMARK  Name = 
REMARK  9 active torsions:
REMARK  status: ('A' for Active; 'I' for Inactive)
REMARK    1  A    between atoms: C_1  and  C_2
REMARK    2  A    between atoms: C_2  and  C_3
REMARK    3  A    between atoms: C_4  and  C_5
REMARK    4  A    between atoms: C_5  and  N_6
REMARK    5  A    between atoms: C_8  and  C_9
REMARK    6  A    between atoms: C_9  and  N_10
REMARK    7  A    between atoms: N_10  and  C_11
REMARK    8  A    between atoms: N_10  and  C_12
REMARK    9  A    between atoms: N_10  and  C_13
REMARK                            x       y       z     vdW  Elec       q    Type
REMARK                         _______ _______ _______ _____ _____    ______ ____
ROOT
ATOM      1  N   UNL     1       2.226   6.127  19.731  0.00  0.00    +0.000 N 
ATOM      2  C   UNL     1       3.195   6.541  18.878  0.00  0.00    +0.000 A 
ATOM      3  C   UNL     1       3.522   5.518  17.993  0.00  0.00    +0.000 A 
ATOM      4  C   UNL     1       2.712   4.448  18.338  0.00  0.00    +0.000 A 
ATOM      5  C   UNL     1       2.601   3.163  17.800  0.00  0.00    +0.000 A 
ATOM      6  C   UNL     1       1.676   2.280  18.387  0.00  0.00    +0.000 A 
ATOM      7  C   UNL     1       0.888   2.692  19.483  0.00  0.00    +0.000 A 
ATOM      8  C   UNL     1       1.012   3.992  20.001  0.00  0.00    +0.000 A 
ATOM      9  C   UNL     1       1.939   4.852  19.401  0.00  0.00    +0.000 A 
ENDROOT
BRANCH   1  10
ATOM     10  C   UNL     1       1.631   6.937  20.793  0.00  0.00    +0.000 C 
BRANCH  10  14
ATOM     11  C   UNL     1       0.610  10.647  20.337  0.00  0.00    +0.000 C 
ATOM     12  C   UNL     1       0.636   9.242  20.877  0.00  0.00    +0.000 C 
ATOM     13  C   UNL     1      -0.287   8.850  22.007  0.00  0.00    +0.000 C 
ATOM     14  C   UNL     1       1.496   8.361  20.330  0.00  0.00    +0.000 C 
ENDBRANCH  10  14
ENDBRANCH   1  10
BRANCH   3  15
ATOM     15  C   UNL     1       4.519   5.614  16.857  0.00  0.00    +0.000 C 
BRANCH  15  16
ATOM     16  N   UNL     1       5.946   5.392  17.239  0.00  0.00    +0.000 N 
ATOM     17  C   UNL     1       6.059   4.734  18.562  0.00  0.00    +0.000 C 
ATOM     18  C   UNL     1       6.645   4.575  16.218  0.00  0.00    +0.000 C 
ATOM     19  C   UNL     1       6.616   6.714  17.318  0.00  0.00    +0.000 C 
ENDBRANCH  15  16
ENDBRANCH   3  15
TORSDOF 4
ENDMDL
MODEL 5
REMARK VINA RESULT:      -6.4      3.480      5.440
REMARK  Name = 
REMARK  9 active torsions:
REMARK  status: ('A' for Active; 'I' for Inactive)
REMARK    1  A    between atoms: C_1  and  C_2
REMARK    2  A    between atoms: C_2  and  C_3
REMARK    3  A    between atoms: C_4  and  C_5
REMARK    4  A    between atoms: C_5  and  N_6
REMARK    5  A    between atoms: C_8  and  C_9
REMARK    6  A    between atoms: C_9  and  N_10
REMARK    7  A    between atoms: N_10  and  C_11
REMARK    8  A    between atoms: N_10  and  C_12
REMARK    9  A    between atoms: N_10  and  C_13
REMARK                            x       y       z     vdW  Elec       q    Type
REMARK                         _______ _______ _______ _____ _____    ______ ____
ROOT
ATOM      1  N   UNL     1       3.255   7.249  18.052  0.00  0.00    +0.000 N 
ATOM      2  C   UNL     1       2.786   6.513  19.089  0.00  0.00    +0.000 A 
ATOM      3  C   UNL     1       3.318   5.228  19.042  0.00  0.00    +0.000 A 
ATOM      4  C   UNL     1       4.138   5.200  17.927  0.00  0.00    +0.000 A 
ATOM      5  C   UNL     1       4.927   4.180  17.386  0.00  0.00    +0.000 A 
ATOM      6  C   UNL     1       5.653   4.460  16.213  0.00  0.00    +0.000 A 
ATOM      7  C   UNL     1       5.581   5.735  15.612  0.00  0.00    +0.000 A 
ATOM      8  C   UNL     1       4.787   6.745  16.180  0.00  0.00    +0.000 A 
ATOM      9  C   UNL     1       4.074   6.444  17.345  0.00  0.00    +0.000 A 
ENDROOT
BRANCH   1  10
ATOM     10  C   UNL     1       2.916   8.645  17.783  0.00  0.00    +0.000 C 
BRANCH  10  14
ATOM     11  C   UNL     1      -0.758   9.874  17.894  0.00  0.00    +0.000 C 
ATOM     12  C   UNL     1       0.731   9.839  18.117  0.00  0.00    +0.000 C 
ATOM     13  C   UNL     1       1.410  10.967  18.857  0.00  0.00    +0.000 C 
ATOM     14  C   UNL     1       1.425   8.787  17.642  0.00  0.00    +0.000 C 
ENDBRANCH  10  14
ENDBRANCH   1  10
BRANCH   3  15
ATOM     15  C   UNL     1       3.077   4.131  20.060  0.00  0.00    +0.000 C 
BRANCH  15  16
ATOM     16  N   UNL     1       2.093   3.085  19.650  0.00  0.00    +0.000 N 
ATOM     17  C   UNL     1       1.173   3.585  18.601  0.00  0.00    +0.000 C 
ATOM     18  C   UNL     1       2.788   1.870  19.160  0.00  0.00    +0.000 C 
ATOM     19  C   UNL     1       1.287   2.715  20.839  0.00  0.00    +0.000 C 
ENDBRANCH  15  16
ENDBRANCH   3  15
TORSDOF 4
ENDMDL
MODEL 6
REMARK VINA RESULT:      -6.4      0.957      1.469
REMARK  Name = 
REMARK  9 active torsions:
REMARK  status: ('A' for Active; 'I' for Inactive)
REMARK    1  A    between atoms: C_1  and  C_2
REMARK    2  A    between atoms: C_2  and  C_3
REMARK    3  A    between atoms: C_4  and  C_5
REMARK    4  A    between atoms: C_5  and  N_6
REMARK    5  A    between atoms: C_8  and  C_9
REMARK    6  A    between atoms: C_9  and  N_10
REMARK    7  A    between atoms: N_10  and  C_11
REMARK    8  A    between atoms: N_10  and  C_12
REMARK    9  A    between atoms: N_10  and  C_13
REMARK                            x       y       z     vdW  Elec       q    Type
REMARK                         _______ _______ _______ _____ _____    ______ ____
ROOT
ATOM      1  N   UNL     1       5.207   3.945  16.216  0.00  0.00    +0.000 N 
ATOM      2  C   UNL     1       3.925   3.981  16.655  0.00  0.00    +0.000 A 
ATOM      3  C   UNL     1       3.871   4.540  17.928  0.00  0.00    +0.000 A 
ATOM      4  C   UNL     1       5.180   4.848  18.261  0.00  0.00    +0.000 A 
ATOM      5  C   UNL     1       5.730   5.426  19.408  0.00  0.00    +0.000 A 
ATOM      6  C   UNL     1       7.125   5.603  19.454  0.00  0.00    +0.000 A 
ATOM      7  C   UNL     1       7.934   5.207  18.367  0.00  0.00    +0.000 A 
ATOM      8  C   UNL     1       7.356   4.636  17.221  0.00  0.00    +0.000 A 
ATOM      9  C   UNL     1       5.967   4.469  17.199  0.00  0.00    +0.000 A 
ENDROOT
BRANCH   1  10
ATOM     10  C   UNL     1       5.645   3.429  14.920  0.00  0.00    +0.000 C 
BRANCH  10  14
ATOM     11  C   UNL     1       7.809   5.438  12.411  0.00  0.00    +0.000 C 
ATOM     12  C   UNL     1       6.905   4.367  12.959  0.00  0.00    +0.000 C 
ATOM     13  C   UNL     1       6.410   3.261  12.057  0.00  0.00    +0.000 C 
ATOM     14  C   UNL     1       6.557   4.426  14.259  0.00  0.00    +0.000 C 
ENDBRANCH  10  14
ENDBRANCH   1  10
BRANCH   3  15
ATOM     15  C   UNL     1       2.612   4.803  18.728  0.00  0.00    +0.000 C 
BRANCH  15  16
ATOM     16  N   UNL     1       2.052   3.618  19.445  0.00  0.00    +0.000 N 
ATOM     17  C   UNL     1       1.167   2.818  18.565  0.00  0.00    +0.000 C 
ATOM     18  C   UNL     1       3.138   2.756  19.969  0.00  0.00    +0.000 C 
ATOM     19  C   UNL     1       1.249   4.107  20.592  0.00  0.00    +0.000 C 
ENDBRANCH  15  16
ENDBRANCH   3  15
TORSDOF 4
ENDMDL
MODEL 7
REMARK VINA RESULT:      -6.4      3.473      5.367
REMARK  Name = 
REMARK  9 active torsions:
REMARK  status: ('A' for Active; 'I' for Inactive)
REMARK    1  A    between atoms: C_1  and  C_2
REMARK    2  A    between atoms: C_2  and  C_3
REMARK    3  A    between atoms: C_4  and  C_5
REMARK    4  A    between atoms: C_5  and  N_6
REMARK    5  A    between atoms: C_8  and  C_9
REMARK    6  A    between atoms: C_9  and  N_10
REMARK    7  A    between atoms: N_10  and  C_11
REMARK    8  A    between atoms: N_10  and  C_12
REMARK    9  A    between atoms: N_10  and  C_13
REMARK                            x       y       z     vdW  Elec       q    Type
REMARK                         _______ _______ _______ _____ _____    ______ ____
ROOT
ATOM      1  N   UNL     1       3.361   7.164  17.919  0.00  0.00    +0.000 N 
ATOM      2  C   UNL     1       2.890   6.441  18.964  0.00  0.00    +0.000 A 
ATOM      3  C   UNL     1       3.413   5.152  18.927  0.00  0.00    +0.000 A 
ATOM      4  C   UNL     1       4.230   5.108  17.809  0.00  0.00    +0.000 A 
ATOM      5  C   UNL     1       5.010   4.078  17.275  0.00  0.00    +0.000 A 
ATOM      6  C   UNL     1       5.733   4.342  16.098  0.00  0.00    +0.000 A 
ATOM      7  C   UNL     1       5.668   5.612  15.485  0.00  0.00    +0.000 A 
ATOM      8  C   UNL     1       4.883   6.633  16.046  0.00  0.00    +0.000 A 
ATOM      9  C   UNL     1       4.172   6.347  17.217  0.00  0.00    +0.000 A 
ENDROOT
BRANCH   1  10
ATOM     10  C   UNL     1       3.031   8.561  17.638  0.00  0.00    +0.000 C 
BRANCH  10  14
ATOM     11  C   UNL     1      -0.411  10.128  18.481  0.00  0.00    +0.000 C 
ATOM     12  C   UNL     1       1.071  10.011  18.242  0.00  0.00    +0.000 C 
ATOM     13  C   UNL     1       1.955  11.230  18.364  0.00  0.00    +0.000 C 
ATOM     14  C   UNL     1       1.574   8.804  17.920  0.00  0.00    +0.000 C 
ENDBRANCH  10  14
ENDBRANCH   1  10
BRANCH   3  15
ATOM     15  C   UNL     1       3.168   4.067  19.955  0.00  0.00    +0.000 C 
BRANCH  15  16
ATOM     16  N   UNL     1       2.139   3.051  19.579  0.00  0.00    +0.000 N 
ATOM     17  C   UNL     1       2.762   1.831  19.013  0.00  0.00    +0.000 C 
ATOM     18  C   UNL     1       1.306   2.684  20.749  0.00  0.00    +0.000 C 
ATOM     19  C   UNL     1       1.257   3.646  18.545  0.00  0.00    +0.000 C 
ENDBRANCH  15  16
ENDBRANCH   3  15
TORSDOF 4
ENDMDL
MODEL 8
REMARK VINA RESULT:      -6.4      2.950      6.844
REMARK  Name = 
REMARK  9 active torsions:
REMARK  status: ('A' for Active; 'I' for Inactive)
REMARK    1  A    between atoms: C_1  and  C_2
REMARK    2  A    between atoms: C_2  and  C_3
REMARK    3  A    between atoms: C_4  and  C_5
REMARK    4  A    between atoms: C_5  and  N_6
REMARK    5  A    between atoms: C_8  and  C_9
REMARK    6  A    between atoms: C_9  and  N_10
REMARK    7  A    between atoms: N_10  and  C_11
REMARK    8  A    between atoms: N_10  and  C_12
REMARK    9  A    between atoms: N_10  and  C_13
REMARK                            x       y       z     vdW  Elec       q    Type
REMARK                         _______ _______ _______ _____ _____    ______ ____
ROOT
ATOM      1  N   UNL     1       2.906   5.601  19.728  0.00  0.00    +0.000 N 
ATOM      2  C   UNL     1       4.211   5.800  19.423  0.00  0.00    +0.000 A 
ATOM      3  C   UNL     1       4.690   4.741  18.657  0.00  0.00    +0.000 A 
ATOM      4  C   UNL     1       3.620   3.874  18.502  0.00  0.00    +0.000 A 
ATOM      5  C   UNL     1       3.512   2.653  17.831  0.00  0.00    +0.000 A 
ATOM      6  C   UNL     1       2.270   1.991  17.865  0.00  0.00    +0.000 A 
ATOM      7  C   UNL     1       1.176   2.553  18.557  0.00  0.00    +0.000 A 
ATOM      8  C   UNL     1       1.309   3.786  19.217  0.00  0.00    +0.000 A 
ATOM      9  C   UNL     1       2.552   4.426  19.170  0.00  0.00    +0.000 A 
ENDROOT
BRANCH   1  10
ATOM     10  C   UNL     1       2.072   6.508  20.515  0.00  0.00    +0.000 C 
BRANCH  10  14
ATOM     11  C   UNL     1       1.045  10.073  19.395  0.00  0.00    +0.000 C 
ATOM     12  C   UNL     1       1.137   8.822  20.228  0.00  0.00    +0.000 C 
ATOM     13  C   UNL     1       0.402   8.736  21.545  0.00  0.00    +0.000 C 
ATOM     14  C   UNL     1       1.885   7.801  19.769  0.00  0.00    +0.000 C 
ENDBRANCH  10  14
ENDBRANCH   1  10
BRANCH   3  15
ATOM     15  C   UNL     1       6.083   4.628  18.075  0.00  0.00    +0.000 C 
BRANCH  15  16
ATOM     16  N   UNL     1       6.355   5.502  16.895  0.00  0.00    +0.000 N 
ATOM     17  C   UNL     1       5.098   5.959  16.256  0.00  0.00    +0.000 C 
ATOM     18  C   UNL     1       7.169   6.678  17.284  0.00  0.00    +0.000 C 
ATOM     19  C   UNL     1       7.122   4.712  15.900  0.00  0.00    +0.000 C 
ENDBRANCH  15  16
ENDBRANCH   3  15
TORSDOF 4
ENDMDL
MODEL 9
REMARK VINA RESULT:      -6.4      1.834      2.632
REMARK  Name = 
REMARK  9 active torsions:
REMARK  status: ('A' for Active; 'I' for Inactive)
REMARK    1  A    between atoms: C_1  and  C_2
REMARK    2  A    between atoms: C_2  and  C_3
REMARK    3  A    between atoms: C_4  and  C_5
REMARK    4  A    between atoms: C_5  and  N_6
REMARK    5  A    between atoms: C_8  and  C_9
REMARK    6  A    between atoms: C_9  and  N_10
REMARK    7  A    between atoms: N_10  and  C_11
REMARK    8  A    between atoms: N_10  and  C_12
REMARK    9  A    between atoms: N_10  and  C_13
REMARK                            x       y       z     vdW  Elec       q    Type
REMARK                         _______ _______ _______ _____ _____    ______ ____
ROOT
ATOM      1  N   UNL     1       4.931   4.396  16.919  0.00  0.00    +0.000 N 
ATOM      2  C   UNL     1       4.201   3.462  17.576  0.00  0.00    +0.000 A 
ATOM      3  C   UNL     1       3.130   4.065  18.228  0.00  0.00    +0.000 A 
ATOM      4  C   UNL     1       3.231   5.418  17.947  0.00  0.00    +0.000 A 
ATOM      5  C   UNL     1       2.436   6.502  18.330  0.00  0.00    +0.000 A 
ATOM      6  C   UNL     1       2.810   7.783  17.885  0.00  0.00    +0.000 A 
ATOM      7  C   UNL     1       3.953   7.956  17.074  0.00  0.00    +0.000 A 
ATOM      8  C   UNL     1       4.730   6.849  16.696  0.00  0.00    +0.000 A 
ATOM      9  C   UNL     1       4.339   5.585  17.152  0.00  0.00    +0.000 A 
ENDROOT
BRANCH   1  10
ATOM     10  C   UNL     1       6.127   4.129  16.120  0.00  0.00    +0.000 C 
BRANCH  10  14
ATOM     11  C   UNL     1       5.836   3.372  12.330  0.00  0.00    +0.000 C 
ATOM     12  C   UNL     1       6.314   3.988  13.619  0.00  0.00    +0.000 C 
ATOM     13  C   UNL     1       7.427   5.008  13.601  0.00  0.00    +0.000 C 
ATOM     14  C   UNL     1       5.726   3.604  14.768  0.00  0.00    +0.000 C 
ENDBRANCH  10  14
ENDBRANCH   1  10
BRANCH   3  15
ATOM     15  C   UNL     1       2.058   3.347  19.021  0.00  0.00    +0.000 C 
BRANCH  15  16
ATOM     16  N   UNL     1       2.322   3.221  20.485  0.00  0.00    +0.000 N 
ATOM     17  C   UNL     1       1.248   2.460  21.168  0.00  0.00    +0.000 C 
ATOM     18  C   UNL     1       3.627   2.563  20.732  0.00  0.00    +0.000 C 
ATOM     19  C   UNL     1       2.368   4.585  21.067  0.00  0.00    +0.000 C 
ENDBRANCH  15  16
ENDBRANCH   3  15
TORSDOF 4
ENDMDL
