MODEL 1
REMARK VINA RESULT:      -7.4      0.000      0.000
REMARK  Name = 
REMARK  12 active torsions:
REMARK  status: ('A' for Active; 'I' for Inactive)
REMARK    1  A    between atoms: C_1  and  O_2
REMARK    2  A    between atoms: O_2  and  C_3
REMARK    3  A    between atoms: C_6  and  C_7
REMARK    4  A    between atoms: C_8  and  C_9
REMARK    5  A    between atoms: C_9  and  C_10
REMARK    6  A    between atoms: N_11  and  O_12
REMARK    7  A    between atoms: O_12  and  C_13
REMARK    8  A    between atoms: C_13  and  C_14
REMARK    9  A    between atoms: C_13  and  C_15
REMARK   10  A    between atoms: N_17  and  C_18
REMARK   11  A    between atoms: C_18  and  C_19
REMARK   12  A    between atoms: C_18  and  C_20
REMARK                            x       y       z     vdW  Elec       q    Type
REMARK                         _______ _______ _______ _____ _____    ______ ____
ROOT
ATOM      1  C   UNL     1       7.734   7.151  17.664  0.00  0.00    +0.000 C 
ATOM      2  C   UNL     1       7.703   6.207  18.851  0.00  0.00    +0.000 C 
ATOM      3  N   UNL     1       7.438   6.747  16.454  0.00  0.00    +0.000 NA
ENDROOT
BRANCH   1   5
ATOM      4  C   UNL     1       8.891   9.102  18.791  0.00  0.00    +0.000 C 
ATOM      5  C   UNL     1       8.088   8.599  17.839  0.00  0.00    +0.000 C 
BRANCH   4   9
ATOM      6  C   UNL     1       9.657  13.309  19.233  0.00  0.00    +0.000 A 
ATOM      7  C   UNL     1       9.104  12.793  18.061  0.00  0.00    +0.000 A 
ATOM      8  C   UNL     1       8.856  11.423  17.934  0.00  0.00    +0.000 A 
ATOM      9  C   UNL     1       9.185  10.537  18.969  0.00  0.00    +0.000 A 
ATOM     10  C   UNL     1       9.734  11.062  20.144  0.00  0.00    +0.000 A 
ATOM     11  C   UNL     1       9.974  12.438  20.274  0.00  0.00    +0.000 A 
BRANCH   6  13
ATOM     12  C   UNL     1      10.767  15.146  18.234  0.00  0.00    +0.000 C 
ATOM     13  O   UNL     1       9.873  14.658  19.228  0.00  0.00    +0.000 OA
ENDBRANCH   6  13
ENDBRANCH   4   9
ENDBRANCH   1   5
BRANCH   3  14
ATOM     14  O   UNL     1       7.122   5.374  16.448  0.00  0.00    +0.000 OA
BRANCH  14  15
ATOM     15  C   UNL     1       5.990   5.128  15.610  0.00  0.00    +0.000 C 
ATOM     16  C   UNL     1       6.248   3.911  14.732  0.00  0.00    +0.000 C 
BRANCH  15  17
ATOM     17  C   UNL     1       4.787   4.887  16.536  0.00  0.00    +0.000 C 
ATOM     18  O   UNL     1       4.215   3.803  16.638  0.00  0.00    +0.000 OA
ATOM     19  N   UNL     1       4.373   6.012  17.229  0.00  0.00    +0.000 N 
ATOM     20  H   UNL     1       4.825   6.896  17.018  0.00  0.00    +0.000 HD
BRANCH  19  21
ATOM     21  C   UNL     1       3.243   5.980  18.145  0.00  0.00    +0.000 C 
ATOM     22  C   UNL     1       3.701   5.562  19.539  0.00  0.00    +0.000 C 
ATOM     23  C   UNL     1       2.534   7.331  18.190  0.00  0.00    +0.000 C 
ENDBRANCH  19  21
ENDBRANCH  15  17
ENDBRANCH  14  15
ENDBRANCH   3  14
TORSDOF 7
ENDMDL
MODEL 2
REMARK VINA RESULT:      -7.4      1.370      1.692
REMARK  Name = 
REMARK  12 active torsions:
REMARK  status: ('A' for Active; 'I' for Inactive)
REMARK    1  A    between atoms: C_1  and  O_2
REMARK    2  A    between atoms: O_2  and  C_3
REMARK    3  A    between atoms: C_6  and  C_7
REMARK    4  A    between atoms: C_8  and  C_9
REMARK    5  A    between atoms: C_9  and  C_10
REMARK    6  A    between atoms: N_11  and  O_12
REMARK    7  A    between atoms: O_12  and  C_13
REMARK    8  A    between atoms: C_13  and  C_14
REMARK    9  A    between atoms: C_13  and  C_15
REMARK   10  A    between atoms: N_17  and  C_18
REMARK   11  A    between atoms: C_18  and  C_19
REMARK   12  A    between atoms: C_18  and  C_20
REMARK                            x       y       z     vdW  Elec       q    Type
REMARK                         _______ _______ _______ _____ _____    ______ ____
ROOT
ATOM      1  C   UNL     1       7.698   7.069  17.698  0.00  0.00    +0.000 C 
ATOM      2  C   UNL     1       7.688   6.063  18.833  0.00  0.00    +0.000 C 
ATOM      3  N   UNL     1       7.449   6.716  16.463  0.00  0.00    +0.000 NA
ENDROOT
BRANCH   1   5
ATOM      4  C   UNL     1       8.924   9.007  18.773  0.00  0.00    +0.000 C 
ATOM      5  C   UNL     1       7.974   8.522  17.957  0.00  0.00    +0.000 C 
BRANCH   4   9
ATOM      6  C   UNL     1       9.493  13.211  19.472  0.00  0.00    +0.000 A 
ATOM      7  C   UNL     1       9.234  12.718  18.194  0.00  0.00    +0.000 A 
ATOM      8  C   UNL     1       9.046  11.349  17.983  0.00  0.00    +0.000 A 
ATOM      9  C   UNL     1       9.143  10.440  19.046  0.00  0.00    +0.000 A 
ATOM     10  C   UNL     1       9.398  10.943  20.327  0.00  0.00    +0.000 A 
ATOM     11  C   UNL     1       9.578  12.317  20.539  0.00  0.00    +0.000 A 
BRANCH   6  13
ATOM     12  C   UNL     1      10.912  14.993  20.115  0.00  0.00    +0.000 C 
ATOM     13  O   UNL     1       9.682  14.562  19.546  0.00  0.00    +0.000 OA
ENDBRANCH   6  13
ENDBRANCH   4   9
ENDBRANCH   1   5
BRANCH   3  14
ATOM     14  O   UNL     1       7.203   5.331  16.377  0.00  0.00    +0.000 OA
BRANCH  14  15
ATOM     15  C   UNL     1       5.992   5.085  15.657  0.00  0.00    +0.000 C 
ATOM     16  C   UNL     1       6.148   3.841  14.792  0.00  0.00    +0.000 C 
BRANCH  15  17
ATOM     17  C   UNL     1       4.880   4.889  16.699  0.00  0.00    +0.000 C 
ATOM     18  O   UNL     1       4.123   5.788  17.061  0.00  0.00    +0.000 OA
ATOM     19  N   UNL     1       4.823   3.612  17.233  0.00  0.00    +0.000 N 
ATOM     20  H   UNL     1       5.545   2.951  16.965  0.00  0.00    +0.000 HD
BRANCH  19  21
ATOM     21  C   UNL     1       3.842   3.242  18.242  0.00  0.00    +0.000 C 
ATOM     22  C   UNL     1       3.074   1.999  17.805  0.00  0.00    +0.000 C 
ATOM     23  C   UNL     1       4.508   3.020  19.598  0.00  0.00    +0.000 C 
ENDBRANCH  19  21
ENDBRANCH  15  17
ENDBRANCH  14  15
ENDBRANCH   3  14
TORSDOF 7
ENDMDL
MODEL 3
REMARK VINA RESULT:      -7.4      1.328      1.952
REMARK  Name = 
REMARK  12 active torsions:
REMARK  status: ('A' for Active; 'I' for Inactive)
REMARK    1  A    between atoms: C_1  and  O_2
REMARK    2  A    between atoms: O_2  and  C_3
REMARK    3  A    between atoms: C_6  and  C_7
REMARK    4  A    between atoms: C_8  and  C_9
REMARK    5  A    between atoms: C_9  and  C_10
REMARK    6  A    between atoms: N_11  and  O_12
REMARK    7  A    between atoms: O_12  and  C_13
REMARK    8  A    between atoms: C_13  and  C_14
REMARK    9  A    between atoms: C_13  and  C_15
REMARK   10  A    between atoms: N_17  and  C_18
REMARK   11  A    between atoms: C_18  and  C_19
REMARK   12  A    between atoms: C_18  and  C_20
REMARK                            x       y       z     vdW  Elec       q    Type
REMARK                         _______ _______ _______ _____ _____    ______ ____
ROOT
ATOM      1  C   UNL     1       7.775   7.150  17.665  0.00  0.00    +0.000 C 
ATOM      2  C   UNL     1       7.739   6.232  18.872  0.00  0.00    +0.000 C 
ATOM      3  N   UNL     1       7.498   6.717  16.461  0.00  0.00    +0.000 NA
ENDROOT
BRANCH   1   5
ATOM      4  C   UNL     1       8.870   9.142  18.782  0.00  0.00    +0.000 C 
ATOM      5  C   UNL     1       8.111   8.606  17.813  0.00  0.00    +0.000 C 
BRANCH   4   9
ATOM      6  C   UNL     1       9.763  13.316  19.296  0.00  0.00    +0.000 A 
ATOM      7  C   UNL     1      10.024  12.391  20.306  0.00  0.00    +0.000 A 
ATOM      8  C   UNL     1       9.733  11.035  20.122  0.00  0.00    +0.000 A 
ATOM      9  C   UNL     1       9.146  10.584  18.931  0.00  0.00    +0.000 A 
ATOM     10  C   UNL     1       8.892  11.518  17.921  0.00  0.00    +0.000 A 
ATOM     11  C   UNL     1       9.193  12.875  18.103  0.00  0.00    +0.000 A 
BRANCH   6  13
ATOM     12  C   UNL     1      11.147  15.191  18.877  0.00  0.00    +0.000 C 
ATOM     13  O   UNL     1      10.069  14.612  19.603  0.00  0.00    +0.000 OA
ENDBRANCH   6  13
ENDBRANCH   4   9
ENDBRANCH   1   5
BRANCH   3  14
ATOM     14  O   UNL     1       7.196   5.341  16.481  0.00  0.00    +0.000 OA
BRANCH  14  15
ATOM     15  C   UNL     1       5.998   5.083  15.746  0.00  0.00    +0.000 C 
ATOM     16  C   UNL     1       6.165   3.825  14.905  0.00  0.00    +0.000 C 
BRANCH  15  17
ATOM     17  C   UNL     1       4.868   4.907  16.773  0.00  0.00    +0.000 C 
ATOM     18  O   UNL     1       4.100   5.810  17.099  0.00  0.00    +0.000 OA
ATOM     19  N   UNL     1       4.808   3.644  17.336  0.00  0.00    +0.000 N 
ATOM     20  H   UNL     1       5.538   2.980  17.098  0.00  0.00    +0.000 HD
BRANCH  19  21
ATOM     21  C   UNL     1       3.812   3.293  18.337  0.00  0.00    +0.000 C 
ATOM     22  C   UNL     1       2.714   2.436  17.716  0.00  0.00    +0.000 C 
ATOM     23  C   UNL     1       4.453   2.576  19.523  0.00  0.00    +0.000 C 
ENDBRANCH  19  21
ENDBRANCH  15  17
ENDBRANCH  14  15
ENDBRANCH   3  14
TORSDOF 7
ENDMDL
MODEL 4
REMARK VINA RESULT:      -7.2      1.441      1.972
REMARK  Name = 
REMARK  12 active torsions:
REMARK  status: ('A' for Active; 'I' for Inactive)
REMARK    1  A    between atoms: C_1  and  O_2
REMARK    2  A    between atoms: O_2  and  C_3
REMARK    3  A    between atoms: C_6  and  C_7
REMARK    4  A    between atoms: C_8  and  C_9
REMARK    5  A    between atoms: C_9  and  C_10
REMARK    6  A    between atoms: N_11  and  O_12
REMARK    7  A    between atoms: O_12  and  C_13
REMARK    8  A    between atoms: C_13  and  C_14
REMARK    9  A    between atoms: C_13  and  C_15
REMARK   10  A    between atoms: N_17  and  C_18
REMARK   11  A    between atoms: C_18  and  C_19
REMARK   12  A    between atoms: C_18  and  C_20
REMARK                            x       y       z     vdW  Elec       q    Type
REMARK                         _______ _______ _______ _____ _____    ______ ____
ROOT
ATOM      1  C   UNL     1       7.913   7.002  18.161  0.00  0.00    +0.000 C 
ATOM      2  C   UNL     1       7.792   5.815  19.098  0.00  0.00    +0.000 C 
ATOM      3  N   UNL     1       7.480   6.953  16.928  0.00  0.00    +0.000 NA
ENDROOT
BRANCH   1   5
ATOM      4  C   UNL     1       8.381   9.488  18.030  0.00  0.00    +0.000 C 
ATOM      5  C   UNL     1       8.519   8.294  18.628  0.00  0.00    +0.000 C 
BRANCH   4   9
ATOM      6  C   UNL     1      10.354  13.052  19.403  0.00  0.00    +0.000 A 
ATOM      7  C   UNL     1      10.515  11.836  20.064  0.00  0.00    +0.000 A 
ATOM      8  C   UNL     1       9.870  10.684  19.603  0.00  0.00    +0.000 A 
ATOM      9  C   UNL     1       9.027  10.734  18.484  0.00  0.00    +0.000 A 
ATOM     10  C   UNL     1       8.875  11.957  17.822  0.00  0.00    +0.000 A 
ATOM     11  C   UNL     1       9.528  13.110  18.281  0.00  0.00    +0.000 A 
BRANCH   6  13
ATOM     12  C   UNL     1      10.868  15.361  19.302  0.00  0.00    +0.000 C 
ATOM     13  O   UNL     1      11.014  14.109  19.962  0.00  0.00    +0.000 OA
ENDBRANCH   6  13
ENDBRANCH   4   9
ENDBRANCH   1   5
BRANCH   3  14
ATOM     14  O   UNL     1       6.933   5.687  16.638  0.00  0.00    +0.000 OA
BRANCH  14  15
ATOM     15  C   UNL     1       5.618   5.825  16.093  0.00  0.00    +0.000 C 
ATOM     16  C   UNL     1       5.456   4.907  14.890  0.00  0.00    +0.000 C 
BRANCH  15  17
ATOM     17  C   UNL     1       4.628   5.447  17.206  0.00  0.00    +0.000 C 
ATOM     18  O   UNL     1       4.475   6.108  18.232  0.00  0.00    +0.000 OA
ATOM     19  N   UNL     1       3.940   4.268  16.974  0.00  0.00    +0.000 N 
ATOM     20  H   UNL     1       4.191   3.722  16.157  0.00  0.00    +0.000 HD
BRANCH  19  21
ATOM     21  C   UNL     1       2.967   3.745  17.922  0.00  0.00    +0.000 C 
ATOM     22  C   UNL     1       1.583   4.316  17.634  0.00  0.00    +0.000 C 
ATOM     23  C   UNL     1       2.941   2.218  17.894  0.00  0.00    +0.000 C 
ENDBRANCH  19  21
ENDBRANCH  15  17
ENDBRANCH  14  15
ENDBRANCH   3  14
TORSDOF 7
ENDMDL
MODEL 5
REMARK VINA RESULT:      -7.2      0.669      1.339
REMARK  Name = 
REMARK  12 active torsions:
REMARK  status: ('A' for Active; 'I' for Inactive)
REMARK    1  A    between atoms: C_1  and  O_2
REMARK    2  A    between atoms: O_2  and  C_3
REMARK    3  A    between atoms: C_6  and  C_7
REMARK    4  A    between atoms: C_8  and  C_9
REMARK    5  A    between atoms: C_9  and  C_10
REMARK    6  A    between atoms: N_11  and  O_12
REMARK    7  A    between atoms: O_12  and  C_13
REMARK    8  A    between atoms: C_13  and  C_14
REMARK    9  A    between atoms: C_13  and  C_15
REMARK   10  A    between atoms: N_17  and  C_18
REMARK   11  A    between atoms: C_18  and  C_19
REMARK   12  A    between atoms: C_18  and  C_20
REMARK                            x       y       z     vdW  Elec       q    Type
REMARK                         _______ _______ _______ _____ _____    ______ ____
ROOT
ATOM      1  C   UNL     1       7.758   7.137  17.713  0.00  0.00    +0.000 C 
ATOM      2  C   UNL     1       7.799   6.153  18.867  0.00  0.00    +0.000 C 
ATOM      3  N   UNL     1       7.486   6.755  16.491  0.00  0.00    +0.000 NA
ENDROOT
BRANCH   1   5
ATOM      4  C   UNL     1       8.937   9.121  18.757  0.00  0.00    +0.000 C 
ATOM      5  C   UNL     1       8.010   8.600  17.938  0.00  0.00    +0.000 C 
BRANCH   4   9
ATOM      6  C   UNL     1       9.572  13.298  19.549  0.00  0.00    +0.000 A 
ATOM      7  C   UNL     1       9.605  12.354  20.575  0.00  0.00    +0.000 A 
ATOM      8  C   UNL     1       9.402  10.998  20.301  0.00  0.00    +0.000 A 
ATOM      9  C   UNL     1       9.132  10.564  18.995  0.00  0.00    +0.000 A 
ATOM     10  C   UNL     1       9.106  11.517  17.971  0.00  0.00    +0.000 A 
ATOM     11  C   UNL     1       9.319  12.875  18.246  0.00  0.00    +0.000 A 
BRANCH   6  13
ATOM     12  C   UNL     1       9.503  15.592  18.966  0.00  0.00    +0.000 C 
ATOM     13  O   UNL     1       9.762  14.593  19.945  0.00  0.00    +0.000 OA
ENDBRANCH   6  13
ENDBRANCH   4   9
ENDBRANCH   1   5
BRANCH   3  14
ATOM     14  O   UNL     1       7.267   5.364  16.438  0.00  0.00    +0.000 OA
BRANCH  14  15
ATOM     15  C   UNL     1       5.997   5.083  15.845  0.00  0.00    +0.000 C 
ATOM     16  C   UNL     1       6.120   3.902  14.892  0.00  0.00    +0.000 C 
BRANCH  15  17
ATOM     17  C   UNL     1       5.027   4.759  16.993  0.00  0.00    +0.000 C 
ATOM     18  O   UNL     1       5.058   3.709  17.632  0.00  0.00    +0.000 OA
ATOM     19  N   UNL     1       4.080   5.742  17.226  0.00  0.00    +0.000 N 
ATOM     20  H   UNL     1       4.048   6.534  16.593  0.00  0.00    +0.000 HD
BRANCH  19  21
ATOM     21  C   UNL     1       3.071   5.607  18.266  0.00  0.00    +0.000 C 
ATOM     22  C   UNL     1       2.597   6.981  18.729  0.00  0.00    +0.000 C 
ATOM     23  C   UNL     1       1.894   4.763  17.782  0.00  0.00    +0.000 C 
ENDBRANCH  19  21
ENDBRANCH  15  17
ENDBRANCH  14  15
ENDBRANCH   3  14
TORSDOF 7
ENDMDL
MODEL 6
REMARK VINA RESULT:      -7.1      1.467      1.757
REMARK  Name = 
REMARK  12 active torsions:
REMARK  status: ('A' for Active; 'I' for Inactive)
REMARK    1  A    between atoms: C_1  and  O_2
REMARK    2  A    between atoms: O_2  and  C_3
REMARK    3  A    between atoms: C_6  and  C_7
REMARK    4  A    between atoms: C_8  and  C_9
REMARK    5  A    between atoms: C_9  and  C_10
REMARK    6  A    between atoms: N_11  and  O_12
REMARK    7  A    between atoms: O_12  and  C_13
REMARK    8  A    between atoms: C_13  and  C_14
REMARK    9  A    between atoms: C_13  and  C_15
REMARK   10  A    between atoms: N_17  and  C_18
REMARK   11  A    between atoms: C_18  and  C_19
REMARK   12  A    between atoms: C_18  and  C_20
REMARK                            x       y       z     vdW  Elec       q    Type
REMARK                         _______ _______ _______ _____ _____    ______ ____
ROOT
ATOM      1  C   UNL     1       7.891   7.001  18.206  0.00  0.00    +0.000 C 
ATOM      2  C   UNL     1       7.801   5.736  19.039  0.00  0.00    +0.000 C 
ATOM      3  N   UNL     1       7.412   7.061  16.990  0.00  0.00    +0.000 NA
ENDROOT
BRANCH   1   5
ATOM      4  C   UNL     1       8.522   9.454  18.174  0.00  0.00    +0.000 C 
ATOM      5  C   UNL     1       8.520   8.246  18.761  0.00  0.00    +0.000 C 
BRANCH   4   9
ATOM      6  C   UNL     1      10.409  13.012  19.678  0.00  0.00    +0.000 A 
ATOM      7  C   UNL     1      10.033  12.903  18.340  0.00  0.00    +0.000 A 
ATOM      8  C   UNL     1       9.415  11.741  17.866  0.00  0.00    +0.000 A 
ATOM      9  C   UNL     1       9.188  10.652  18.719  0.00  0.00    +0.000 A 
ATOM     10  C   UNL     1       9.563  10.771  20.062  0.00  0.00    +0.000 A 
ATOM     11  C   UNL     1      10.174  11.940  20.538  0.00  0.00    +0.000 A 
BRANCH   6  13
ATOM     12  C   UNL     1      11.809  14.795  18.997  0.00  0.00    +0.000 C 
ATOM     13  O   UNL     1      11.024  14.185  20.014  0.00  0.00    +0.000 OA
ENDBRANCH   6  13
ENDBRANCH   4   9
ENDBRANCH   1   5
BRANCH   3  14
ATOM     14  O   UNL     1       6.850   5.825  16.612  0.00  0.00    +0.000 OA
BRANCH  14  15
ATOM     15  C   UNL     1       5.534   6.016  16.088  0.00  0.00    +0.000 C 
ATOM     16  C   UNL     1       5.350   5.180  14.829  0.00  0.00    +0.000 C 
BRANCH  15  17
ATOM     17  C   UNL     1       4.546   5.581  17.182  0.00  0.00    +0.000 C 
ATOM     18  O   UNL     1       4.229   6.294  18.132  0.00  0.00    +0.000 OA
ATOM     19  N   UNL     1       4.066   4.292  17.030  0.00  0.00    +0.000 N 
ATOM     20  H   UNL     1       4.450   3.725  16.281  0.00  0.00    +0.000 HD
BRANCH  19  21
ATOM     21  C   UNL     1       3.129   3.702  17.974  0.00  0.00    +0.000 C 
ATOM     22  C   UNL     1       1.702   4.129  17.645  0.00  0.00    +0.000 C 
ATOM     23  C   UNL     1       3.250   2.180  17.989  0.00  0.00    +0.000 C 
ENDBRANCH  19  21
ENDBRANCH  15  17
ENDBRANCH  14  15
ENDBRANCH   3  14
TORSDOF 7
ENDMDL
MODEL 7
REMARK VINA RESULT:      -7.0      0.588      1.157
REMARK  Name = 
REMARK  12 active torsions:
REMARK  status: ('A' for Active; 'I' for Inactive)
REMARK    1  A    between atoms: C_1  and  O_2
REMARK    2  A    between atoms: O_2  and  C_3
REMARK    3  A    between atoms: C_6  and  C_7
REMARK    4  A    between atoms: C_8  and  C_9
REMARK    5  A    between atoms: C_9  and  C_10
REMARK    6  A    between atoms: N_11  and  O_12
REMARK    7  A    between atoms: O_12  and  C_13
REMARK    8  A    between atoms: C_13  and  C_14
REMARK    9  A    between atoms: C_13  and  C_15
REMARK   10  A    between atoms: N_17  and  C_18
REMARK   11  A    between atoms: C_18  and  C_19
REMARK   12  A    between atoms: C_18  and  C_20
REMARK                            x       y       z     vdW  Elec       q    Type
REMARK                         _______ _______ _______ _____ _____    ______ ____
ROOT
ATOM      1  C   UNL     1       7.773   7.353  17.655  0.00  0.00    +0.000 C 
ATOM      2  C   UNL     1       7.954   6.495  18.892  0.00  0.00    +0.000 C 
ATOM      3  N   UNL     1       7.213   6.886  16.569  0.00  0.00    +0.000 NA
ENDROOT
BRANCH   1   5
ATOM      4  C   UNL     1       8.773   9.449  18.667  0.00  0.00    +0.000 C 
ATOM      5  C   UNL     1       8.216   8.788  17.639  0.00  0.00    +0.000 C 
BRANCH   4   9
ATOM      6  C   UNL     1       9.999  13.569  18.631  0.00  0.00    +0.000 A 
ATOM      7  C   UNL     1      10.555  12.657  19.526  0.00  0.00    +0.000 A 
ATOM      8  C   UNL     1      10.150  11.318  19.522  0.00  0.00    +0.000 A 
ATOM      9  C   UNL     1       9.156  10.873  18.639  0.00  0.00    +0.000 A 
ATOM     10  C   UNL     1       8.607  11.794  17.740  0.00  0.00    +0.000 A 
ATOM     11  C   UNL     1       9.020  13.134  17.739  0.00  0.00    +0.000 A 
BRANCH   6  13
ATOM     12  C   UNL     1       9.552  15.879  18.366  0.00  0.00    +0.000 C 
ATOM     13  O   UNL     1      10.458  14.851  18.747  0.00  0.00    +0.000 OA
ENDBRANCH   6  13
ENDBRANCH   4   9
ENDBRANCH   1   5
BRANCH   3  14
ATOM     14  O   UNL     1       6.845   5.536  16.735  0.00  0.00    +0.000 OA
BRANCH  14  15
ATOM     15  C   UNL     1       5.793   5.191  15.831  0.00  0.00    +0.000 C 
ATOM     16  C   UNL     1       6.117   3.875  15.136  0.00  0.00    +0.000 C 
BRANCH  15  17
ATOM     17  C   UNL     1       4.507   5.066  16.663  0.00  0.00    +0.000 C 
ATOM     18  O   UNL     1       3.843   4.033  16.736  0.00  0.00    +0.000 OA
ATOM     19  N   UNL     1       4.131   6.236  17.301  0.00  0.00    +0.000 N 
ATOM     20  H   UNL     1       4.667   7.076  17.112  0.00  0.00    +0.000 HD
BRANCH  19  21
ATOM     21  C   UNL     1       2.934   6.313  18.126  0.00  0.00    +0.000 C 
ATOM     22  C   UNL     1       3.252   5.915  19.563  0.00  0.00    +0.000 C 
ATOM     23  C   UNL     1       2.321   7.711  18.073  0.00  0.00    +0.000 C 
ENDBRANCH  19  21
ENDBRANCH  15  17
ENDBRANCH  14  15
ENDBRANCH   3  14
TORSDOF 7
ENDMDL
MODEL 8
REMARK VINA RESULT:      -6.8      1.409      1.539
REMARK  Name = 
REMARK  12 active torsions:
REMARK  status: ('A' for Active; 'I' for Inactive)
REMARK    1  A    between atoms: C_1  and  O_2
REMARK    2  A    between atoms: O_2  and  C_3
REMARK    3  A    between atoms: C_6  and  C_7
REMARK    4  A    between atoms: C_8  and  C_9
REMARK    5  A    between atoms: C_9  and  C_10
REMARK    6  A    between atoms: N_11  and  O_12
REMARK    7  A    between atoms: O_12  and  C_13
REMARK    8  A    between atoms: C_13  and  C_14
REMARK    9  A    between atoms: C_13  and  C_15
REMARK   10  A    between atoms: N_17  and  C_18
REMARK   11  A    between atoms: C_18  and  C_19
REMARK   12  A    between atoms: C_18  and  C_20
REMARK                            x       y       z     vdW  Elec       q    Type
REMARK                         _______ _______ _______ _____ _____    ______ ____
ROOT
ATOM      1  C   UNL     1       7.655   7.200  17.747  0.00  0.00    +0.000 C 
ATOM      2  C   UNL     1       7.882   6.240  18.899  0.00  0.00    +0.000 C 
ATOM      3  N   UNL     1       7.050   6.827  16.648  0.00  0.00    +0.000 NA
ENDROOT
BRANCH   1   5
ATOM      4  C   UNL     1       8.846   9.162  18.819  0.00  0.00    +0.000 C 
ATOM      5  C   UNL     1       8.101   8.631  17.835  0.00  0.00    +0.000 C 
BRANCH   4   9
ATOM      6  C   UNL     1       9.871  13.333  19.003  0.00  0.00    +0.000 A 
ATOM      7  C   UNL     1       9.158  12.810  17.925  0.00  0.00    +0.000 A 
ATOM      8  C   UNL     1       8.827  11.452  17.882  0.00  0.00    +0.000 A 
ATOM      9  C   UNL     1       9.231  10.584  18.906  0.00  0.00    +0.000 A 
ATOM     10  C   UNL     1       9.941  11.117  19.987  0.00  0.00    +0.000 A 
ATOM     11  C   UNL     1      10.264  12.481  20.033  0.00  0.00    +0.000 A 
BRANCH   6  13
ATOM     12  C   UNL     1      10.471  15.161  17.623  0.00  0.00    +0.000 C 
ATOM     13  O   UNL     1      10.154  14.667  18.919  0.00  0.00    +0.000 OA
ENDBRANCH   6  13
ENDBRANCH   4   9
ENDBRANCH   1   5
BRANCH   3  14
ATOM     14  O   UNL     1       6.685   5.468  16.714  0.00  0.00    +0.000 OA
BRANCH  14  15
ATOM     15  C   UNL     1       5.375   5.277  16.173  0.00  0.00    +0.000 C 
ATOM     16  C   UNL     1       5.461   4.496  14.869  0.00  0.00    +0.000 C 
BRANCH  15  17
ATOM     17  C   UNL     1       4.564   4.499  17.222  0.00  0.00    +0.000 C 
ATOM     18  O   UNL     1       4.835   4.494  18.422  0.00  0.00    +0.000 OA
ATOM     19  N   UNL     1       3.514   3.767  16.696  0.00  0.00    +0.000 N 
ATOM     20  H   UNL     1       3.413   3.735  15.687  0.00  0.00    +0.000 HD
BRANCH  19  21
ATOM     21  C   UNL     1       2.641   2.959  17.535  0.00  0.00    +0.000 C 
ATOM     22  C   UNL     1       3.439   1.861  18.230  0.00  0.00    +0.000 C 
ATOM     23  C   UNL     1       1.907   3.825  18.556  0.00  0.00    +0.000 C 
ENDBRANCH  19  21
ENDBRANCH  15  17
ENDBRANCH  14  15
ENDBRANCH   3  14
TORSDOF 7
ENDMDL
MODEL 9
REMARK VINA RESULT:      -6.7      2.175      2.590
REMARK  Name = 
REMARK  12 active torsions:
REMARK  status: ('A' for Active; 'I' for Inactive)
REMARK    1  A    between atoms: C_1  and  O_2
REMARK    2  A    between atoms: O_2  and  C_3
REMARK    3  A    between atoms: C_6  and  C_7
REMARK    4  A    between atoms: C_8  and  C_9
REMARK    5  A    between atoms: C_9  and  C_10
REMARK    6  A    between atoms: N_11  and  O_12
REMARK    7  A    between atoms: O_12  and  C_13
REMARK    8  A    between atoms: C_13  and  C_14
REMARK    9  A    between atoms: C_13  and  C_15
REMARK   10  A    between atoms: N_17  and  C_18
REMARK   11  A    between atoms: C_18  and  C_19
REMARK   12  A    between atoms: C_18  and  C_20
REMARK                            x       y       z     vdW  Elec       q    Type
REMARK                         _______ _______ _______ _____ _____    ______ ____
ROOT
ATOM      1  C   UNL     1       7.552   6.546  18.229  0.00  0.00    +0.000 C 
ATOM      2  C   UNL     1       7.412   6.299  16.739  0.00  0.00    +0.000 C 
ATOM      3  N   UNL     1       7.031   5.735  19.114  0.00  0.00    +0.000 NA
ENDROOT
BRANCH   1   5
ATOM      4  C   UNL     1       8.346   8.951  18.190  0.00  0.00    +0.000 C 
ATOM      5  C   UNL     1       8.319   7.729  18.745  0.00  0.00    +0.000 C 
BRANCH   4   9
ATOM      6  C   UNL     1      10.654  12.313  19.551  0.00  0.00    +0.000 A 
ATOM      7  C   UNL     1      10.496  12.047  18.191  0.00  0.00    +0.000 A 
ATOM      8  C   UNL     1       9.738  10.952  17.764  0.00  0.00    +0.000 A 
ATOM      9  C   UNL     1       9.146  10.084  18.692  0.00  0.00    +0.000 A 
ATOM     10  C   UNL     1       9.305  10.361  20.055  0.00  0.00    +0.000 A 
ATOM     11  C   UNL     1      10.058  11.464  20.482  0.00  0.00    +0.000 A 
BRANCH   6  13
ATOM     12  C   UNL     1      10.931  14.661  19.437  0.00  0.00    +0.000 C 
ATOM     13  O   UNL     1      11.436  13.395  19.843  0.00  0.00    +0.000 OA
ENDBRANCH   6  13
ENDBRANCH   4   9
ENDBRANCH   1   5
BRANCH   3  14
ATOM     14  O   UNL     1       6.352   4.674  18.482  0.00  0.00    +0.000 OA
BRANCH  14  15
ATOM     15  C   UNL     1       4.938   4.874  18.555  0.00  0.00    +0.000 C 
ATOM     16  C   UNL     1       4.348   4.923  17.153  0.00  0.00    +0.000 C 
BRANCH  15  17
ATOM     17  C   UNL     1       4.357   3.695  19.352  0.00  0.00    +0.000 C 
ATOM     18  O   UNL     1       5.049   2.818  19.867  0.00  0.00    +0.000 OA
ATOM     19  N   UNL     1       2.974   3.679  19.411  0.00  0.00    +0.000 N 
ATOM     20  H   UNL     1       2.466   4.375  18.876  0.00  0.00    +0.000 HD
BRANCH  19  21
ATOM     21  C   UNL     1       2.245   2.633  20.113  0.00  0.00    +0.000 C 
ATOM     22  C   UNL     1       2.008   3.032  21.565  0.00  0.00    +0.000 C 
ATOM     23  C   UNL     1       0.924   2.322  19.413  0.00  0.00    +0.000 C 
ENDBRANCH  19  21
ENDBRANCH  15  17
ENDBRANCH  14  15
ENDBRANCH   3  14
TORSDOF 7
ENDMDL
