MODEL 1
REMARK VINA RESULT:      -9.6      0.000      0.000
REMARK  Name = 
REMARK  2 active torsions:
REMARK  status: ('A' for Active; 'I' for Inactive)
REMARK    1  A    between atoms: C_2  and  C_4
REMARK    2  A    between atoms: C_10  and  C_11
REMARK                            x       y       z     vdW  Elec       q    Type
REMARK                         _______ _______ _______ _____ _____    ______ ____
ROOT
ATOM      1  C   UNL     1       6.128   3.898  13.362  0.00  0.00    +0.000 A 
ATOM      2  C   UNL     1       7.326   4.601  13.270  0.00  0.00    +0.000 A 
ATOM      3  N   UNL     1       7.871   5.359  14.260  0.00  0.00    +0.000 NA
ATOM      4  C   UNL     1       7.129   5.366  15.383  0.00  0.00    +0.000 A 
ATOM      5  N   UNL     1       7.435   6.074  16.510  0.00  0.00    +0.000 N 
ATOM      6  C   UNL     1       6.469   5.871  17.462  0.00  0.00    +0.000 A 
ATOM      7  C   UNL     1       5.526   5.004  16.938  0.00  0.00    +0.000 A 
ATOM      8  C   UNL     1       5.933   4.697  15.609  0.00  0.00    +0.000 A 
ATOM      9  C   UNL     1       5.409   3.934  14.555  0.00  0.00    +0.000 A 
ATOM     10  H   UNL     1       8.252   6.659  16.599  0.00  0.00    +0.000 HD
ENDROOT
BRANCH   7  11
ATOM     11  C   UNL     1       4.366   4.542  17.679  0.00  0.00    +0.000 A 
ATOM     12  C   UNL     1       3.082   4.732  17.175  0.00  0.00    +0.000 A 
ATOM     13  C   UNL     1       1.978   4.317  17.914  0.00  0.00    +0.000 A 
ATOM     14  F   UNL     1       0.762   4.533  17.385  0.00  0.00    +0.000 F 
ATOM     15  C   UNL     1       2.095   3.705  19.163  0.00  0.00    +0.000 A 
ATOM     16  N   UNL     1       1.003   3.321  19.860  0.00  0.00    +0.000 NA
ATOM     17  C   UNL     1       1.178   2.746  21.069  0.00  0.00    +0.000 A 
ATOM     18  C   UNL     1       2.414   2.526  21.641  0.00  0.00    +0.000 A 
ATOM     19  C   UNL     1       3.540   2.914  20.926  0.00  0.00    +0.000 A 
ATOM     20  C   UNL     1       3.397   3.510  19.666  0.00  0.00    +0.000 A 
ATOM     21  C   UNL     1       4.517   3.919  18.922  0.00  0.00    +0.000 A 
ENDBRANCH   7  11
BRANCH   1  23
ATOM     22  N   UNL     1       6.356   2.073  11.783  0.00  0.00    +0.000 N 
ATOM     23  C   UNL     1       5.605   3.140  12.207  0.00  0.00    +0.000 C 
ATOM     24  O   UNL     1       4.553   3.429  11.674  0.00  0.00    +0.000 OA
ATOM     25  H   UNL     1       5.936   1.490  11.071  0.00  0.00    +0.000 HD
ATOM     26  H   UNL     1       7.090   1.661  12.342  0.00  0.00    +0.000 HD
ENDBRANCH   1  23
TORSDOF 2
ENDMDL
MODEL 2
REMARK VINA RESULT:      -9.6      1.390      1.523
REMARK  Name = 
REMARK  2 active torsions:
REMARK  status: ('A' for Active; 'I' for Inactive)
REMARK    1  A    between atoms: C_2  and  C_4
REMARK    2  A    between atoms: C_10  and  C_11
REMARK                            x       y       z     vdW  Elec       q    Type
REMARK                         _______ _______ _______ _____ _____    ______ ____
ROOT
ATOM      1  C   UNL     1       5.943   3.841  13.011  0.00  0.00    +0.000 A 
ATOM      2  C   UNL     1       7.204   4.393  12.811  0.00  0.00    +0.000 A 
ATOM      3  N   UNL     1       7.875   5.169  13.704  0.00  0.00    +0.000 NA
ATOM      4  C   UNL     1       7.191   5.360  14.849  0.00  0.00    +0.000 A 
ATOM      5  N   UNL     1       7.624   6.125  15.893  0.00  0.00    +0.000 N 
ATOM      6  C   UNL     1       6.688   6.118  16.894  0.00  0.00    +0.000 A 
ATOM      7  C   UNL     1       5.632   5.320  16.488  0.00  0.00    +0.000 A 
ATOM      8  C   UNL     1       5.941   4.852  15.179  0.00  0.00    +0.000 A 
ATOM      9  C   UNL     1       5.289   4.062  14.222  0.00  0.00    +0.000 A 
ATOM     10  H   UNL     1       8.504   6.621  15.897  0.00  0.00    +0.000 HD
ENDROOT
BRANCH   7  11
ATOM     11  C   UNL     1       4.465   5.058  17.311  0.00  0.00    +0.000 A 
ATOM     12  C   UNL     1       3.953   6.048  18.147  0.00  0.00    +0.000 A 
ATOM     13  C   UNL     1       2.855   5.771  18.957  0.00  0.00    +0.000 A 
ATOM     14  F   UNL     1       2.407   6.758  19.750  0.00  0.00    +0.000 F 
ATOM     15  C   UNL     1       2.228   4.524  18.976  0.00  0.00    +0.000 A 
ATOM     16  N   UNL     1       1.170   4.284  19.781  0.00  0.00    +0.000 NA
ATOM     17  C   UNL     1       0.613   3.054  19.766  0.00  0.00    +0.000 A 
ATOM     18  C   UNL     1       1.062   2.019  18.971  0.00  0.00    +0.000 A 
ATOM     19  C   UNL     1       2.147   2.262  18.138  0.00  0.00    +0.000 A 
ATOM     20  C   UNL     1       2.749   3.528  18.124  0.00  0.00    +0.000 A 
ATOM     21  C   UNL     1       3.850   3.803  17.296  0.00  0.00    +0.000 A 
ENDBRANCH   7  11
BRANCH   1  23
ATOM     22  N   UNL     1       5.867   1.843  11.639  0.00  0.00    +0.000 N 
ATOM     23  C   UNL     1       5.287   3.047  11.952  0.00  0.00    +0.000 C 
ATOM     24  O   UNL     1       4.273   3.426  11.402  0.00  0.00    +0.000 OA
ATOM     25  H   UNL     1       5.350   1.255  11.000  0.00  0.00    +0.000 HD
ATOM     26  H   UNL     1       6.549   1.392  12.232  0.00  0.00    +0.000 HD
ENDBRANCH   1  23
TORSDOF 2
ENDMDL
MODEL 3
REMARK VINA RESULT:      -9.6      1.363      1.602
REMARK  Name = 
REMARK  2 active torsions:
REMARK  status: ('A' for Active; 'I' for Inactive)
REMARK    1  A    between atoms: C_2  and  C_4
REMARK    2  A    between atoms: C_10  and  C_11
REMARK                            x       y       z     vdW  Elec       q    Type
REMARK                         _______ _______ _______ _____ _____    ______ ____
ROOT
ATOM      1  C   UNL     1       6.020   3.653  12.881  0.00  0.00    +0.000 A 
ATOM      2  C   UNL     1       7.149   4.423  12.614  0.00  0.00    +0.000 A 
ATOM      3  N   UNL     1       7.769   5.245  13.503  0.00  0.00    +0.000 NA
ATOM      4  C   UNL     1       7.181   5.245  14.714  0.00  0.00    +0.000 A 
ATOM      5  N   UNL     1       7.586   6.007  15.773  0.00  0.00    +0.000 N 
ATOM      6  C   UNL     1       6.767   5.779  16.849  0.00  0.00    +0.000 A 
ATOM      7  C   UNL     1       5.821   4.840  16.477  0.00  0.00    +0.000 A 
ATOM      8  C   UNL     1       6.070   4.513  15.113  0.00  0.00    +0.000 A 
ATOM      9  C   UNL     1       5.462   3.686  14.158  0.00  0.00    +0.000 A 
ATOM     10  H   UNL     1       8.368   6.643  15.739  0.00  0.00    +0.000 HD
ENDROOT
BRANCH   7  11
ATOM     11  C   UNL     1       4.800   4.334  17.376  0.00  0.00    +0.000 A 
ATOM     12  C   UNL     1       4.493   2.975  17.406  0.00  0.00    +0.000 A 
ATOM     13  C   UNL     1       3.485   2.511  18.247  0.00  0.00    +0.000 A 
ATOM     14  F   UNL     1       3.225   1.193  18.230  0.00  0.00    +0.000 F 
ATOM     15  C   UNL     1       2.751   3.355  19.081  0.00  0.00    +0.000 A 
ATOM     16  N   UNL     1       1.772   2.874  19.879  0.00  0.00    +0.000 NA
ATOM     17  C   UNL     1       1.086   3.741  20.654  0.00  0.00    +0.000 A 
ATOM     18  C   UNL     1       1.325   5.100  20.680  0.00  0.00    +0.000 A 
ATOM     19  C   UNL     1       2.333   5.599  19.864  0.00  0.00    +0.000 A 
ATOM     20  C   UNL     1       3.069   4.728  19.049  0.00  0.00    +0.000 A 
ATOM     21  C   UNL     1       4.091   5.204  18.210  0.00  0.00    +0.000 A 
ENDBRANCH   7  11
BRANCH   1  23
ATOM     22  N   UNL     1       6.052   1.666  11.493  0.00  0.00    +0.000 N 
ATOM     23  C   UNL     1       5.400   2.827  11.825  0.00  0.00    +0.000 C 
ATOM     24  O   UNL     1       4.356   3.145  11.294  0.00  0.00    +0.000 OA
ATOM     25  H   UNL     1       5.563   1.050  10.857  0.00  0.00    +0.000 HD
ATOM     26  H   UNL     1       6.771   1.256  12.071  0.00  0.00    +0.000 HD
ENDBRANCH   1  23
TORSDOF 2
ENDMDL
MODEL 4
REMARK VINA RESULT:      -9.2      1.489      2.027
REMARK  Name = 
REMARK  2 active torsions:
REMARK  status: ('A' for Active; 'I' for Inactive)
REMARK    1  A    between atoms: C_2  and  C_4
REMARK    2  A    between atoms: C_10  and  C_11
REMARK                            x       y       z     vdW  Elec       q    Type
REMARK                         _______ _______ _______ _____ _____    ______ ____
ROOT
ATOM      1  C   UNL     1       6.191   3.804  13.143  0.00  0.00    +0.000 A 
ATOM      2  C   UNL     1       7.257   4.663  12.894  0.00  0.00    +0.000 A 
ATOM      3  N   UNL     1       7.823   5.500  13.805  0.00  0.00    +0.000 NA
ATOM      4  C   UNL     1       7.246   5.419  15.019  0.00  0.00    +0.000 A 
ATOM      5  N   UNL     1       7.603   6.175  16.098  0.00  0.00    +0.000 N 
ATOM      6  C   UNL     1       6.813   5.853  17.172  0.00  0.00    +0.000 A 
ATOM      7  C   UNL     1       5.935   4.859  16.776  0.00  0.00    +0.000 A 
ATOM      8  C   UNL     1       6.196   4.594  15.401  0.00  0.00    +0.000 A 
ATOM      9  C   UNL     1       5.643   3.754  14.424  0.00  0.00    +0.000 A 
ATOM     10  H   UNL     1       8.336   6.868  16.079  0.00  0.00    +0.000 HD
ENDROOT
BRANCH   7  11
ATOM     11  C   UNL     1       4.962   4.250  17.665  0.00  0.00    +0.000 A 
ATOM     12  C   UNL     1       5.376   3.572  18.809  0.00  0.00    +0.000 A 
ATOM     13  C   UNL     1       4.433   2.962  19.632  0.00  0.00    +0.000 A 
ATOM     14  F   UNL     1       4.887   2.314  20.717  0.00  0.00    +0.000 F 
ATOM     15  C   UNL     1       3.064   2.997  19.364  0.00  0.00    +0.000 A 
ATOM     16  N   UNL     1       2.174   2.387  20.178  0.00  0.00    +0.000 NA
ATOM     17  C   UNL     1       0.863   2.443  19.860  0.00  0.00    +0.000 A 
ATOM     18  C   UNL     1       0.373   3.091  18.745  0.00  0.00    +0.000 A 
ATOM     19  C   UNL     1       1.283   3.723  17.907  0.00  0.00    +0.000 A 
ATOM     20  C   UNL     1       2.651   3.689  18.207  0.00  0.00    +0.000 A 
ATOM     21  C   UNL     1       3.596   4.315  17.376  0.00  0.00    +0.000 A 
ENDBRANCH   7  11
BRANCH   1  23
ATOM     22  N   UNL     1       6.375   1.890  11.666  0.00  0.00    +0.000 N 
ATOM     23  C   UNL     1       5.624   2.967  12.065  0.00  0.00    +0.000 C 
ATOM     24  O   UNL     1       4.540   3.205  11.572  0.00  0.00    +0.000 OA
ATOM     25  H   UNL     1       5.930   1.257  11.014  0.00  0.00    +0.000 HD
ATOM     26  H   UNL     1       7.145   1.526  12.209  0.00  0.00    +0.000 HD
ENDBRANCH   1  23
TORSDOF 2
ENDMDL
MODEL 5
REMARK VINA RESULT:      -9.0      3.127      7.474
REMARK  Name = 
REMARK  2 active torsions:
REMARK  status: ('A' for Active; 'I' for Inactive)
REMARK    1  A    between atoms: C_2  and  C_4
REMARK    2  A    between atoms: C_10  and  C_11
REMARK                            x       y       z     vdW  Elec       q    Type
REMARK                         _______ _______ _______ _____ _____    ______ ____
ROOT
ATOM      1  C   UNL     1       2.111   6.268  20.006  0.00  0.00    +0.000 A 
ATOM      2  C   UNL     1       1.434   5.280  20.713  0.00  0.00    +0.000 A 
ATOM      3  N   UNL     1       1.582   3.939  20.530  0.00  0.00    +0.000 NA
ATOM      4  C   UNL     1       2.482   3.638  19.575  0.00  0.00    +0.000 A 
ATOM      5  N   UNL     1       2.792   2.370  19.174  0.00  0.00    +0.000 N 
ATOM      6  C   UNL     1       3.734   2.415  18.178  0.00  0.00    +0.000 A 
ATOM      7  C   UNL     1       4.044   3.743  17.941  0.00  0.00    +0.000 A 
ATOM      8  C   UNL     1       3.235   4.524  18.815  0.00  0.00    +0.000 A 
ATOM      9  C   UNL     1       3.041   5.895  19.036  0.00  0.00    +0.000 A 
ATOM     10  H   UNL     1       2.369   1.540  19.563  0.00  0.00    +0.000 HD
ENDROOT
BRANCH   7  11
ATOM     11  C   UNL     1       5.029   4.172  16.965  0.00  0.00    +0.000 A 
ATOM     12  C   UNL     1       5.995   5.117  17.302  0.00  0.00    +0.000 A 
ATOM     13  C   UNL     1       6.910   5.546  16.345  0.00  0.00    +0.000 A 
ATOM     14  F   UNL     1       7.815   6.465  16.721  0.00  0.00    +0.000 F 
ATOM     15  C   UNL     1       6.909   5.066  15.034  0.00  0.00    +0.000 A 
ATOM     16  N   UNL     1       7.805   5.509  14.124  0.00  0.00    +0.000 NA
ATOM     17  C   UNL     1       7.747   5.018  12.868  0.00  0.00    +0.000 A 
ATOM     18  C   UNL     1       6.819   4.084  12.453  0.00  0.00    +0.000 A 
ATOM     19  C   UNL     1       5.899   3.622  13.385  0.00  0.00    +0.000 A 
ATOM     20  C   UNL     1       5.932   4.106  14.700  0.00  0.00    +0.000 A 
ATOM     21  C   UNL     1       5.011   3.662  15.663  0.00  0.00    +0.000 A 
ENDBRANCH   7  11
BRANCH   1  23
ATOM     22  N   UNL     1       1.660   8.069  21.565  0.00  0.00    +0.000 N 
ATOM     23  C   UNL     1       1.840   7.699  20.256  0.00  0.00    +0.000 C 
ATOM     24  O   UNL     1       1.802   8.511  19.354  0.00  0.00    +0.000 OA
ATOM     25  H   UNL     1       1.592   9.063  21.739  0.00  0.00    +0.000 HD
ATOM     26  H   UNL     1       1.924   7.482  22.343  0.00  0.00    +0.000 HD
ENDBRANCH   1  23
TORSDOF 2
ENDMDL
MODEL 6
REMARK VINA RESULT:      -8.9      5.757      8.095
REMARK  Name = 
REMARK  2 active torsions:
REMARK  status: ('A' for Active; 'I' for Inactive)
REMARK    1  A    between atoms: C_2  and  C_4
REMARK    2  A    between atoms: C_10  and  C_11
REMARK                            x       y       z     vdW  Elec       q    Type
REMARK                         _______ _______ _______ _____ _____    ______ ____
ROOT
ATOM      1  C   UNL     1       0.109  10.212  21.529  0.00  0.00    +0.000 A 
ATOM      2  C   UNL     1      -0.169  11.290  20.694  0.00  0.00    +0.000 A 
ATOM      3  N   UNL     1       0.213  11.397  19.393  0.00  0.00    +0.000 NA
ATOM      4  C   UNL     1       0.904  10.325  18.961  0.00  0.00    +0.000 A 
ATOM      5  N   UNL     1       1.430  10.196  17.707  0.00  0.00    +0.000 N 
ATOM      6  C   UNL     1       2.081   8.994  17.599  0.00  0.00    +0.000 A 
ATOM      7  C   UNL     1       1.961   8.330  18.808  0.00  0.00    +0.000 A 
ATOM      8  C   UNL     1       1.230   9.184  19.682  0.00  0.00    +0.000 A 
ATOM      9  C   UNL     1       0.818   9.125  21.021  0.00  0.00    +0.000 A 
ATOM     10  H   UNL     1       1.346  10.900  16.989  0.00  0.00    +0.000 HD
ENDROOT
BRANCH   7  11
ATOM     11  C   UNL     1       2.509   7.008  19.052  0.00  0.00    +0.000 A 
ATOM     12  C   UNL     1       3.531   6.506  18.250  0.00  0.00    +0.000 A 
ATOM     13  C   UNL     1       4.020   5.222  18.473  0.00  0.00    +0.000 A 
ATOM     14  F   UNL     1       5.000   4.785  17.664  0.00  0.00    +0.000 F 
ATOM     15  C   UNL     1       3.528   4.394  19.482  0.00  0.00    +0.000 A 
ATOM     16  N   UNL     1       4.018   3.148  19.667  0.00  0.00    +0.000 NA
ATOM     17  C   UNL     1       3.493   2.387  20.651  0.00  0.00    +0.000 A 
ATOM     18  C   UNL     1       2.478   2.807  21.486  0.00  0.00    +0.000 A 
ATOM     19  C   UNL     1       1.974   4.089  21.303  0.00  0.00    +0.000 A 
ATOM     20  C   UNL     1       2.497   4.909  20.294  0.00  0.00    +0.000 A 
ATOM     21  C   UNL     1       2.004   6.208  20.081  0.00  0.00    +0.000 A 
ENDBRANCH   7  11
BRANCH   1  23
ATOM     22  N   UNL     1      -1.471  10.905  23.232  0.00  0.00    +0.000 N 
ATOM     23  C   UNL     1      -0.318  10.220  22.943  0.00  0.00    +0.000 C 
ATOM     24  O   UNL     1       0.305   9.631  23.804  0.00  0.00    +0.000 OA
ATOM     25  H   UNL     1      -1.819  10.808  24.177  0.00  0.00    +0.000 HD
ATOM     26  H   UNL     1      -2.132  11.189  22.524  0.00  0.00    +0.000 HD
ENDBRANCH   1  23
TORSDOF 2
ENDMDL
MODEL 7
REMARK VINA RESULT:      -8.7      5.470      7.098
REMARK  Name = 
REMARK  2 active torsions:
REMARK  status: ('A' for Active; 'I' for Inactive)
REMARK    1  A    between atoms: C_2  and  C_4
REMARK    2  A    between atoms: C_10  and  C_11
REMARK                            x       y       z     vdW  Elec       q    Type
REMARK                         _______ _______ _______ _____ _____    ______ ____
ROOT
ATOM      1  C   UNL     1       2.731   3.996  20.235  0.00  0.00    +0.000 A 
ATOM      2  C   UNL     1       3.720   3.610  19.336  0.00  0.00    +0.000 A 
ATOM      3  N   UNL     1       4.250   4.398  18.361  0.00  0.00    +0.000 NA
ATOM      4  C   UNL     1       3.720   5.636  18.344  0.00  0.00    +0.000 A 
ATOM      5  N   UNL     1       4.052   6.609  17.446  0.00  0.00    +0.000 N 
ATOM      6  C   UNL     1       3.322   7.742  17.699  0.00  0.00    +0.000 A 
ATOM      7  C   UNL     1       2.510   7.495  18.792  0.00  0.00    +0.000 A 
ATOM      8  C   UNL     1       2.747   6.149  19.193  0.00  0.00    +0.000 A 
ATOM      9  C   UNL     1       2.229   5.295  20.176  0.00  0.00    +0.000 A 
ATOM     10  H   UNL     1       4.729   6.484  16.709  0.00  0.00    +0.000 HD
ENDROOT
BRANCH   7  11
ATOM     11  C   UNL     1       1.614   8.485  19.362  0.00  0.00    +0.000 A 
ATOM     12  C   UNL     1       1.131   9.534  18.584  0.00  0.00    +0.000 A 
ATOM     13  C   UNL     1       0.302  10.496  19.155  0.00  0.00    +0.000 A 
ATOM     14  F   UNL     1      -0.128  11.491  18.361  0.00  0.00    +0.000 F 
ATOM     15  C   UNL     1      -0.078  10.462  20.497  0.00  0.00    +0.000 A 
ATOM     16  N   UNL     1      -0.877  11.417  21.024  0.00  0.00    +0.000 NA
ATOM     17  C   UNL     1      -1.200  11.339  22.332  0.00  0.00    +0.000 A 
ATOM     18  C   UNL     1      -0.760  10.335  23.172  0.00  0.00    +0.000 A 
ATOM     19  C   UNL     1       0.058   9.349  22.634  0.00  0.00    +0.000 A 
ATOM     20  C   UNL     1       0.411   9.395  21.279  0.00  0.00    +0.000 A 
ATOM     21  C   UNL     1       1.241   8.415  20.708  0.00  0.00    +0.000 A 
ENDBRANCH   7  11
BRANCH   1  23
ATOM     22  N   UNL     1       0.839   2.837  21.212  0.00  0.00    +0.000 N 
ATOM     23  C   UNL     1       2.196   3.042  21.228  0.00  0.00    +0.000 C 
ATOM     24  O   UNL     1       2.920   2.449  22.002  0.00  0.00    +0.000 OA
ATOM     25  H   UNL     1       0.495   2.099  21.812  0.00  0.00    +0.000 HD
ATOM     26  H   UNL     1       0.251   3.116  20.440  0.00  0.00    +0.000 HD
ENDBRANCH   1  23
TORSDOF 2
ENDMDL
MODEL 8
REMARK VINA RESULT:      -8.7      5.716      8.114
REMARK  Name = 
REMARK  2 active torsions:
REMARK  status: ('A' for Active; 'I' for Inactive)
REMARK    1  A    between atoms: C_2  and  C_4
REMARK    2  A    between atoms: C_10  and  C_11
REMARK                            x       y       z     vdW  Elec       q    Type
REMARK                         _______ _______ _______ _____ _____    ______ ____
ROOT
ATOM      1  C   UNL     1       0.232  10.174  21.541  0.00  0.00    +0.000 A 
ATOM      2  C   UNL     1       0.214  11.301  20.724  0.00  0.00    +0.000 A 
ATOM      3  N   UNL     1       0.697  11.360  19.454  0.00  0.00    +0.000 NA
ATOM      4  C   UNL     1       1.208  10.187  19.033  0.00  0.00    +0.000 A 
ATOM      5  N   UNL     1       1.785   9.986  17.813  0.00  0.00    +0.000 N 
ATOM      6  C   UNL     1       2.211   8.687  17.708  0.00  0.00    +0.000 A 
ATOM      7  C   UNL     1       1.889   8.034  18.886  0.00  0.00    +0.000 A 
ATOM      8  C   UNL     1       1.269   8.992  19.738  0.00  0.00    +0.000 A 
ATOM      9  C   UNL     1       0.763   8.984  21.046  0.00  0.00    +0.000 A 
ATOM     10  H   UNL     1       1.881  10.707  17.112  0.00  0.00    +0.000 HD
ENDROOT
BRANCH   7  11
ATOM     11  C   UNL     1       2.167   6.629  19.123  0.00  0.00    +0.000 A 
ATOM     12  C   UNL     1       2.089   6.100  20.409  0.00  0.00    +0.000 A 
ATOM     13  C   UNL     1       2.394   4.759  20.627  0.00  0.00    +0.000 A 
ATOM     14  F   UNL     1       2.310   4.302  21.887  0.00  0.00    +0.000 F 
ATOM     15  C   UNL     1       2.783   3.899  19.599  0.00  0.00    +0.000 A 
ATOM     16  N   UNL     1       3.082   2.604  19.844  0.00  0.00    +0.000 NA
ATOM     17  C   UNL     1       3.466   1.823  18.812  0.00  0.00    +0.000 A 
ATOM     18  C   UNL     1       3.573   2.271  17.511  0.00  0.00    +0.000 A 
ATOM     19  C   UNL     1       3.263   3.600  17.253  0.00  0.00    +0.000 A 
ATOM     20  C   UNL     1       2.857   4.440  18.299  0.00  0.00    +0.000 A 
ATOM     21  C   UNL     1       2.541   5.790  18.070  0.00  0.00    +0.000 A 
ENDBRANCH   7  11
BRANCH   1  23
ATOM     22  N   UNL     1      -1.426  10.966  23.123  0.00  0.00    +0.000 N 
ATOM     23  C   UNL     1      -0.282  10.234  22.925  0.00  0.00    +0.000 C 
ATOM     24  O   UNL     1       0.263   9.647  23.837  0.00  0.00    +0.000 OA
ATOM     25  H   UNL     1      -1.836  10.906  24.045  0.00  0.00    +0.000 HD
ATOM     26  H   UNL     1      -2.030  11.255  22.367  0.00  0.00    +0.000 HD
ENDBRANCH   1  23
TORSDOF 2
ENDMDL
MODEL 9
REMARK VINA RESULT:      -8.7      4.847      6.016
REMARK  Name = 
REMARK  2 active torsions:
REMARK  status: ('A' for Active; 'I' for Inactive)
REMARK    1  A    between atoms: C_2  and  C_4
REMARK    2  A    between atoms: C_10  and  C_11
REMARK                            x       y       z     vdW  Elec       q    Type
REMARK                         _______ _______ _______ _____ _____    ______ ____
ROOT
ATOM      1  C   UNL     1       2.322   3.474  18.125  0.00  0.00    +0.000 A 
ATOM      2  C   UNL     1       3.471   3.215  17.383  0.00  0.00    +0.000 A 
ATOM      3  N   UNL     1       4.335   4.156  16.916  0.00  0.00    +0.000 NA
ATOM      4  C   UNL     1       3.976   5.409  17.253  0.00  0.00    +0.000 A 
ATOM      5  N   UNL     1       4.653   6.536  16.883  0.00  0.00    +0.000 N 
ATOM      6  C   UNL     1       4.017   7.644  17.380  0.00  0.00    +0.000 A 
ATOM      7  C   UNL     1       2.912   7.219  18.097  0.00  0.00    +0.000 A 
ATOM      8  C   UNL     1       2.873   5.799  18.001  0.00  0.00    +0.000 A 
ATOM      9  C   UNL     1       2.008   4.792  18.454  0.00  0.00    +0.000 A 
ATOM     10  H   UNL     1       5.489   6.527  16.317  0.00  0.00    +0.000 HD
ENDROOT
BRANCH   7  11
ATOM     11  C   UNL     1       2.013   8.124  18.790  0.00  0.00    +0.000 A 
ATOM     12  C   UNL     1       1.353   9.136  18.097  0.00  0.00    +0.000 A 
ATOM     13  C   UNL     1       0.523  10.018  18.782  0.00  0.00    +0.000 A 
ATOM     14  F   UNL     1      -0.082  10.981  18.066  0.00  0.00    +0.000 F 
ATOM     15  C   UNL     1       0.313   9.939  20.159  0.00  0.00    +0.000 A 
ATOM     16  N   UNL     1      -0.493  10.817  20.798  0.00  0.00    +0.000 NA
ATOM     17  C   UNL     1      -0.647  10.699  22.133  0.00  0.00    +0.000 A 
ATOM     18  C   UNL     1      -0.026   9.729  22.894  0.00  0.00    +0.000 A 
ATOM     19  C   UNL     1       0.799   8.821  22.242  0.00  0.00    +0.000 A 
ATOM     20  C   UNL     1       0.980   8.910  20.855  0.00  0.00    +0.000 A 
ATOM     21  C   UNL     1       1.812   8.009  20.169  0.00  0.00    +0.000 A 
ENDBRANCH   7  11
BRANCH   1  23
ATOM     22  N   UNL     1       2.033   1.240  19.022  0.00  0.00    +0.000 N 
ATOM     23  C   UNL     1       1.428   2.375  18.544  0.00  0.00    +0.000 C 
ATOM     24  O   UNL     1       0.219   2.478  18.493  0.00  0.00    +0.000 OA
ATOM     25  H   UNL     1       1.417   0.542  19.415  0.00  0.00    +0.000 HD
ATOM     26  H   UNL     1       3.002   1.213  19.305  0.00  0.00    +0.000 HD
ENDBRANCH   1  23
TORSDOF 2
ENDMDL
