MODEL 1
REMARK VINA RESULT:      -8.7      0.000      0.000
REMARK  Name = 
REMARK  6 active torsions:
REMARK  status: ('A' for Active; 'I' for Inactive)
REMARK    1  A    between atoms: C_1  and  N_2
REMARK    2  A    between atoms: N_5  and  C_6
REMARK    3  A    between atoms: C_6  and  C_7
REMARK    4  A    between atoms: N_9  and  C_10
REMARK    5  A    between atoms: C_19  and  C_20
REMARK    6  A    between atoms: C_23  and  N_24
REMARK                            x       y       z     vdW  Elec       q    Type
REMARK                         _______ _______ _______ _____ _____    ______ ____
ROOT
ATOM      1  C   UNL     1       2.671  15.388  17.952  0.00  0.00    +0.000 A 
ATOM      2  C   UNL     1       2.076  16.655  18.050  0.00  0.00    +0.000 A 
ATOM      3  C   UNL     1       0.746  16.816  18.500  0.00  0.00    +0.000 A 
ATOM      4  C   UNL     1      -0.021  15.720  18.890  0.00  0.00    +0.000 A 
ATOM      5  C   UNL     1       0.557  14.481  18.783  0.00  0.00    +0.000 A 
ATOM      6  C   UNL     1       1.880  14.308  18.294  0.00  0.00    +0.000 A 
ATOM      7  C   UNL     1       2.238  12.848  18.375  0.00  0.00    +0.000 C 
ATOM      8  O   UNL     1       3.293  12.345  18.033  0.00  0.00    +0.000 OA
ATOM      9  C   UNL     1       1.059  12.223  18.937  0.00  0.00    +0.000 A 
ATOM     10  C   UNL     1       0.482  11.011  19.339  0.00  0.00    +0.000 A 
ATOM     11  N   UNL     1      -0.782  11.232  19.780  0.00  0.00    +0.000 NA
ATOM     12  N   UNL     1      -0.976  12.567  19.669  0.00  0.00    +0.000 N 
ATOM     13  C   UNL     1       0.103  13.175  19.153  0.00  0.00    +0.000 A 
ATOM     14  H   UNL     1      -1.865  12.956  19.959  0.00  0.00    +0.000 HD
ENDROOT
BRANCH  10  15
ATOM     15  C   UNL     1       1.046   9.669  19.266  0.00  0.00    +0.000 A 
ATOM     16  C   UNL     1       1.140   8.859  20.396  0.00  0.00    +0.000 A 
ATOM     17  C   UNL     1       1.800   7.628  20.329  0.00  0.00    +0.000 A 
ATOM     18  C   UNL     1       2.399   7.173  19.147  0.00  0.00    +0.000 A 
ATOM     19  C   UNL     1       2.230   7.967  18.007  0.00  0.00    +0.000 A 
ATOM     20  C   UNL     1       1.558   9.192  18.056  0.00  0.00    +0.000 A 
BRANCH  18  21
ATOM     21  N   UNL     1       3.131   6.007  19.101  0.00  0.00    +0.000 N 
ATOM     22  C   UNL     1       4.128   5.729  18.063  0.00  0.00    +0.000 C 
ATOM     23  C   UNL     1       3.783   4.420  17.342  0.00  0.00    +0.000 C 
ATOM     24  O   UNL     1       3.642   3.328  18.267  0.00  0.00    +0.000 OA
ATOM     25  C   UNL     1       2.599   3.609  19.216  0.00  0.00    +0.000 C 
ATOM     26  C   UNL     1       2.889   4.887  20.024  0.00  0.00    +0.000 C 
ENDBRANCH  18  21
ENDBRANCH  10  15
BRANCH   1  29
ATOM     27  C   UNL     1       5.019  15.224  18.529  0.00  0.00    +0.000 C 
ATOM     28  O   UNL     1       4.812  15.316  19.740  0.00  0.00    +0.000 OA
ATOM     29  N   UNL     1       4.016  15.236  17.566  0.00  0.00    +0.000 N 
ATOM     30  H   UNL     1       4.211  14.670  16.744  0.00  0.00    +0.000 HD
BRANCH  27  31
ATOM     31  C   UNL     1       6.447  15.058  17.984  0.00  0.00    +0.000 C 
BRANCH  31  36
ATOM     32  C   UNL     1      11.262  14.783  16.982  0.00  0.00    +0.000 C 
ATOM     33  N   UNL     1      10.240  15.026  17.994  0.00  0.00    +0.000 NA
ATOM     34  C   UNL     1       9.396  13.838  18.213  0.00  0.00    +0.000 C 
ATOM     35  C   UNL     1       8.296  14.098  19.275  0.00  0.00    +0.000 C 
ATOM     36  N   UNL     1       7.445  15.294  19.047  0.00  0.00    +0.000 NA
ATOM     37  C   UNL     1       8.333  16.439  18.735  0.00  0.00    +0.000 C 
ATOM     38  C   UNL     1       9.393  16.175  17.639  0.00  0.00    +0.000 C 
ENDBRANCH  31  36
ENDBRANCH  27  31
ENDBRANCH   1  29
TORSDOF 5
ENDMDL
MODEL 2
REMARK VINA RESULT:      -8.6      0.859      1.169
REMARK  Name = 
REMARK  6 active torsions:
REMARK  status: ('A' for Active; 'I' for Inactive)
REMARK    1  A    between atoms: C_1  and  N_2
REMARK    2  A    between atoms: N_5  and  C_6
REMARK    3  A    between atoms: C_6  and  C_7
REMARK    4  A    between atoms: N_9  and  C_10
REMARK    5  A    between atoms: C_19  and  C_20
REMARK    6  A    between atoms: C_23  and  N_24
REMARK                            x       y       z     vdW  Elec       q    Type
REMARK                         _______ _______ _______ _____ _____    ______ ____
ROOT
ATOM      1  C   UNL     1       2.283  15.176  18.325  0.00  0.00    +0.000 A 
ATOM      2  C   UNL     1       1.573  16.358  18.586  0.00  0.00    +0.000 A 
ATOM      3  C   UNL     1       0.256  16.332  19.100  0.00  0.00    +0.000 A 
ATOM      4  C   UNL     1      -0.380  15.128  19.392  0.00  0.00    +0.000 A 
ATOM      5  C   UNL     1       0.311  13.973  19.125  0.00  0.00    +0.000 A 
ATOM      6  C   UNL     1       1.620  13.990  18.571  0.00  0.00    +0.000 A 
ATOM      7  C   UNL     1       2.122  12.575  18.475  0.00  0.00    +0.000 C 
ATOM      8  O   UNL     1       3.204  12.223  18.039  0.00  0.00    +0.000 OA
ATOM      9  C   UNL     1       1.038  11.775  19.006  0.00  0.00    +0.000 A 
ATOM     10  C   UNL     1       0.603  10.474  19.290  0.00  0.00    +0.000 A 
ATOM     11  N   UNL     1      -0.654  10.515  19.799  0.00  0.00    +0.000 NA
ATOM     12  N   UNL     1      -0.983  11.827  19.846  0.00  0.00    +0.000 N 
ATOM     13  C   UNL     1       0.005  12.595  19.362  0.00  0.00    +0.000 A 
ATOM     14  H   UNL     1      -1.891  12.089  20.211  0.00  0.00    +0.000 HD
ENDROOT
BRANCH  10  15
ATOM     15  C   UNL     1       1.291   9.212  19.045  0.00  0.00    +0.000 A 
ATOM     16  C   UNL     1       1.472   8.276  20.061  0.00  0.00    +0.000 A 
ATOM     17  C   UNL     1       2.245   7.132  19.838  0.00  0.00    +0.000 A 
ATOM     18  C   UNL     1       2.874   6.893  18.609  0.00  0.00    +0.000 A 
ATOM     19  C   UNL     1       2.621   7.808  17.581  0.00  0.00    +0.000 A 
ATOM     20  C   UNL     1       1.836   8.947  17.786  0.00  0.00    +0.000 A 
BRANCH  18  21
ATOM     21  N   UNL     1       3.713   5.819  18.416  0.00  0.00    +0.000 N 
ATOM     22  C   UNL     1       3.282   4.427  18.579  0.00  0.00    +0.000 C 
ATOM     23  C   UNL     1       4.169   3.719  19.610  0.00  0.00    +0.000 C 
ATOM     24  O   UNL     1       5.562   3.819  19.266  0.00  0.00    +0.000 OA
ATOM     25  C   UNL     1       5.961   5.199  19.198  0.00  0.00    +0.000 C 
ATOM     26  C   UNL     1       5.151   5.979  18.146  0.00  0.00    +0.000 C 
ENDBRANCH  18  21
ENDBRANCH  10  15
BRANCH   1  29
ATOM     27  C   UNL     1       4.662  15.159  18.790  0.00  0.00    +0.000 C 
ATOM     28  O   UNL     1       4.505  15.066  20.009  0.00  0.00    +0.000 OA
ATOM     29  N   UNL     1       3.617  15.206  17.874  0.00  0.00    +0.000 N 
ATOM     30  H   UNL     1       3.822  14.777  16.975  0.00  0.00    +0.000 HD
BRANCH  27  31
ATOM     31  C   UNL     1       6.072  15.204  18.178  0.00  0.00    +0.000 C 
BRANCH  31  36
ATOM     32  C   UNL     1      10.896  14.614  17.378  0.00  0.00    +0.000 C 
ATOM     33  N   UNL     1       9.863  15.123  18.273  0.00  0.00    +0.000 NA
ATOM     34  C   UNL     1       8.993  14.043  18.773  0.00  0.00    +0.000 C 
ATOM     35  C   UNL     1       7.882  14.583  19.710  0.00  0.00    +0.000 C 
ATOM     36  N   UNL     1       7.057  15.692  19.165  0.00  0.00    +0.000 NA
ATOM     37  C   UNL     1       7.971  16.705  18.587  0.00  0.00    +0.000 C 
ATOM     38  C   UNL     1       9.043  16.153  17.617  0.00  0.00    +0.000 C 
ENDBRANCH  31  36
ENDBRANCH  27  31
ENDBRANCH   1  29
TORSDOF 5
ENDMDL
MODEL 3
REMARK VINA RESULT:      -8.4      0.550      1.246
REMARK  Name = 
REMARK  6 active torsions:
REMARK  status: ('A' for Active; 'I' for Inactive)
REMARK    1  A    between atoms: C_1  and  N_2
REMARK    2  A    between atoms: N_5  and  C_6
REMARK    3  A    between atoms: C_6  and  C_7
REMARK    4  A    between atoms: N_9  and  C_10
REMARK    5  A    between atoms: C_19  and  C_20
REMARK    6  A    between atoms: C_23  and  N_24
REMARK                            x       y       z     vdW  Elec       q    Type
REMARK                         _______ _______ _______ _____ _____    ______ ____
ROOT
ATOM      1  C   UNL     1       2.605  15.303  18.013  0.00  0.00    +0.000 A 
ATOM      2  C   UNL     1       1.933  16.528  18.151  0.00  0.00    +0.000 A 
ATOM      3  C   UNL     1       0.600  16.592  18.620  0.00  0.00    +0.000 A 
ATOM      4  C   UNL     1      -0.090  15.440  18.989  0.00  0.00    +0.000 A 
ATOM      5  C   UNL     1       0.563  14.244  18.843  0.00  0.00    +0.000 A 
ATOM      6  C   UNL     1       1.888  14.167  18.335  0.00  0.00    +0.000 A 
ATOM      7  C   UNL     1       2.339  12.732  18.373  0.00  0.00    +0.000 C 
ATOM      8  O   UNL     1       3.419  12.306  18.006  0.00  0.00    +0.000 OA
ATOM      9  C   UNL     1       1.208  12.018  18.931  0.00  0.00    +0.000 A 
ATOM     10  C   UNL     1       0.715  10.763  19.306  0.00  0.00    +0.000 A 
ATOM     11  N   UNL     1      -0.555  10.891  19.768  0.00  0.00    +0.000 NA
ATOM     12  N   UNL     1      -0.835  12.213  19.694  0.00  0.00    +0.000 N 
ATOM     13  C   UNL     1       0.197  12.902  19.182  0.00  0.00    +0.000 A 
ATOM     14  H   UNL     1      -1.743  12.538  20.005  0.00  0.00    +0.000 HD
ENDROOT
BRANCH  10  15
ATOM     15  C   UNL     1       1.361   9.461  19.191  0.00  0.00    +0.000 A 
ATOM     16  C   UNL     1       1.919   9.032  17.989  0.00  0.00    +0.000 A 
ATOM     17  C   UNL     1       2.418   7.731  17.866  0.00  0.00    +0.000 A 
ATOM     18  C   UNL     1       2.362   6.815  18.924  0.00  0.00    +0.000 A 
ATOM     19  C   UNL     1       1.865   7.288  20.144  0.00  0.00    +0.000 A 
ATOM     20  C   UNL     1       1.378   8.591  20.284  0.00  0.00    +0.000 A 
BRANCH  18  21
ATOM     21  N   UNL     1       2.763   5.506  18.778  0.00  0.00    +0.000 N 
ATOM     22  C   UNL     1       2.022   4.373  19.342  0.00  0.00    +0.000 C 
ATOM     23  C   UNL     1       2.934   3.554  20.262  0.00  0.00    +0.000 C 
ATOM     24  O   UNL     1       4.131   3.135  19.583  0.00  0.00    +0.000 OA
ATOM     25  C   UNL     1       4.867   4.280  19.120  0.00  0.00    +0.000 C 
ATOM     26  C   UNL     1       4.040   5.138  18.146  0.00  0.00    +0.000 C 
ENDBRANCH  18  21
ENDBRANCH  10  15
BRANCH   1  29
ATOM     27  C   UNL     1       4.965  15.249  18.560  0.00  0.00    +0.000 C 
ATOM     28  O   UNL     1       4.768  15.272  19.776  0.00  0.00    +0.000 OA
ATOM     29  N   UNL     1       3.952  15.248  17.608  0.00  0.00    +0.000 N 
ATOM     30  H   UNL     1       4.169  14.732  16.758  0.00  0.00    +0.000 HD
BRANCH  27  31
ATOM     31  C   UNL     1       6.394  15.191  17.995  0.00  0.00    +0.000 C 
BRANCH  31  36
ATOM     32  C   UNL     1      11.215  14.822  17.055  0.00  0.00    +0.000 C 
ATOM     33  N   UNL     1      10.187  15.153  18.034  0.00  0.00    +0.000 NA
ATOM     34  C   UNL     1       9.338  13.990  18.350  0.00  0.00    +0.000 C 
ATOM     35  C   UNL     1       8.232  14.344  19.378  0.00  0.00    +0.000 C 
ATOM     36  N   UNL     1       7.386  15.517  19.041  0.00  0.00    +0.000 NA
ATOM     37  C   UNL     1       8.278  16.628  18.636  0.00  0.00    +0.000 C 
ATOM     38  C   UNL     1       9.345  16.268  17.574  0.00  0.00    +0.000 C 
ENDBRANCH  31  36
ENDBRANCH  27  31
ENDBRANCH   1  29
TORSDOF 5
ENDMDL
MODEL 4
REMARK VINA RESULT:      -8.3      3.159      5.978
REMARK  Name = 
REMARK  6 active torsions:
REMARK  status: ('A' for Active; 'I' for Inactive)
REMARK    1  A    between atoms: C_1  and  N_2
REMARK    2  A    between atoms: N_5  and  C_6
REMARK    3  A    between atoms: C_6  and  C_7
REMARK    4  A    between atoms: N_9  and  C_10
REMARK    5  A    between atoms: C_19  and  C_20
REMARK    6  A    between atoms: C_23  and  N_24
REMARK                            x       y       z     vdW  Elec       q    Type
REMARK                         _______ _______ _______ _____ _____    ______ ____
ROOT
ATOM      1  C   UNL     1       0.672  10.849  20.189  0.00  0.00    +0.000 A 
ATOM      2  C   UNL     1      -0.088  11.199  21.316  0.00  0.00    +0.000 A 
ATOM      3  C   UNL     1      -0.431  10.248  22.303  0.00  0.00    +0.000 A 
ATOM      4  C   UNL     1      -0.005   8.925  22.208  0.00  0.00    +0.000 A 
ATOM      5  C   UNL     1       0.727   8.580  21.100  0.00  0.00    +0.000 A 
ATOM      6  C   UNL     1       1.042   9.523  20.084  0.00  0.00    +0.000 A 
ATOM      7  C   UNL     1       1.914   8.852  19.057  0.00  0.00    +0.000 C 
ATOM      8  O   UNL     1       2.362   9.365  18.047  0.00  0.00    +0.000 OA
ATOM      9  C   UNL     1       2.073   7.500  19.552  0.00  0.00    +0.000 A 
ATOM     10  C   UNL     1       2.648   6.247  19.306  0.00  0.00    +0.000 A 
ATOM     11  N   UNL     1       2.302   5.384  20.295  0.00  0.00    +0.000 NA
ATOM     12  N   UNL     1       1.539   6.102  21.151  0.00  0.00    +0.000 N 
ATOM     13  C   UNL     1       1.375   7.363  20.719  0.00  0.00    +0.000 A 
ATOM     14  H   UNL     1       1.177   5.648  21.981  0.00  0.00    +0.000 HD
ENDROOT
BRANCH  10  15
ATOM     15  C   UNL     1       3.444   5.822  18.161  0.00  0.00    +0.000 A 
ATOM     16  C   UNL     1       3.255   4.575  17.569  0.00  0.00    +0.000 A 
ATOM     17  C   UNL     1       4.115   4.136  16.557  0.00  0.00    +0.000 A 
ATOM     18  C   UNL     1       5.196   4.913  16.116  0.00  0.00    +0.000 A 
ATOM     19  C   UNL     1       5.324   6.190  16.673  0.00  0.00    +0.000 A 
ATOM     20  C   UNL     1       4.461   6.647  17.673  0.00  0.00    +0.000 A 
BRANCH  18  21
ATOM     21  N   UNL     1       6.100   4.445  15.189  0.00  0.00    +0.000 N 
ATOM     22  C   UNL     1       7.387   5.097  14.928  0.00  0.00    +0.000 C 
ATOM     23  C   UNL     1       7.499   5.464  13.444  0.00  0.00    +0.000 C 
ATOM     24  O   UNL     1       7.288   4.319  12.599  0.00  0.00    +0.000 OA
ATOM     25  C   UNL     1       5.982   3.763  12.830  0.00  0.00    +0.000 C 
ATOM     26  C   UNL     1       5.800   3.318  14.293  0.00  0.00    +0.000 C 
ENDBRANCH  18  21
ENDBRANCH  10  15
BRANCH   1  29
ATOM     27  C   UNL     1       1.947  12.825  19.605  0.00  0.00    +0.000 C 
ATOM     28  O   UNL     1       2.444  12.936  20.727  0.00  0.00    +0.000 OA
ATOM     29  N   UNL     1       1.067  11.813  19.241  0.00  0.00    +0.000 N 
ATOM     30  H   UNL     1       1.135  11.519  18.270  0.00  0.00    +0.000 HD
BRANCH  27  31
ATOM     31  C   UNL     1       2.298  13.820  18.486  0.00  0.00    +0.000 C 
BRANCH  31  36
ATOM     32  C   UNL     1       1.260  18.276  16.664  0.00  0.00    +0.000 C 
ATOM     33  N   UNL     1       2.027  17.506  17.636  0.00  0.00    +0.000 NA
ATOM     34  C   UNL     1       2.952  16.565  16.980  0.00  0.00    +0.000 C 
ATOM     35  C   UNL     1       3.756  15.732  18.011  0.00  0.00    +0.000 C 
ATOM     36  N   UNL     1       2.952  15.023  19.040  0.00  0.00    +0.000 NA
ATOM     37  C   UNL     1       1.972  15.983  19.600  0.00  0.00    +0.000 C 
ATOM     38  C   UNL     1       1.145  16.771  18.557  0.00  0.00    +0.000 C 
ENDBRANCH  31  36
ENDBRANCH  27  31
ENDBRANCH   1  29
TORSDOF 5
ENDMDL
MODEL 5
REMARK VINA RESULT:      -8.2      1.197      1.619
REMARK  Name = 
REMARK  6 active torsions:
REMARK  status: ('A' for Active; 'I' for Inactive)
REMARK    1  A    between atoms: C_1  and  N_2
REMARK    2  A    between atoms: N_5  and  C_6
REMARK    3  A    between atoms: C_6  and  C_7
REMARK    4  A    between atoms: N_9  and  C_10
REMARK    5  A    between atoms: C_19  and  C_20
REMARK    6  A    between atoms: C_23  and  N_24
REMARK                            x       y       z     vdW  Elec       q    Type
REMARK                         _______ _______ _______ _____ _____    ______ ____
ROOT
ATOM      1  C   UNL     1       2.148  16.302  18.495  0.00  0.00    +0.000 A 
ATOM      2  C   UNL     1       1.416  17.497  18.420  0.00  0.00    +0.000 A 
ATOM      3  C   UNL     1       0.003  17.503  18.448  0.00  0.00    +0.000 A 
ATOM      4  C   UNL     1      -0.720  16.320  18.578  0.00  0.00    +0.000 A 
ATOM      5  C   UNL     1      -0.005  15.152  18.639  0.00  0.00    +0.000 A 
ATOM      6  C   UNL     1       1.414  15.134  18.571  0.00  0.00    +0.000 A 
ATOM      7  C   UNL     1       1.889  13.716  18.742  0.00  0.00    +0.000 C 
ATOM      8  O   UNL     1       3.046  13.338  18.730  0.00  0.00    +0.000 OA
ATOM      9  C   UNL     1       0.671  12.951  18.915  0.00  0.00    +0.000 A 
ATOM     10  C   UNL     1       0.137  11.672  19.112  0.00  0.00    +0.000 A 
ATOM     11  N   UNL     1      -1.218  11.744  19.153  0.00  0.00    +0.000 NA
ATOM     12  N   UNL     1      -1.514  13.056  19.001  0.00  0.00    +0.000 N 
ATOM     13  C   UNL     1      -0.403  13.792  18.841  0.00  0.00    +0.000 A 
ATOM     14  H   UNL     1      -2.487  13.340  19.013  0.00  0.00    +0.000 HD
ENDROOT
BRANCH  10  15
ATOM     15  C   UNL     1       0.840  10.397  19.200  0.00  0.00    +0.000 A 
ATOM     16  C   UNL     1       1.427   9.814  18.078  0.00  0.00    +0.000 A 
ATOM     17  C   UNL     1       1.983   8.534  18.158  0.00  0.00    +0.000 A 
ATOM     18  C   UNL     1       1.957   7.788  19.344  0.00  0.00    +0.000 A 
ATOM     19  C   UNL     1       1.429   8.420  20.476  0.00  0.00    +0.000 A 
ATOM     20  C   UNL     1       0.885   9.707  20.413  0.00  0.00    +0.000 A 
BRANCH  18  21
ATOM     21  N   UNL     1       2.416   6.492  19.402  0.00  0.00    +0.000 N 
ATOM     22  C   UNL     1       3.163   5.858  18.310  0.00  0.00    +0.000 C 
ATOM     23  C   UNL     1       2.449   4.579  17.859  0.00  0.00    +0.000 C 
ATOM     24  O   UNL     1       2.229   3.680  18.960  0.00  0.00    +0.000 OA
ATOM     25  C   UNL     1       1.424   4.314  19.968  0.00  0.00    +0.000 C 
ATOM     26  C   UNL     1       2.092   5.588  20.517  0.00  0.00    +0.000 C 
ENDBRANCH  18  21
ENDBRANCH  10  15
BRANCH   1  29
ATOM     27  C   UNL     1       4.219  16.450  19.744  0.00  0.00    +0.000 C 
ATOM     28  O   UNL     1       3.650  16.558  20.832  0.00  0.00    +0.000 OA
ATOM     29  N   UNL     1       3.556  16.304  18.531  0.00  0.00    +0.000 N 
ATOM     30  H   UNL     1       4.047  15.737  17.844  0.00  0.00    +0.000 HD
BRANCH  27  31
ATOM     31  C   UNL     1       5.754  16.442  19.656  0.00  0.00    +0.000 C 
BRANCH  31  36
ATOM     32  C   UNL     1      10.482  15.667  18.513  0.00  0.00    +0.000 C 
ATOM     33  N   UNL     1       9.182  15.068  18.792  0.00  0.00    +0.000 NA
ATOM     34  C   UNL     1       8.170  15.469  17.798  0.00  0.00    +0.000 C 
ATOM     35  C   UNL     1       6.782  14.849  18.103  0.00  0.00    +0.000 C 
ATOM     36  N   UNL     1       6.263  15.066  19.478  0.00  0.00    +0.000 NA
ATOM     37  C   UNL     1       7.345  14.744  20.436  0.00  0.00    +0.000 C 
ATOM     38  C   UNL     1       8.711  15.410  20.143  0.00  0.00    +0.000 C 
ENDBRANCH  31  36
ENDBRANCH  27  31
ENDBRANCH   1  29
TORSDOF 5
ENDMDL
MODEL 6
REMARK VINA RESULT:      -8.2      4.308      8.008
REMARK  Name = 
REMARK  6 active torsions:
REMARK  status: ('A' for Active; 'I' for Inactive)
REMARK    1  A    between atoms: C_1  and  N_2
REMARK    2  A    between atoms: N_5  and  C_6
REMARK    3  A    between atoms: C_6  and  C_7
REMARK    4  A    between atoms: N_9  and  C_10
REMARK    5  A    between atoms: C_19  and  C_20
REMARK    6  A    between atoms: C_23  and  N_24
REMARK                            x       y       z     vdW  Elec       q    Type
REMARK                         _______ _______ _______ _____ _____    ______ ____
ROOT
ATOM      1  C   UNL     1      -1.310  13.532  20.465  0.00  0.00    +0.000 A 
ATOM      2  C   UNL     1      -1.324  14.903  20.165  0.00  0.00    +0.000 A 
ATOM      3  C   UNL     1      -0.372  15.480  19.294  0.00  0.00    +0.000 A 
ATOM      4  C   UNL     1       0.606  14.702  18.678  0.00  0.00    +0.000 A 
ATOM      5  C   UNL     1       0.626  13.365  18.981  0.00  0.00    +0.000 A 
ATOM      6  C   UNL     1      -0.303  12.785  19.886  0.00  0.00    +0.000 A 
ATOM      7  C   UNL     1      -0.062  11.300  19.941  0.00  0.00    +0.000 C 
ATOM      8  O   UNL     1      -0.673  10.496  20.620  0.00  0.00    +0.000 OA
ATOM      9  C   UNL     1       1.036  11.083  19.021  0.00  0.00    +0.000 A 
ATOM     10  C   UNL     1       1.891  10.128  18.457  0.00  0.00    +0.000 A 
ATOM     11  N   UNL     1       2.765  10.736  17.616  0.00  0.00    +0.000 NA
ATOM     12  N   UNL     1       2.440  12.050  17.646  0.00  0.00    +0.000 N 
ATOM     13  C   UNL     1       1.422  12.282  18.490  0.00  0.00    +0.000 A 
ATOM     14  H   UNL     1       2.969  12.696  17.072  0.00  0.00    +0.000 HD
ENDROOT
BRANCH  10  15
ATOM     15  C   UNL     1       1.955   8.696  18.725  0.00  0.00    +0.000 A 
ATOM     16  C   UNL     1       1.704   8.184  19.996  0.00  0.00    +0.000 A 
ATOM     17  C   UNL     1       1.896   6.824  20.260  0.00  0.00    +0.000 A 
ATOM     18  C   UNL     1       2.359   5.938  19.278  0.00  0.00    +0.000 A 
ATOM     19  C   UNL     1       2.535   6.458  17.991  0.00  0.00    +0.000 A 
ATOM     20  C   UNL     1       2.330   7.812  17.710  0.00  0.00    +0.000 A 
BRANCH  18  21
ATOM     21  N   UNL     1       2.641   4.620  19.559  0.00  0.00    +0.000 N 
ATOM     22  C   UNL     1       3.861   3.948  19.101  0.00  0.00    +0.000 C 
ATOM     23  C   UNL     1       3.499   2.705  18.279  0.00  0.00    +0.000 C 
ATOM     24  O   UNL     1       2.633   1.820  19.012  0.00  0.00    +0.000 OA
ATOM     25  C   UNL     1       1.416   2.496  19.368  0.00  0.00    +0.000 C 
ATOM     26  C   UNL     1       1.683   3.736  20.241  0.00  0.00    +0.000 C 
ENDBRANCH  18  21
ENDBRANCH  10  15
BRANCH   1  29
ATOM     27  C   UNL     1      -2.080  12.813  22.648  0.00  0.00    +0.000 C 
ATOM     28  O   UNL     1      -1.062  13.198  23.224  0.00  0.00    +0.000 OA
ATOM     29  N   UNL     1      -2.298  12.949  21.282  0.00  0.00    +0.000 N 
ATOM     30  H   UNL     1      -3.271  13.089  21.019  0.00  0.00    +0.000 HD
BRANCH  27  31
ATOM     31  C   UNL     1      -3.229  12.158  23.432  0.00  0.00    +0.000 C 
BRANCH  31  36
ATOM     32  C   UNL     1      -7.780  13.951  22.858  0.00  0.00    +0.000 C 
ATOM     33  N   UNL     1      -6.574  13.928  23.677  0.00  0.00    +0.000 NA
ATOM     34  C   UNL     1      -5.406  14.451  22.947  0.00  0.00    +0.000 C 
ATOM     35  C   UNL     1      -4.119  14.410  23.809  0.00  0.00    +0.000 C 
ATOM     36  N   UNL     1      -3.791  13.098  24.423  0.00  0.00    +0.000 NA
ATOM     37  C   UNL     1      -5.019  12.568  25.061  0.00  0.00    +0.000 C 
ATOM     38  C   UNL     1      -6.284  12.572  24.168  0.00  0.00    +0.000 C 
ENDBRANCH  31  36
ENDBRANCH  27  31
ENDBRANCH   1  29
TORSDOF 5
ENDMDL
MODEL 7
REMARK VINA RESULT:      -8.2      0.922      1.090
REMARK  Name = 
REMARK  6 active torsions:
REMARK  status: ('A' for Active; 'I' for Inactive)
REMARK    1  A    between atoms: C_1  and  N_2
REMARK    2  A    between atoms: N_5  and  C_6
REMARK    3  A    between atoms: C_6  and  C_7
REMARK    4  A    between atoms: N_9  and  C_10
REMARK    5  A    between atoms: C_19  and  C_20
REMARK    6  A    between atoms: C_23  and  N_24
REMARK                            x       y       z     vdW  Elec       q    Type
REMARK                         _______ _______ _______ _____ _____    ______ ____
ROOT
ATOM      1  C   UNL     1       1.938  15.111  18.372  0.00  0.00    +0.000 A 
ATOM      2  C   UNL     1       1.164  16.251  18.636  0.00  0.00    +0.000 A 
ATOM      3  C   UNL     1      -0.155  16.151  19.135  0.00  0.00    +0.000 A 
ATOM      4  C   UNL     1      -0.730  14.912  19.409  0.00  0.00    +0.000 A 
ATOM      5  C   UNL     1       0.023  13.798  19.140  0.00  0.00    +0.000 A 
ATOM      6  C   UNL     1       1.335  13.890  18.600  0.00  0.00    +0.000 A 
ATOM      7  C   UNL     1       1.912  12.504  18.496  0.00  0.00    +0.000 C 
ATOM      8  O   UNL     1       3.015  12.213  18.070  0.00  0.00    +0.000 OA
ATOM      9  C   UNL     1       0.866  11.642  19.007  0.00  0.00    +0.000 A 
ATOM     10  C   UNL     1       0.497  10.318  19.274  0.00  0.00    +0.000 A 
ATOM     11  N   UNL     1      -0.767  10.288  19.770  0.00  0.00    +0.000 NA
ATOM     12  N   UNL     1      -1.165  11.580  19.826  0.00  0.00    +0.000 N 
ATOM     13  C   UNL     1      -0.212  12.404  19.360  0.00  0.00    +0.000 A 
ATOM     14  H   UNL     1      -2.089  11.791  20.183  0.00  0.00    +0.000 HD
ENDROOT
BRANCH  10  15
ATOM     15  C   UNL     1       1.252   9.096  19.026  0.00  0.00    +0.000 A 
ATOM     16  C   UNL     1       1.492   8.173  20.041  0.00  0.00    +0.000 A 
ATOM     17  C   UNL     1       2.327   7.074  19.813  0.00  0.00    +0.000 A 
ATOM     18  C   UNL     1       2.960   6.869  18.580  0.00  0.00    +0.000 A 
ATOM     19  C   UNL     1       2.648   7.767  17.553  0.00  0.00    +0.000 A 
ATOM     20  C   UNL     1       1.802   8.860  17.763  0.00  0.00    +0.000 A 
BRANCH  18  21
ATOM     21  N   UNL     1       3.856   5.843  18.382  0.00  0.00    +0.000 N 
ATOM     22  C   UNL     1       5.241   6.062  17.951  0.00  0.00    +0.000 C 
ATOM     23  C   UNL     1       5.519   5.283  16.660  0.00  0.00    +0.000 C 
ATOM     24  O   UNL     1       5.211   3.886  16.810  0.00  0.00    +0.000 OA
ATOM     25  C   UNL     1       3.825   3.715  17.151  0.00  0.00    +0.000 C 
ATOM     26  C   UNL     1       3.467   4.427  18.468  0.00  0.00    +0.000 C 
ENDBRANCH  18  21
ENDBRANCH  10  15
BRANCH   1  29
ATOM     27  C   UNL     1       4.306  15.259  18.867  0.00  0.00    +0.000 C 
ATOM     28  O   UNL     1       4.139  15.189  20.085  0.00  0.00    +0.000 OA
ATOM     29  N   UNL     1       3.274  15.215  17.937  0.00  0.00    +0.000 N 
ATOM     30  H   UNL     1       3.518  14.777  17.052  0.00  0.00    +0.000 HD
BRANCH  27  31
ATOM     31  C   UNL     1       5.719  15.379  18.271  0.00  0.00    +0.000 C 
BRANCH  31  36
ATOM     32  C   UNL     1      10.548  14.769  17.522  0.00  0.00    +0.000 C 
ATOM     33  N   UNL     1       9.506  15.235  18.428  0.00  0.00    +0.000 NA
ATOM     34  C   UNL     1       8.612  14.139  18.843  0.00  0.00    +0.000 C 
ATOM     35  C   UNL     1       7.490  14.635  19.792  0.00  0.00    +0.000 C 
ATOM     36  N   UNL     1       6.692  15.788  19.304  0.00  0.00    +0.000 NA
ATOM     37  C   UNL     1       7.630  16.822  18.809  0.00  0.00    +0.000 C 
ATOM     38  C   UNL     1       8.713  16.317  17.825  0.00  0.00    +0.000 C 
ENDBRANCH  31  36
ENDBRANCH  27  31
ENDBRANCH   1  29
TORSDOF 5
ENDMDL
MODEL 8
REMARK VINA RESULT:      -8.1      1.159      1.726
REMARK  Name = 
REMARK  6 active torsions:
REMARK  status: ('A' for Active; 'I' for Inactive)
REMARK    1  A    between atoms: C_1  and  N_2
REMARK    2  A    between atoms: N_5  and  C_6
REMARK    3  A    between atoms: C_6  and  C_7
REMARK    4  A    between atoms: N_9  and  C_10
REMARK    5  A    between atoms: C_19  and  C_20
REMARK    6  A    between atoms: C_23  and  N_24
REMARK                            x       y       z     vdW  Elec       q    Type
REMARK                         _______ _______ _______ _____ _____    ______ ____
ROOT
ATOM      1  C   UNL     1       1.614  15.563  18.765  0.00  0.00    +0.000 A 
ATOM      2  C   UNL     1       0.765  16.640  19.063  0.00  0.00    +0.000 A 
ATOM      3  C   UNL     1      -0.554  16.437  19.530  0.00  0.00    +0.000 A 
ATOM      4  C   UNL     1      -1.055  15.154  19.736  0.00  0.00    +0.000 A 
ATOM      5  C   UNL     1      -0.229  14.102  19.433  0.00  0.00    +0.000 A 
ATOM      6  C   UNL     1       1.084  14.298  18.926  0.00  0.00    +0.000 A 
ATOM      7  C   UNL     1       1.749  12.957  18.772  0.00  0.00    +0.000 C 
ATOM      8  O   UNL     1       2.875  12.754  18.356  0.00  0.00    +0.000 OA
ATOM      9  C   UNL     1       0.749  12.010  19.223  0.00  0.00    +0.000 A 
ATOM     10  C   UNL     1       0.459  10.655  19.423  0.00  0.00    +0.000 A 
ATOM     11  N   UNL     1      -0.809  10.524  19.891  0.00  0.00    +0.000 NA
ATOM     12  N   UNL     1      -1.288  11.786  19.996  0.00  0.00    +0.000 N 
ATOM     13  C   UNL     1      -0.381  12.687  19.587  0.00  0.00    +0.000 A 
ATOM     14  H   UNL     1      -2.229  11.922  20.343  0.00  0.00    +0.000 HD
ENDROOT
BRANCH  10  15
ATOM     15  C   UNL     1       1.294   9.494  19.137  0.00  0.00    +0.000 A 
ATOM     16  C   UNL     1       1.881   9.315  17.886  0.00  0.00    +0.000 A 
ATOM     17  C   UNL     1       2.570   8.134  17.592  0.00  0.00    +0.000 A 
ATOM     18  C   UNL     1       2.682   7.092  18.523  0.00  0.00    +0.000 A 
ATOM     19  C   UNL     1       2.148   7.322  19.796  0.00  0.00    +0.000 A 
ATOM     20  C   UNL     1       1.472   8.505  20.107  0.00  0.00    +0.000 A 
BRANCH  18  21
ATOM     21  N   UNL     1       3.276   5.891  18.206  0.00  0.00    +0.000 N 
ATOM     22  C   UNL     1       2.514   4.664  17.953  0.00  0.00    +0.000 C 
ATOM     23  C   UNL     1       2.975   3.554  18.905  0.00  0.00    +0.000 C 
ATOM     24  O   UNL     1       4.395   3.340  18.818  0.00  0.00    +0.000 OA
ATOM     25  C   UNL     1       5.102   4.546  19.154  0.00  0.00    +0.000 C 
ATOM     26  C   UNL     1       4.735   5.707  18.211  0.00  0.00    +0.000 C 
ENDBRANCH  18  21
ENDBRANCH  10  15
BRANCH   1  29
ATOM     27  C   UNL     1       3.938  15.974  19.316  0.00  0.00    +0.000 C 
ATOM     28  O   UNL     1       3.736  15.966  20.531  0.00  0.00    +0.000 OA
ATOM     29  N   UNL     1       2.947  15.769  18.362  0.00  0.00    +0.000 N 
ATOM     30  H   UNL     1       3.263  15.301  17.516  0.00  0.00    +0.000 HD
BRANCH  27  31
ATOM     31  C   UNL     1       5.352  16.193  18.754  0.00  0.00    +0.000 C 
BRANCH  31  36
ATOM     32  C   UNL     1      10.263  16.524  18.937  0.00  0.00    +0.000 C 
ATOM     33  N   UNL     1       9.099  15.647  18.978  0.00  0.00    +0.000 NA
ATOM     34  C   UNL     1       8.337  15.691  17.717  0.00  0.00    +0.000 C 
ATOM     35  C   UNL     1       7.088  14.773  17.764  0.00  0.00    +0.000 C 
ATOM     36  N   UNL     1       6.176  14.978  18.919  0.00  0.00    +0.000 NA
ATOM     37  C   UNL     1       6.998  15.024  20.152  0.00  0.00    +0.000 C 
ATOM     38  C   UNL     1       8.212  15.981  20.103  0.00  0.00    +0.000 C 
ENDBRANCH  31  36
ENDBRANCH  27  31
ENDBRANCH   1  29
TORSDOF 5
ENDMDL
MODEL 9
REMARK VINA RESULT:      -8.1      2.827      3.360
REMARK  Name = 
REMARK  6 active torsions:
REMARK  status: ('A' for Active; 'I' for Inactive)
REMARK    1  A    between atoms: C_1  and  N_2
REMARK    2  A    between atoms: N_5  and  C_6
REMARK    3  A    between atoms: C_6  and  C_7
REMARK    4  A    between atoms: N_9  and  C_10
REMARK    5  A    between atoms: C_19  and  C_20
REMARK    6  A    between atoms: C_23  and  N_24
REMARK                            x       y       z     vdW  Elec       q    Type
REMARK                         _______ _______ _______ _____ _____    ______ ____
ROOT
ATOM      1  C   UNL     1       1.827  16.116  20.052  0.00  0.00    +0.000 A 
ATOM      2  C   UNL     1       1.135  17.300  19.753  0.00  0.00    +0.000 A 
ATOM      3  C   UNL     1      -0.050  17.291  18.983  0.00  0.00    +0.000 A 
ATOM      4  C   UNL     1      -0.594  16.098  18.511  0.00  0.00    +0.000 A 
ATOM      5  C   UNL     1       0.088  14.943  18.794  0.00  0.00    +0.000 A 
ATOM      6  C   UNL     1       1.302  14.948  19.533  0.00  0.00    +0.000 A 
ATOM      7  C   UNL     1       1.752  13.526  19.735  0.00  0.00    +0.000 C 
ATOM      8  O   UNL     1       2.756  13.164  20.321  0.00  0.00    +0.000 OA
ATOM      9  C   UNL     1       0.730  12.734  19.082  0.00  0.00    +0.000 A 
ATOM     10  C   UNL     1       0.316  11.436  18.758  0.00  0.00    +0.000 A 
ATOM     11  N   UNL     1      -0.836  11.490  18.041  0.00  0.00    +0.000 NA
ATOM     12  N   UNL     1      -1.137  12.805  17.940  0.00  0.00    +0.000 N 
ATOM     13  C   UNL     1      -0.208  13.566  18.540  0.00  0.00    +0.000 A 
ATOM     14  H   UNL     1      -1.978  13.076  17.445  0.00  0.00    +0.000 HD
ENDROOT
BRANCH  10  15
ATOM     15  C   UNL     1       0.985  10.171  19.040  0.00  0.00    +0.000 A 
ATOM     16  C   UNL     1       1.664   9.473  18.045  0.00  0.00    +0.000 A 
ATOM     17  C   UNL     1       2.188   8.202  18.306  0.00  0.00    +0.000 A 
ATOM     18  C   UNL     1       2.037   7.582  19.553  0.00  0.00    +0.000 A 
ATOM     19  C   UNL     1       1.415   8.330  20.560  0.00  0.00    +0.000 A 
ATOM     20  C   UNL     1       0.903   9.608  20.316  0.00  0.00    +0.000 A 
BRANCH  18  21
ATOM     21  N   UNL     1       2.466   6.294  19.785  0.00  0.00    +0.000 N 
ATOM     22  C   UNL     1       3.654   5.720  19.146  0.00  0.00    +0.000 C 
ATOM     23  C   UNL     1       3.277   4.444  18.385  0.00  0.00    +0.000 C 
ATOM     24  O   UNL     1       2.608   3.498  19.238  0.00  0.00    +0.000 OA
ATOM     25  C   UNL     1       1.406   4.076  19.776  0.00  0.00    +0.000 C 
ATOM     26  C   UNL     1       1.699   5.342  20.602  0.00  0.00    +0.000 C 
ENDBRANCH  18  21
ENDBRANCH  10  15
BRANCH   1  29
ATOM     27  C   UNL     1       2.845  15.924  22.243  0.00  0.00    +0.000 C 
ATOM     28  O   UNL     1       1.773  15.714  22.812  0.00  0.00    +0.000 OA
ATOM     29  N   UNL     1       2.971  16.122  20.872  0.00  0.00    +0.000 N 
ATOM     30  H   UNL     1       3.841  15.778  20.473  0.00  0.00    +0.000 HD
BRANCH  27  31
ATOM     31  C   UNL     1       4.163  15.958  23.033  0.00  0.00    +0.000 C 
BRANCH  31  36
ATOM     32  C   UNL     1       8.904  14.665  23.363  0.00  0.00    +0.000 C 
ATOM     33  N   UNL     1       7.516  14.256  23.535  0.00  0.00    +0.000 NA
ATOM     34  C   UNL     1       6.776  14.281  22.261  0.00  0.00    +0.000 C 
ATOM     35  C   UNL     1       5.294  13.865  22.443  0.00  0.00    +0.000 C 
ATOM     36  N   UNL     1       4.537  14.602  23.487  0.00  0.00    +0.000 NA
ATOM     37  C   UNL     1       5.362  14.634  24.718  0.00  0.00    +0.000 C 
ATOM     38  C   UNL     1       6.825  15.098  24.524  0.00  0.00    +0.000 C 
ENDBRANCH  31  36
ENDBRANCH  27  31
ENDBRANCH   1  29
TORSDOF 5
ENDMDL
