MODEL 1
REMARK VINA RESULT:      -8.9      0.000      0.000
REMARK  Name = 
REMARK  8 active torsions:
REMARK  status: ('A' for Active; 'I' for Inactive)
REMARK    1  A    between atoms: C_1  and  C_2
REMARK    2  A    between atoms: C_2  and  C_3
REMARK    3  A    between atoms: C_3  and  N_4
REMARK    4  A    between atoms: C_3  and  C_26
REMARK    5  A    between atoms: C_5  and  C_7
REMARK    6  A    between atoms: N_14  and  S_15
REMARK    7  A    between atoms: S_15  and  C_18
REMARK    8  A    between atoms: C_21  and  C_22
REMARK                            x       y       z     vdW  Elec       q    Type
REMARK                         _______ _______ _______ _____ _____    ______ ____
ROOT
ATOM      1  C   UNL     1       2.083   8.666  18.367  0.00  0.00    +0.000 A 
ATOM      2  C   UNL     1       3.233   8.314  17.658  0.00  0.00    +0.000 A 
ATOM      3  C   UNL     1       3.903   7.105  17.897  0.00  0.00    +0.000 A 
ATOM      4  C   UNL     1       3.410   6.258  18.904  0.00  0.00    +0.000 A 
ATOM      5  C   UNL     1       2.225   6.570  19.591  0.00  0.00    +0.000 A 
ATOM      6  C   UNL     1       1.951   5.505  20.494  0.00  0.00    +0.000 A 
ATOM      7  C   UNL     1       2.982   4.601  20.400  0.00  0.00    +0.000 A 
ATOM      8  N   UNL     1       3.855   5.056  19.441  0.00  0.00    +0.000 N 
ATOM      9  C   UNL     1       1.557   7.785  19.319  0.00  0.00    +0.000 A 
ENDROOT
BRANCH   1  11
ATOM     10  N   UNL     1       0.126  10.151  18.313  0.00  0.00    +0.000 N 
ATOM     11  C   UNL     1       1.491  10.023  18.152  0.00  0.00    +0.000 C 
ATOM     12  O   UNL     1       2.228  10.958  17.856  0.00  0.00    +0.000 OA
ATOM     13  H   UNL     1      -0.449   9.330  18.436  0.00  0.00    +0.000 HD
BRANCH  10  14
ATOM     14  C   UNL     1      -0.549  11.439  18.190  0.00  0.00    +0.000 C 
BRANCH  14  15
ATOM     15  C   UNL     1      -2.002  11.251  17.762  0.00  0.00    +0.000 A 
ATOM     16  C   UNL     1      -2.300  10.716  16.498  0.00  0.00    +0.000 A 
ATOM     17  C   UNL     1      -3.619  10.669  16.039  0.00  0.00    +0.000 A 
ATOM     18  C   UNL     1      -4.657  11.144  16.837  0.00  0.00    +0.000 A 
ATOM     19  C   UNL     1      -4.384  11.643  18.106  0.00  0.00    +0.000 A 
ATOM     20  C   UNL     1      -3.068  11.685  18.571  0.00  0.00    +0.000 A 
ENDBRANCH  14  15
BRANCH  14  22
ATOM     21  C   UNL     1       0.091  13.640  19.392  0.00  0.00    +0.000 C 
ATOM     22  C   UNL     1      -0.520  12.255  19.504  0.00  0.00    +0.000 C 
ENDBRANCH  14  22
ENDBRANCH  10  14
ENDBRANCH   1  11
BRANCH   8  23
ATOM     23  S   UNL     1       5.377   4.308  19.170  0.00  0.00    +0.000 S 
ATOM     24  O   UNL     1       6.340   5.220  19.770  0.00  0.00    +0.000 OA
ATOM     25  O   UNL     1       5.264   2.933  19.599  0.00  0.00    +0.000 OA
BRANCH  23  26
ATOM     26  C   UNL     1       5.607   4.338  17.410  0.00  0.00    +0.000 A 
ATOM     27  C   UNL     1       4.598   3.861  16.566  0.00  0.00    +0.000 A 
ATOM     28  C   UNL     1       4.829   3.769  15.190  0.00  0.00    +0.000 A 
ATOM     29  C   UNL     1       6.062   4.156  14.652  0.00  0.00    +0.000 A 
ATOM     30  C   UNL     1       6.377   3.932  13.201  0.00  0.00    +0.000 C 
ATOM     31  C   UNL     1       7.020   4.737  15.494  0.00  0.00    +0.000 A 
ATOM     32  C   UNL     1       6.798   4.829  16.871  0.00  0.00    +0.000 A 
ENDBRANCH  23  26
ENDBRANCH   8  23
TORSDOF 6
ENDMDL
MODEL 2
REMARK VINA RESULT:      -8.8      2.931      3.798
REMARK  Name = 
REMARK  8 active torsions:
REMARK  status: ('A' for Active; 'I' for Inactive)
REMARK    1  A    between atoms: C_1  and  C_2
REMARK    2  A    between atoms: C_2  and  C_3
REMARK    3  A    between atoms: C_3  and  N_4
REMARK    4  A    between atoms: C_3  and  C_26
REMARK    5  A    between atoms: C_5  and  C_7
REMARK    6  A    between atoms: N_14  and  S_15
REMARK    7  A    between atoms: S_15  and  C_18
REMARK    8  A    between atoms: C_21  and  C_22
REMARK                            x       y       z     vdW  Elec       q    Type
REMARK                         _______ _______ _______ _____ _____    ______ ____
ROOT
ATOM      1  C   UNL     1       1.555   7.721  20.544  0.00  0.00    +0.000 A 
ATOM      2  C   UNL     1       2.154   7.695  19.283  0.00  0.00    +0.000 A 
ATOM      3  C   UNL     1       2.469   6.486  18.644  0.00  0.00    +0.000 A 
ATOM      4  C   UNL     1       2.200   5.285  19.321  0.00  0.00    +0.000 A 
ATOM      5  C   UNL     1       1.551   5.290  20.567  0.00  0.00    +0.000 A 
ATOM      6  C   UNL     1       1.364   3.938  20.967  0.00  0.00    +0.000 A 
ATOM      7  C   UNL     1       1.946   3.135  20.015  0.00  0.00    +0.000 A 
ATOM      8  N   UNL     1       2.445   3.949  19.026  0.00  0.00    +0.000 N 
ATOM      9  C   UNL     1       1.226   6.521  21.182  0.00  0.00    +0.000 A 
ENDROOT
BRANCH   1  11
ATOM     10  N   UNL     1       0.861  10.077  20.458  0.00  0.00    +0.000 N 
ATOM     11  C   UNL     1       1.362   9.042  21.222  0.00  0.00    +0.000 C 
ATOM     12  O   UNL     1       1.641   9.151  22.411  0.00  0.00    +0.000 OA
ATOM     13  H   UNL     1       0.763   9.969  19.459  0.00  0.00    +0.000 HD
BRANCH  10  14
ATOM     14  C   UNL     1       0.572  11.387  21.030  0.00  0.00    +0.000 C 
BRANCH  14  15
ATOM     15  C   UNL     1       1.072  12.501  20.113  0.00  0.00    +0.000 A 
ATOM     16  C   UNL     1       1.698  12.185  18.898  0.00  0.00    +0.000 A 
ATOM     17  C   UNL     1       2.284  13.185  18.117  0.00  0.00    +0.000 A 
ATOM     18  C   UNL     1       2.243  14.514  18.533  0.00  0.00    +0.000 A 
ATOM     19  C   UNL     1       1.593  14.850  19.717  0.00  0.00    +0.000 A 
ATOM     20  C   UNL     1       1.002  13.853  20.496  0.00  0.00    +0.000 A 
ENDBRANCH  14  15
BRANCH  14  22
ATOM     21  C   UNL     1      -1.319  11.757  22.758  0.00  0.00    +0.000 C 
ATOM     22  C   UNL     1      -0.936  11.604  21.297  0.00  0.00    +0.000 C 
ENDBRANCH  14  22
ENDBRANCH  10  14
ENDBRANCH   1  11
BRANCH   8  23
ATOM     23  S   UNL     1       3.424   3.337  17.755  0.00  0.00    +0.000 S 
ATOM     24  O   UNL     1       3.935   2.074  18.269  0.00  0.00    +0.000 OA
ATOM     25  O   UNL     1       2.646   3.404  16.540  0.00  0.00    +0.000 OA
BRANCH  23  26
ATOM     26  C   UNL     1       4.783   4.472  17.624  0.00  0.00    +0.000 A 
ATOM     27  C   UNL     1       5.674   4.620  18.692  0.00  0.00    +0.000 A 
ATOM     28  C   UNL     1       6.668   5.603  18.636  0.00  0.00    +0.000 A 
ATOM     29  C   UNL     1       6.778   6.435  17.516  0.00  0.00    +0.000 A 
ATOM     30  C   UNL     1       7.744   7.585  17.500  0.00  0.00    +0.000 C 
ATOM     31  C   UNL     1       5.952   6.200  16.408  0.00  0.00    +0.000 A 
ATOM     32  C   UNL     1       4.954   5.222  16.458  0.00  0.00    +0.000 A 
ENDBRANCH  23  26
ENDBRANCH   8  23
TORSDOF 6
ENDMDL
MODEL 3
REMARK VINA RESULT:      -8.7      1.989      3.736
REMARK  Name = 
REMARK  8 active torsions:
REMARK  status: ('A' for Active; 'I' for Inactive)
REMARK    1  A    between atoms: C_1  and  C_2
REMARK    2  A    between atoms: C_2  and  C_3
REMARK    3  A    between atoms: C_3  and  N_4
REMARK    4  A    between atoms: C_3  and  C_26
REMARK    5  A    between atoms: C_5  and  C_7
REMARK    6  A    between atoms: N_14  and  S_15
REMARK    7  A    between atoms: S_15  and  C_18
REMARK    8  A    between atoms: C_21  and  C_22
REMARK                            x       y       z     vdW  Elec       q    Type
REMARK                         _______ _______ _______ _____ _____    ______ ____
ROOT
ATOM      1  C   UNL     1       1.487   8.260  19.776  0.00  0.00    +0.000 A 
ATOM      2  C   UNL     1       2.177   8.075  18.576  0.00  0.00    +0.000 A 
ATOM      3  C   UNL     1       2.802   6.858  18.267  0.00  0.00    +0.000 A 
ATOM      4  C   UNL     1       2.752   5.824  19.218  0.00  0.00    +0.000 A 
ATOM      5  C   UNL     1       2.019   5.974  20.407  0.00  0.00    +0.000 A 
ATOM      6  C   UNL     1       2.105   4.751  21.128  0.00  0.00    +0.000 A 
ATOM      7  C   UNL     1       2.925   3.904  20.422  0.00  0.00    +0.000 A 
ATOM      8  N   UNL     1       3.310   4.552  19.273  0.00  0.00    +0.000 N 
ATOM      9  C   UNL     1       1.381   7.203  20.686  0.00  0.00    +0.000 A 
ENDROOT
BRANCH   1  11
ATOM     10  N   UNL     1       0.552  10.409  19.036  0.00  0.00    +0.000 N 
ATOM     11  C   UNL     1       0.952   9.621  20.097  0.00  0.00    +0.000 C 
ATOM     12  O   UNL     1       0.880   9.975  21.269  0.00  0.00    +0.000 OA
ATOM     13  H   UNL     1       0.745  10.120  18.089  0.00  0.00    +0.000 HD
BRANCH  10  14
ATOM     14  C   UNL     1      -0.044  11.726  19.236  0.00  0.00    +0.000 C 
BRANCH  14  15
ATOM     15  C   UNL     1       0.933  12.829  18.838  0.00  0.00    +0.000 A 
ATOM     16  C   UNL     1       2.223  12.500  18.393  0.00  0.00    +0.000 A 
ATOM     17  C   UNL     1       3.172  13.500  18.160  0.00  0.00    +0.000 A 
ATOM     18  C   UNL     1       2.843  14.839  18.358  0.00  0.00    +0.000 A 
ATOM     19  C   UNL     1       1.558  15.185  18.763  0.00  0.00    +0.000 A 
ATOM     20  C   UNL     1       0.606  14.189  18.990  0.00  0.00    +0.000 A 
ENDBRANCH  14  15
BRANCH  14  22
ATOM     21  C   UNL     1      -2.035  10.630  17.996  0.00  0.00    +0.000 C 
ATOM     22  C   UNL     1      -1.356  11.914  18.439  0.00  0.00    +0.000 C 
ENDBRANCH  14  22
ENDBRANCH  10  14
ENDBRANCH   1  11
BRANCH   8  23
ATOM     23  S   UNL     1       4.500   3.903  18.219  0.00  0.00    +0.000 S 
ATOM     24  O   UNL     1       5.087   2.803  18.971  0.00  0.00    +0.000 OA
ATOM     25  O   UNL     1       3.872   3.695  16.934  0.00  0.00    +0.000 OA
BRANCH  23  26
ATOM     26  C   UNL     1       5.725   5.177  18.054  0.00  0.00    +0.000 A 
ATOM     27  C   UNL     1       6.748   5.288  19.001  0.00  0.00    +0.000 A 
ATOM     28  C   UNL     1       7.637   6.366  18.941  0.00  0.00    +0.000 A 
ATOM     29  C   UNL     1       7.511   7.331  17.935  0.00  0.00    +0.000 A 
ATOM     30  C   UNL     1       8.364   8.567  17.939  0.00  0.00    +0.000 C 
ATOM     31  C   UNL     1       6.553   7.145  16.929  0.00  0.00    +0.000 A 
ATOM     32  C   UNL     1       5.659   6.073  16.984  0.00  0.00    +0.000 A 
ENDBRANCH  23  26
ENDBRANCH   8  23
TORSDOF 6
ENDMDL
MODEL 4
REMARK VINA RESULT:      -8.7      1.877      3.310
REMARK  Name = 
REMARK  8 active torsions:
REMARK  status: ('A' for Active; 'I' for Inactive)
REMARK    1  A    between atoms: C_1  and  C_2
REMARK    2  A    between atoms: C_2  and  C_3
REMARK    3  A    between atoms: C_3  and  N_4
REMARK    4  A    between atoms: C_3  and  C_26
REMARK    5  A    between atoms: C_5  and  C_7
REMARK    6  A    between atoms: N_14  and  S_15
REMARK    7  A    between atoms: S_15  and  C_18
REMARK    8  A    between atoms: C_21  and  C_22
REMARK                            x       y       z     vdW  Elec       q    Type
REMARK                         _______ _______ _______ _____ _____    ______ ____
ROOT
ATOM      1  C   UNL     1       2.580   7.592  18.721  0.00  0.00    +0.000 A 
ATOM      2  C   UNL     1       3.318   7.925  17.584  0.00  0.00    +0.000 A 
ATOM      3  C   UNL     1       4.400   7.143  17.155  0.00  0.00    +0.000 A 
ATOM      4  C   UNL     1       4.758   6.022  17.923  0.00  0.00    +0.000 A 
ATOM      5  C   UNL     1       3.996   5.642  19.040  0.00  0.00    +0.000 A 
ATOM      6  C   UNL     1       4.561   4.448  19.568  0.00  0.00    +0.000 A 
ATOM      7  C   UNL     1       5.679   4.150  18.825  0.00  0.00    +0.000 A 
ATOM      8  N   UNL     1       5.791   5.097  17.835  0.00  0.00    +0.000 N 
ATOM      9  C   UNL     1       2.897   6.435  19.441  0.00  0.00    +0.000 A 
ENDROOT
BRANCH   1  11
ATOM     10  N   UNL     1       1.028   9.446  18.278  0.00  0.00    +0.000 N 
ATOM     11  C   UNL     1       1.519   8.536  19.194  0.00  0.00    +0.000 C 
ATOM     12  O   UNL     1       1.124   8.462  20.353  0.00  0.00    +0.000 OA
ATOM     13  H   UNL     1       1.471   9.546  17.376  0.00  0.00    +0.000 HD
BRANCH  10  14
ATOM     14  C   UNL     1      -0.051  10.369  18.611  0.00  0.00    +0.000 C 
BRANCH  14  15
ATOM     15  C   UNL     1       0.478  11.795  18.748  0.00  0.00    +0.000 A 
ATOM     16  C   UNL     1      -0.415  12.865  18.911  0.00  0.00    +0.000 A 
ATOM     17  C   UNL     1       0.046  14.184  18.898  0.00  0.00    +0.000 A 
ATOM     18  C   UNL     1       1.403  14.452  18.734  0.00  0.00    +0.000 A 
ATOM     19  C   UNL     1       2.307  13.402  18.609  0.00  0.00    +0.000 A 
ATOM     20  C   UNL     1       1.850  12.083  18.628  0.00  0.00    +0.000 A 
ENDBRANCH  14  15
BRANCH  14  22
ATOM     21  C   UNL     1      -2.531   9.864  18.068  0.00  0.00    +0.000 C 
ATOM     22  C   UNL     1      -1.188  10.361  17.563  0.00  0.00    +0.000 C 
ENDBRANCH  14  22
ENDBRANCH  10  14
ENDBRANCH   1  11
BRANCH   8  23
ATOM     23  S   UNL     1       7.173   5.189  16.820  0.00  0.00    +0.000 S 
ATOM     24  O   UNL     1       7.488   6.609  16.766  0.00  0.00    +0.000 OA
ATOM     25  O   UNL     1       8.127   4.217  17.300  0.00  0.00    +0.000 OA
BRANCH  23  26
ATOM     26  C   UNL     1       6.607   4.686  15.214  0.00  0.00    +0.000 A 
ATOM     27  C   UNL     1       5.340   4.113  15.068  0.00  0.00    +0.000 A 
ATOM     28  C   UNL     1       4.945   3.603  13.827  0.00  0.00    +0.000 A 
ATOM     29  C   UNL     1       5.811   3.668  12.729  0.00  0.00    +0.000 A 
ATOM     30  C   UNL     1       5.462   3.002  11.429  0.00  0.00    +0.000 C 
ATOM     31  C   UNL     1       7.031   4.346  12.861  0.00  0.00    +0.000 A 
ATOM     32  C   UNL     1       7.433   4.855  14.100  0.00  0.00    +0.000 A 
ENDBRANCH  23  26
ENDBRANCH   8  23
TORSDOF 6
ENDMDL
MODEL 5
REMARK VINA RESULT:      -8.6      2.204      3.988
REMARK  Name = 
REMARK  8 active torsions:
REMARK  status: ('A' for Active; 'I' for Inactive)
REMARK    1  A    between atoms: C_1  and  C_2
REMARK    2  A    between atoms: C_2  and  C_3
REMARK    3  A    between atoms: C_3  and  N_4
REMARK    4  A    between atoms: C_3  and  C_26
REMARK    5  A    between atoms: C_5  and  C_7
REMARK    6  A    between atoms: N_14  and  S_15
REMARK    7  A    between atoms: S_15  and  C_18
REMARK    8  A    between atoms: C_21  and  C_22
REMARK                            x       y       z     vdW  Elec       q    Type
REMARK                         _______ _______ _______ _____ _____    ______ ____
ROOT
ATOM      1  C   UNL     1       1.504   7.823  20.323  0.00  0.00    +0.000 A 
ATOM      2  C   UNL     1       2.139   7.725  19.083  0.00  0.00    +0.000 A 
ATOM      3  C   UNL     1       2.554   6.489  18.566  0.00  0.00    +0.000 A 
ATOM      4  C   UNL     1       2.350   5.338  19.345  0.00  0.00    +0.000 A 
ATOM      5  C   UNL     1       1.667   5.410  20.570  0.00  0.00    +0.000 A 
ATOM      6  C   UNL     1       1.562   4.089  21.089  0.00  0.00    +0.000 A 
ATOM      7  C   UNL     1       2.225   3.247  20.228  0.00  0.00    +0.000 A 
ATOM      8  N   UNL     1       2.694   4.001  19.180  0.00  0.00    +0.000 N 
ATOM      9  C   UNL     1       1.240   6.664  21.062  0.00  0.00    +0.000 A 
ENDROOT
BRANCH   1  11
ATOM     10  N   UNL     1       0.715  10.126  19.989  0.00  0.00    +0.000 N 
ATOM     11  C   UNL     1       1.201   9.182  20.872  0.00  0.00    +0.000 C 
ATOM     12  O   UNL     1       1.381   9.400  22.065  0.00  0.00    +0.000 OA
ATOM     13  H   UNL     1       0.701   9.933  18.999  0.00  0.00    +0.000 HD
BRANCH  10  14
ATOM     14  C   UNL     1       0.326  11.462  20.427  0.00  0.00    +0.000 C 
BRANCH  14  15
ATOM     15  C   UNL     1       1.378  12.493  20.025  0.00  0.00    +0.000 A 
ATOM     16  C   UNL     1       1.716  13.534  20.903  0.00  0.00    +0.000 A 
ATOM     17  C   UNL     1       2.572  14.560  20.495  0.00  0.00    +0.000 A 
ATOM     18  C   UNL     1       3.110  14.555  19.210  0.00  0.00    +0.000 A 
ATOM     19  C   UNL     1       2.816  13.511  18.339  0.00  0.00    +0.000 A 
ATOM     20  C   UNL     1       1.967  12.480  18.747  0.00  0.00    +0.000 A 
ENDBRANCH  14  15
BRANCH  14  22
ATOM     21  C   UNL     1      -1.631  10.981  18.803  0.00  0.00    +0.000 C 
ATOM     22  C   UNL     1      -1.042  11.902  19.856  0.00  0.00    +0.000 C 
ENDBRANCH  14  22
ENDBRANCH  10  14
ENDBRANCH   1  11
BRANCH   8  23
ATOM     23  S   UNL     1       3.749   3.349  17.993  0.00  0.00    +0.000 S 
ATOM     24  O   UNL     1       4.286   2.144  18.610  0.00  0.00    +0.000 OA
ATOM     25  O   UNL     1       3.021   3.304  16.746  0.00  0.00    +0.000 OA
BRANCH  23  26
ATOM     26  C   UNL     1       5.069   4.527  17.841  0.00  0.00    +0.000 A 
ATOM     27  C   UNL     1       5.917   4.769  18.926  0.00  0.00    +0.000 A 
ATOM     28  C   UNL     1       6.874   5.785  18.847  0.00  0.00    +0.000 A 
ATOM     29  C   UNL     1       6.992   6.558  17.686  0.00  0.00    +0.000 A 
ATOM     30  C   UNL     1       7.914   7.741  17.635  0.00  0.00    +0.000 C 
ATOM     31  C   UNL     1       6.213   6.229  16.567  0.00  0.00    +0.000 A 
ATOM     32  C   UNL     1       5.251   5.217  16.640  0.00  0.00    +0.000 A 
ENDBRANCH  23  26
ENDBRANCH   8  23
TORSDOF 6
ENDMDL
MODEL 6
REMARK VINA RESULT:      -8.6      3.480      9.928
REMARK  Name = 
REMARK  8 active torsions:
REMARK  status: ('A' for Active; 'I' for Inactive)
REMARK    1  A    between atoms: C_1  and  C_2
REMARK    2  A    between atoms: C_2  and  C_3
REMARK    3  A    between atoms: C_3  and  N_4
REMARK    4  A    between atoms: C_3  and  C_26
REMARK    5  A    between atoms: C_5  and  C_7
REMARK    6  A    between atoms: N_14  and  S_15
REMARK    7  A    between atoms: S_15  and  C_18
REMARK    8  A    between atoms: C_21  and  C_22
REMARK                            x       y       z     vdW  Elec       q    Type
REMARK                         _______ _______ _______ _____ _____    ______ ____
ROOT
ATOM      1  C   UNL     1       1.533   9.142  19.443  0.00  0.00    +0.000 A 
ATOM      2  C   UNL     1       1.368  10.485  19.101  0.00  0.00    +0.000 A 
ATOM      3  C   UNL     1       0.693  11.381  19.944  0.00  0.00    +0.000 A 
ATOM      4  C   UNL     1       0.147  10.887  21.141  0.00  0.00    +0.000 A 
ATOM      5  C   UNL     1       0.349   9.551  21.526  0.00  0.00    +0.000 A 
ATOM      6  C   UNL     1      -0.263   9.367  22.797  0.00  0.00    +0.000 A 
ATOM      7  C   UNL     1      -0.876  10.547  23.142  0.00  0.00    +0.000 A 
ATOM      8  N   UNL     1      -0.625  11.459  22.145  0.00  0.00    +0.000 N 
ATOM      9  C   UNL     1       1.049   8.672  20.669  0.00  0.00    +0.000 A 
ENDROOT
BRANCH   1  11
ATOM     10  N   UNL     1       2.525   6.963  18.888  0.00  0.00    +0.000 N 
ATOM     11  C   UNL     1       2.151   8.215  18.443  0.00  0.00    +0.000 C 
ATOM     12  O   UNL     1       2.290   8.591  17.284  0.00  0.00    +0.000 OA
ATOM     13  H   UNL     1       2.501   6.748  19.874  0.00  0.00    +0.000 HD
BRANCH  10  14
ATOM     14  C   UNL     1       3.077   5.957  17.987  0.00  0.00    +0.000 C 
BRANCH  14  15
ATOM     15  C   UNL     1       4.601   5.934  18.068  0.00  0.00    +0.000 A 
ATOM     16  C   UNL     1       5.239   5.335  19.165  0.00  0.00    +0.000 A 
ATOM     17  C   UNL     1       6.625   5.429  19.322  0.00  0.00    +0.000 A 
ATOM     18  C   UNL     1       7.392   6.113  18.381  0.00  0.00    +0.000 A 
ATOM     19  C   UNL     1       6.780   6.681  17.268  0.00  0.00    +0.000 A 
ATOM     20  C   UNL     1       5.397   6.582  17.106  0.00  0.00    +0.000 A 
ENDBRANCH  14  15
BRANCH  14  22
ATOM     21  C   UNL     1       2.788   3.513  17.185  0.00  0.00    +0.000 C 
ATOM     22  C   UNL     1       2.543   4.535  18.280  0.00  0.00    +0.000 C 
ENDBRANCH  14  22
ENDBRANCH  10  14
ENDBRANCH   1  11
BRANCH   8  23
ATOM     23  S   UNL     1      -1.388  12.997  22.106  0.00  0.00    +0.000 S 
ATOM     24  O   UNL     1      -1.725  13.267  23.497  0.00  0.00    +0.000 OA
ATOM     25  O   UNL     1      -0.538  13.882  21.345  0.00  0.00    +0.000 OA
BRANCH  23  26
ATOM     26  C   UNL     1      -2.899  12.747  21.209  0.00  0.00    +0.000 A 
ATOM     27  C   UNL     1      -4.128  12.853  21.868  0.00  0.00    +0.000 A 
ATOM     28  C   UNL     1      -5.310  12.533  21.191  0.00  0.00    +0.000 A 
ATOM     29  C   UNL     1      -5.269  12.112  19.857  0.00  0.00    +0.000 A 
ATOM     30  C   UNL     1      -6.509  11.631  19.160  0.00  0.00    +0.000 C 
ATOM     31  C   UNL     1      -4.043  12.121  19.177  0.00  0.00    +0.000 A 
ATOM     32  C   UNL     1      -2.857  12.435  19.848  0.00  0.00    +0.000 A 
ENDBRANCH  23  26
ENDBRANCH   8  23
TORSDOF 6
ENDMDL
MODEL 7
REMARK VINA RESULT:      -8.6      4.089     10.436
REMARK  Name = 
REMARK  8 active torsions:
REMARK  status: ('A' for Active; 'I' for Inactive)
REMARK    1  A    between atoms: C_1  and  C_2
REMARK    2  A    between atoms: C_2  and  C_3
REMARK    3  A    between atoms: C_3  and  N_4
REMARK    4  A    between atoms: C_3  and  C_26
REMARK    5  A    between atoms: C_5  and  C_7
REMARK    6  A    between atoms: N_14  and  S_15
REMARK    7  A    between atoms: S_15  and  C_18
REMARK    8  A    between atoms: C_21  and  C_22
REMARK                            x       y       z     vdW  Elec       q    Type
REMARK                         _______ _______ _______ _____ _____    ______ ____
ROOT
ATOM      1  C   UNL     1       1.457   9.246  19.502  0.00  0.00    +0.000 A 
ATOM      2  C   UNL     1       1.392  10.620  19.267  0.00  0.00    +0.000 A 
ATOM      3  C   UNL     1       0.738  11.488  20.154  0.00  0.00    +0.000 A 
ATOM      4  C   UNL     1       0.108  10.936  21.282  0.00  0.00    +0.000 A 
ATOM      5  C   UNL     1       0.207   9.564  21.563  0.00  0.00    +0.000 A 
ATOM      6  C   UNL     1      -0.472   9.319  22.789  0.00  0.00    +0.000 A 
ATOM      7  C   UNL     1      -1.025  10.506  23.205  0.00  0.00    +0.000 A 
ATOM      8  N   UNL     1      -0.672  11.476  22.298  0.00  0.00    +0.000 N 
ATOM      9  C   UNL     1       0.889   8.712  20.664  0.00  0.00    +0.000 A 
ENDROOT
BRANCH   1  11
ATOM     10  N   UNL     1       2.466   7.103  18.846  0.00  0.00    +0.000 N 
ATOM     11  C   UNL     1       2.060   8.363  18.454  0.00  0.00    +0.000 C 
ATOM     12  O   UNL     1       2.159   8.780  17.305  0.00  0.00    +0.000 OA
ATOM     13  H   UNL     1       2.475   6.855  19.824  0.00  0.00    +0.000 HD
BRANCH  10  14
ATOM     14  C   UNL     1       3.007   6.137  17.896  0.00  0.00    +0.000 C 
BRANCH  14  15
ATOM     15  C   UNL     1       4.530   6.073  17.996  0.00  0.00    +0.000 A 
ATOM     16  C   UNL     1       5.137   5.367  19.046  0.00  0.00    +0.000 A 
ATOM     17  C   UNL     1       6.522   5.416  19.229  0.00  0.00    +0.000 A 
ATOM     18  C   UNL     1       7.318   6.160  18.362  0.00  0.00    +0.000 A 
ATOM     19  C   UNL     1       6.737   6.836  17.293  0.00  0.00    +0.000 A 
ATOM     20  C   UNL     1       5.354   6.783  17.104  0.00  0.00    +0.000 A 
ENDBRANCH  14  15
BRANCH  14  22
ATOM     21  C   UNL     1       1.604   4.525  19.355  0.00  0.00    +0.000 C 
ATOM     22  C   UNL     1       2.436   4.715  18.100  0.00  0.00    +0.000 C 
ENDBRANCH  14  22
ENDBRANCH  10  14
ENDBRANCH   1  11
BRANCH   8  23
ATOM     23  S   UNL     1      -1.334  13.060  22.358  0.00  0.00    +0.000 S 
ATOM     24  O   UNL     1      -0.666  13.688  23.489  0.00  0.00    +0.000 OA
ATOM     25  O   UNL     1      -1.252  13.612  21.025  0.00  0.00    +0.000 OA
BRANCH  23  26
ATOM     26  C   UNL     1      -3.044  12.836  22.778  0.00  0.00    +0.000 A 
ATOM     27  C   UNL     1      -4.014  12.820  21.770  0.00  0.00    +0.000 A 
ATOM     28  C   UNL     1      -5.369  12.770  22.111  0.00  0.00    +0.000 A 
ATOM     29  C   UNL     1      -5.760  12.731  23.455  0.00  0.00    +0.000 A 
ATOM     30  C   UNL     1      -7.208  12.821  23.841  0.00  0.00    +0.000 C 
ATOM     31  C   UNL     1      -4.776  12.633  24.448  0.00  0.00    +0.000 A 
ATOM     32  C   UNL     1      -3.419  12.686  24.115  0.00  0.00    +0.000 A 
ENDBRANCH  23  26
ENDBRANCH   8  23
TORSDOF 6
ENDMDL
MODEL 8
REMARK VINA RESULT:      -8.5      1.770      2.693
REMARK  Name = 
REMARK  8 active torsions:
REMARK  status: ('A' for Active; 'I' for Inactive)
REMARK    1  A    between atoms: C_1  and  C_2
REMARK    2  A    between atoms: C_2  and  C_3
REMARK    3  A    between atoms: C_3  and  N_4
REMARK    4  A    between atoms: C_3  and  C_26
REMARK    5  A    between atoms: C_5  and  C_7
REMARK    6  A    between atoms: N_14  and  S_15
REMARK    7  A    between atoms: S_15  and  C_18
REMARK    8  A    between atoms: C_21  and  C_22
REMARK                            x       y       z     vdW  Elec       q    Type
REMARK                         _______ _______ _______ _____ _____    ______ ____
ROOT
ATOM      1  C   UNL     1       1.626   8.632  19.121  0.00  0.00    +0.000 A 
ATOM      2  C   UNL     1       2.446   8.300  18.041  0.00  0.00    +0.000 A 
ATOM      3  C   UNL     1       3.061   7.043  17.943  0.00  0.00    +0.000 A 
ATOM      4  C   UNL     1       2.864   6.122  18.986  0.00  0.00    +0.000 A 
ATOM      5  C   UNL     1       2.002   6.419  20.054  0.00  0.00    +0.000 A 
ATOM      6  C   UNL     1       1.960   5.282  20.909  0.00  0.00    +0.000 A 
ATOM      7  C   UNL     1       2.828   4.345  20.401  0.00  0.00    +0.000 A 
ATOM      8  N   UNL     1       3.367   4.853  19.244  0.00  0.00    +0.000 N 
ATOM      9  C   UNL     1       1.378   7.685  20.121  0.00  0.00    +0.000 A 
ENDROOT
BRANCH   1  11
ATOM     10  N   UNL     1      -0.049  10.221  19.962  0.00  0.00    +0.000 N 
ATOM     11  C   UNL     1       1.104  10.031  19.227  0.00  0.00    +0.000 C 
ATOM     12  O   UNL     1       1.714  10.941  18.675  0.00  0.00    +0.000 OA
ATOM     13  H   UNL     1      -0.577   9.427  20.292  0.00  0.00    +0.000 HD
BRANCH  10  14
ATOM     14  C   UNL     1      -0.611  11.549  20.184  0.00  0.00    +0.000 C 
BRANCH  14  15
ATOM     15  C   UNL     1      -1.974  11.681  19.510  0.00  0.00    +0.000 A 
ATOM     16  C   UNL     1      -2.974  12.475  20.093  0.00  0.00    +0.000 A 
ATOM     17  C   UNL     1      -4.268  12.493  19.563  0.00  0.00    +0.000 A 
ATOM     18  C   UNL     1      -4.577  11.728  18.441  0.00  0.00    +0.000 A 
ATOM     19  C   UNL     1      -3.588  10.965  17.828  0.00  0.00    +0.000 A 
ATOM     20  C   UNL     1      -2.294  10.950  18.351  0.00  0.00    +0.000 A 
ENDBRANCH  14  15
BRANCH  14  22
ATOM     21  C   UNL     1      -0.671  10.704  22.630  0.00  0.00    +0.000 C 
ATOM     22  C   UNL     1      -0.764  11.889  21.685  0.00  0.00    +0.000 C 
ENDBRANCH  14  22
ENDBRANCH  10  14
ENDBRANCH   1  11
BRANCH   8  23
ATOM     23  S   UNL     1       4.650   4.066  18.418  0.00  0.00    +0.000 S 
ATOM     24  O   UNL     1       5.160   3.099  19.380  0.00  0.00    +0.000 OA
ATOM     25  O   UNL     1       4.146   3.659  17.126  0.00  0.00    +0.000 OA
BRANCH  23  26
ATOM     26  C   UNL     1       5.888   5.314  18.178  0.00  0.00    +0.000 A 
ATOM     27  C   UNL     1       6.879   5.510  19.146  0.00  0.00    +0.000 A 
ATOM     28  C   UNL     1       7.777   6.574  19.017  0.00  0.00    +0.000 A 
ATOM     29  C   UNL     1       7.692   7.442  17.921  0.00  0.00    +0.000 A 
ATOM     30  C   UNL     1       8.554   8.669  17.839  0.00  0.00    +0.000 C 
ATOM     31  C   UNL     1       6.769   7.166  16.903  0.00  0.00    +0.000 A 
ATOM     32  C   UNL     1       5.866   6.106  17.027  0.00  0.00    +0.000 A 
ENDBRANCH  23  26
ENDBRANCH   8  23
TORSDOF 6
ENDMDL
MODEL 9
REMARK VINA RESULT:      -8.5      0.421      1.053
REMARK  Name = 
REMARK  8 active torsions:
REMARK  status: ('A' for Active; 'I' for Inactive)
REMARK    1  A    between atoms: C_1  and  C_2
REMARK    2  A    between atoms: C_2  and  C_3
REMARK    3  A    between atoms: C_3  and  N_4
REMARK    4  A    between atoms: C_3  and  C_26
REMARK    5  A    between atoms: C_5  and  C_7
REMARK    6  A    between atoms: N_14  and  S_15
REMARK    7  A    between atoms: S_15  and  C_18
REMARK    8  A    between atoms: C_21  and  C_22
REMARK                            x       y       z     vdW  Elec       q    Type
REMARK                         _______ _______ _______ _____ _____    ______ ____
ROOT
ATOM      1  C   UNL     1       2.063   8.460  18.344  0.00  0.00    +0.000 A 
ATOM      2  C   UNL     1       3.256   8.135  17.694  0.00  0.00    +0.000 A 
ATOM      3  C   UNL     1       3.937   6.939  17.964  0.00  0.00    +0.000 A 
ATOM      4  C   UNL     1       3.411   6.078  18.941  0.00  0.00    +0.000 A 
ATOM      5  C   UNL     1       2.186   6.363  19.567  0.00  0.00    +0.000 A 
ATOM      6  C   UNL     1       1.887   5.289  20.451  0.00  0.00    +0.000 A 
ATOM      7  C   UNL     1       2.940   4.407  20.408  0.00  0.00    +0.000 A 
ATOM      8  N   UNL     1       3.852   4.883  19.497  0.00  0.00    +0.000 N 
ATOM      9  C   UNL     1       1.507   7.565  19.264  0.00  0.00    +0.000 A 
ENDROOT
BRANCH   1  11
ATOM     10  N   UNL     1       0.156   9.999  18.527  0.00  0.00    +0.000 N 
ATOM     11  C   UNL     1       1.455   9.807  18.102  0.00  0.00    +0.000 C 
ATOM     12  O   UNL     1       2.124  10.676  17.555  0.00  0.00    +0.000 OA
ATOM     13  H   UNL     1      -0.389   9.218  18.861  0.00  0.00    +0.000 HD
BRANCH  10  14
ATOM     14  C   UNL     1      -0.514  11.289  18.401  0.00  0.00    +0.000 C 
BRANCH  14  15
ATOM     15  C   UNL     1      -1.917  11.117  17.825  0.00  0.00    +0.000 A 
ATOM     16  C   UNL     1      -2.099  10.462  16.597  0.00  0.00    +0.000 A 
ATOM     17  C   UNL     1      -3.359  10.421  15.993  0.00  0.00    +0.000 A 
ATOM     18  C   UNL     1      -4.453  11.022  16.610  0.00  0.00    +0.000 A 
ATOM     19  C   UNL     1      -4.298  11.643  17.845  0.00  0.00    +0.000 A 
ATOM     20  C   UNL     1      -3.043  11.680  18.455  0.00  0.00    +0.000 A 
ENDBRANCH  14  15
BRANCH  14  22
ATOM     21  C   UNL     1      -0.433  11.182  20.986  0.00  0.00    +0.000 C 
ATOM     22  C   UNL     1      -0.619  12.042  19.748  0.00  0.00    +0.000 C 
ENDBRANCH  14  22
ENDBRANCH  10  14
ENDBRANCH   1  11
BRANCH   8  23
ATOM     23  S   UNL     1       5.401   4.167  19.303  0.00  0.00    +0.000 S 
ATOM     24  O   UNL     1       6.321   5.136  19.881  0.00  0.00    +0.000 OA
ATOM     25  O   UNL     1       5.315   2.812  19.797  0.00  0.00    +0.000 OA
BRANCH  23  26
ATOM     26  C   UNL     1       5.677   4.118  17.550  0.00  0.00    +0.000 A 
ATOM     27  C   UNL     1       6.903   4.540  17.025  0.00  0.00    +0.000 A 
ATOM     28  C   UNL     1       7.075   4.620  15.640  0.00  0.00    +0.000 A 
ATOM     29  C   UNL     1       6.029   4.274  14.776  0.00  0.00    +0.000 A 
ATOM     30  C   UNL     1       6.147   4.488  13.294  0.00  0.00    +0.000 C 
ATOM     31  C   UNL     1       4.847   3.746  15.314  0.00  0.00    +0.000 A 
ATOM     32  C   UNL     1       4.666   3.667  16.698  0.00  0.00    +0.000 A 
ENDBRANCH  23  26
ENDBRANCH   8  23
TORSDOF 6
ENDMDL
