MODEL 1
REMARK VINA RESULT:      -8.3      0.000      0.000
REMARK  Name = 
REMARK  3 active torsions:
REMARK  status: ('A' for Active; 'I' for Inactive)
REMARK    1  A    between atoms: C_1  and  C_2
REMARK    2  A    between atoms: C_4  and  C_5
REMARK    3  A    between atoms: C_4  and  C_6
REMARK                            x       y       z     vdW  Elec       q    Type
REMARK                         _______ _______ _______ _____ _____    ______ ____
ROOT
ATOM      1  C   UNL     1      -0.601   8.799  22.026  0.00  0.00    +0.000 C 
ATOM      2  C   UNL     1      -0.059   9.728  20.979  0.00  0.00    +0.000 C 
ATOM      3  C   UNL     1      -0.649  10.931  20.843  0.00  0.00    +0.000 C 
ATOM      4  C   UNL     1      -0.367  11.943  19.771  0.00  0.00    +0.000 C 
ATOM      5  C   UNL     1      -1.593  12.079  18.852  0.00  0.00    +0.000 C 
ATOM      6  C   UNL     1      -0.054  13.294  20.426  0.00  0.00    +0.000 C 
ATOM      7  N   UNL     1       0.788  11.566  18.969  0.00  0.00    +0.000 N 
ATOM      8  C   UNL     1       1.201  10.231  18.907  0.00  0.00    +0.000 A 
ATOM      9  C   UNL     1       1.988   9.841  17.815  0.00  0.00    +0.000 A 
ATOM     10  C   UNL     1       2.472   8.540  17.699  0.00  0.00    +0.000 A 
ATOM     11  C   UNL     1       2.290   7.630  18.739  0.00  0.00    +0.000 A 
ATOM     12  C   UNL     1       1.629   8.071  19.917  0.00  0.00    +0.000 A 
ATOM     13  C   UNL     1       0.955   9.318  19.962  0.00  0.00    +0.000 A 
ATOM     14  C   UNL     1       1.918   7.190  21.110  0.00  0.00    +0.000 C 
ATOM     15  O   UNL     1       1.674   5.805  20.851  0.00  0.00    +0.000 OA
ATOM     16  C   UNL     1       2.359   5.357  19.751  0.00  0.00    +0.000 A 
ATOM     17  C   UNL     1       2.639   3.986  19.707  0.00  0.00    +0.000 A 
ATOM     18  F   UNL     1       2.285   3.191  20.727  0.00  0.00    +0.000 F 
ATOM     19  C   UNL     1       3.285   3.428  18.617  0.00  0.00    +0.000 A 
ATOM     20  C   UNL     1       3.643   4.257  17.568  0.00  0.00    +0.000 A 
ATOM     21  F   UNL     1       4.251   3.731  16.496  0.00  0.00    +0.000 F 
ATOM     22  C   UNL     1       3.368   5.627  17.589  0.00  0.00    +0.000 A 
ATOM     23  C   UNL     1       2.711   6.211  18.684  0.00  0.00    +0.000 A 
ATOM     24  H   UNL     1       0.899  12.093  18.111  0.00  0.00    +0.000 HD
ENDROOT
TORSDOF 0
ENDMDL
MODEL 2
REMARK VINA RESULT:      -7.7      5.860      7.978
REMARK  Name = 
REMARK  3 active torsions:
REMARK  status: ('A' for Active; 'I' for Inactive)
REMARK    1  A    between atoms: C_1  and  C_2
REMARK    2  A    between atoms: C_4  and  C_5
REMARK    3  A    between atoms: C_4  and  C_6
REMARK                            x       y       z     vdW  Elec       q    Type
REMARK                         _______ _______ _______ _____ _____    ______ ____
ROOT
ATOM      1  C   UNL     1      -2.898  12.244  22.926  0.00  0.00    +0.000 C 
ATOM      2  C   UNL     1      -4.179  12.909  22.514  0.00  0.00    +0.000 C 
ATOM      3  C   UNL     1      -5.005  13.338  23.488  0.00  0.00    +0.000 C 
ATOM      4  C   UNL     1      -6.389  13.888  23.302  0.00  0.00    +0.000 C 
ATOM      5  C   UNL     1      -7.417  12.913  23.898  0.00  0.00    +0.000 C 
ATOM      6  C   UNL     1      -6.488  15.247  24.007  0.00  0.00    +0.000 C 
ATOM      7  N   UNL     1      -6.696  14.100  21.895  0.00  0.00    +0.000 N 
ATOM      8  C   UNL     1      -5.996  13.403  20.905  0.00  0.00    +0.000 A 
ATOM      9  C   UNL     1      -6.597  13.281  19.644  0.00  0.00    +0.000 A 
ATOM     10  C   UNL     1      -5.949  12.635  18.593  0.00  0.00    +0.000 A 
ATOM     11  C   UNL     1      -4.630  12.211  18.739  0.00  0.00    +0.000 A 
ATOM     12  C   UNL     1      -3.964  12.476  19.966  0.00  0.00    +0.000 A 
ATOM     13  C   UNL     1      -4.672  12.940  21.104  0.00  0.00    +0.000 A 
ATOM     14  C   UNL     1      -2.459  12.419  19.836  0.00  0.00    +0.000 C 
ATOM     15  O   UNL     1      -1.999  11.208  19.234  0.00  0.00    +0.000 OA
ATOM     16  C   UNL     1      -2.591  10.976  18.019  0.00  0.00    +0.000 A 
ATOM     17  C   UNL     1      -1.878  10.175  17.119  0.00  0.00    +0.000 A 
ATOM     18  F   UNL     1      -0.660   9.716  17.443  0.00  0.00    +0.000 F 
ATOM     19  C   UNL     1      -2.411   9.845  15.885  0.00  0.00    +0.000 A 
ATOM     20  C   UNL     1      -3.670  10.322  15.562  0.00  0.00    +0.000 A 
ATOM     21  F   UNL     1      -4.209   9.997  14.380  0.00  0.00    +0.000 F 
ATOM     22  C   UNL     1      -4.401  11.119  16.447  0.00  0.00    +0.000 A 
ATOM     23  C   UNL     1      -3.879  11.461  17.705  0.00  0.00    +0.000 A 
ATOM     24  H   UNL     1      -7.675  14.269  21.695  0.00  0.00    +0.000 HD
ENDROOT
TORSDOF 0
ENDMDL
MODEL 3
REMARK VINA RESULT:      -7.4      2.665      4.697
REMARK  Name = 
REMARK  3 active torsions:
REMARK  status: ('A' for Active; 'I' for Inactive)
REMARK    1  A    between atoms: C_1  and  C_2
REMARK    2  A    between atoms: C_4  and  C_5
REMARK    3  A    between atoms: C_4  and  C_6
REMARK                            x       y       z     vdW  Elec       q    Type
REMARK                         _______ _______ _______ _____ _____    ______ ____
ROOT
ATOM      1  C   UNL     1      -0.539  13.870  19.501  0.00  0.00    +0.000 C 
ATOM      2  C   UNL     1      -1.098  13.374  20.802  0.00  0.00    +0.000 C 
ATOM      3  C   UNL     1      -1.597  14.285  21.660  0.00  0.00    +0.000 C 
ATOM      4  C   UNL     1      -2.062  14.025  23.063  0.00  0.00    +0.000 C 
ATOM      5  C   UNL     1      -1.116  14.718  24.058  0.00  0.00    +0.000 C 
ATOM      6  C   UNL     1      -3.485  14.573  23.229  0.00  0.00    +0.000 C 
ATOM      7  N   UNL     1      -2.101  12.601  23.359  0.00  0.00    +0.000 N 
ATOM      8  C   UNL     1      -1.329  11.702  22.616  0.00  0.00    +0.000 A 
ATOM      9  C   UNL     1      -1.039  10.457  23.192  0.00  0.00    +0.000 A 
ATOM     10  C   UNL     1      -0.309   9.492  22.502  0.00  0.00    +0.000 A 
ATOM     11  C   UNL     1       0.038   9.697  21.169  0.00  0.00    +0.000 A 
ATOM     12  C   UNL     1      -0.392  10.894  20.533  0.00  0.00    +0.000 A 
ATOM     13  C   UNL     1      -0.949  11.965  21.276  0.00  0.00    +0.000 A 
ATOM     14  C   UNL     1      -0.386  10.785  19.025  0.00  0.00    +0.000 C 
ATOM     15  O   UNL     1       0.864  10.327  18.505  0.00  0.00    +0.000 OA
ATOM     16  C   UNL     1       1.255   9.140  19.070  0.00  0.00    +0.000 A 
ATOM     17  C   UNL     1       2.121   8.344  18.310  0.00  0.00    +0.000 A 
ATOM     18  F   UNL     1       2.487   8.729  17.079  0.00  0.00    +0.000 F 
ATOM     19  C   UNL     1       2.610   7.149  18.811  0.00  0.00    +0.000 A 
ATOM     20  C   UNL     1       2.228   6.763  20.084  0.00  0.00    +0.000 A 
ATOM     21  F   UNL     1       2.707   5.620  20.592  0.00  0.00    +0.000 F 
ATOM     22  C   UNL     1       1.369   7.546  20.861  0.00  0.00    +0.000 A 
ATOM     23  C   UNL     1       0.865   8.762  20.372  0.00  0.00    +0.000 A 
ATOM     24  H   UNL     1      -2.203  12.374  24.341  0.00  0.00    +0.000 HD
ENDROOT
TORSDOF 0
ENDMDL
MODEL 4
REMARK VINA RESULT:      -7.4      1.543      3.317
REMARK  Name = 
REMARK  3 active torsions:
REMARK  status: ('A' for Active; 'I' for Inactive)
REMARK    1  A    between atoms: C_1  and  C_2
REMARK    2  A    between atoms: C_4  and  C_5
REMARK    3  A    between atoms: C_4  and  C_6
REMARK                            x       y       z     vdW  Elec       q    Type
REMARK                         _______ _______ _______ _____ _____    ______ ____
ROOT
ATOM      1  C   UNL     1       2.473  12.002  17.870  0.00  0.00    +0.000 C 
ATOM      2  C   UNL     1       1.433  12.006  18.952  0.00  0.00    +0.000 C 
ATOM      3  C   UNL     1       1.024  13.200  19.423  0.00  0.00    +0.000 C 
ATOM      4  C   UNL     1       0.114  13.429  20.595  0.00  0.00    +0.000 C 
ATOM      5  C   UNL     1       0.900  14.096  21.737  0.00  0.00    +0.000 C 
ATOM      6  C   UNL     1      -1.045  14.334  20.161  0.00  0.00    +0.000 C 
ATOM      7  N   UNL     1      -0.459  12.182  21.080  0.00  0.00    +0.000 N 
ATOM      8  C   UNL     1       0.169  10.962  20.808  0.00  0.00    +0.000 A 
ATOM      9  C   UNL     1      -0.132   9.873  21.639  0.00  0.00    +0.000 A 
ATOM     10  C   UNL     1       0.421   8.615  21.412  0.00  0.00    +0.000 A 
ATOM     11  C   UNL     1       1.186   8.382  20.272  0.00  0.00    +0.000 A 
ATOM     12  C   UNL     1       1.362   9.445  19.345  0.00  0.00    +0.000 A 
ATOM     13  C   UNL     1       0.983  10.773  19.664  0.00  0.00    +0.000 A 
ATOM     14  C   UNL     1       1.770   8.958  17.973  0.00  0.00    +0.000 C 
ATOM     15  O   UNL     1       2.904   8.089  18.006  0.00  0.00    +0.000 OA
ATOM     16  C   UNL     1       2.718   7.026  18.852  0.00  0.00    +0.000 A 
ATOM     17  C   UNL     1       3.467   5.875  18.582  0.00  0.00    +0.000 A 
ATOM     18  F   UNL     1       4.277   5.830  17.514  0.00  0.00    +0.000 F 
ATOM     19  C   UNL     1       3.384   4.764  19.405  0.00  0.00    +0.000 A 
ATOM     20  C   UNL     1       2.546   4.822  20.506  0.00  0.00    +0.000 A 
ATOM     21  F   UNL     1       2.469   3.764  21.325  0.00  0.00    +0.000 F 
ATOM     22  C   UNL     1       1.794   5.963  20.797  0.00  0.00    +0.000 A 
ATOM     23  C   UNL     1       1.867   7.100  19.976  0.00  0.00    +0.000 A 
ATOM     24  H   UNL     1      -0.909  12.245  21.986  0.00  0.00    +0.000 HD
ENDROOT
TORSDOF 0
ENDMDL
MODEL 5
REMARK VINA RESULT:      -7.2      1.936      3.494
REMARK  Name = 
REMARK  3 active torsions:
REMARK  status: ('A' for Active; 'I' for Inactive)
REMARK    1  A    between atoms: C_1  and  C_2
REMARK    2  A    between atoms: C_4  and  C_5
REMARK    3  A    between atoms: C_4  and  C_6
REMARK                            x       y       z     vdW  Elec       q    Type
REMARK                         _______ _______ _______ _____ _____    ______ ____
ROOT
ATOM      1  C   UNL     1       0.830  12.594  18.165  0.00  0.00    +0.000 C 
ATOM      2  C   UNL     1       0.106  12.148  19.402  0.00  0.00    +0.000 C 
ATOM      3  C   UNL     1      -0.514  13.089  20.139  0.00  0.00    +0.000 C 
ATOM      4  C   UNL     1      -1.162  12.887  21.478  0.00  0.00    +0.000 C 
ATOM      5  C   UNL     1      -0.367  13.640  22.557  0.00  0.00    +0.000 C 
ATOM      6  C   UNL     1      -2.600  13.416  21.425  0.00  0.00    +0.000 C 
ATOM      7  N   UNL     1      -1.226  11.476  21.834  0.00  0.00    +0.000 N 
ATOM      8  C   UNL     1      -0.350  10.558  21.246  0.00  0.00    +0.000 A 
ATOM      9  C   UNL     1      -0.128   9.346  21.915  0.00  0.00    +0.000 A 
ATOM     10  C   UNL     1       0.699   8.363  21.377  0.00  0.00    +0.000 A 
ATOM     11  C   UNL     1       1.222   8.513  20.094  0.00  0.00    +0.000 A 
ATOM     12  C   UNL     1       0.869   9.671  19.349  0.00  0.00    +0.000 A 
ATOM     13  C   UNL     1       0.204  10.766  19.958  0.00  0.00    +0.000 A 
ATOM     14  C   UNL     1       1.080   9.493  17.863  0.00  0.00    +0.000 C 
ATOM     15  O   UNL     1       2.394   9.033  17.539  0.00  0.00    +0.000 OA
ATOM     16  C   UNL     1       2.718   7.881  18.207  0.00  0.00    +0.000 A 
ATOM     17  C   UNL     1       3.687   7.065  17.611  0.00  0.00    +0.000 A 
ATOM     18  F   UNL     1       4.213   7.399  16.423  0.00  0.00    +0.000 F 
ATOM     19  C   UNL     1       4.116   5.903  18.229  0.00  0.00    +0.000 A 
ATOM     20  C   UNL     1       3.569   5.569  19.456  0.00  0.00    +0.000 A 
ATOM     21  F   UNL     1       3.988   4.460  20.079  0.00  0.00    +0.000 F 
ATOM     22  C   UNL     1       2.605   6.372  20.072  0.00  0.00    +0.000 A 
ATOM     23  C   UNL     1       2.159   7.556  19.462  0.00  0.00    +0.000 A 
ATOM     24  H   UNL     1      -1.458  11.293  22.803  0.00  0.00    +0.000 HD
ENDROOT
TORSDOF 0
ENDMDL
MODEL 6
REMARK VINA RESULT:      -6.9      3.355      6.676
REMARK  Name = 
REMARK  3 active torsions:
REMARK  status: ('A' for Active; 'I' for Inactive)
REMARK    1  A    between atoms: C_1  and  C_2
REMARK    2  A    between atoms: C_4  and  C_5
REMARK    3  A    between atoms: C_4  and  C_6
REMARK                            x       y       z     vdW  Elec       q    Type
REMARK                         _______ _______ _______ _____ _____    ______ ____
ROOT
ATOM      1  C   UNL     1       2.349   4.887  21.362  0.00  0.00    +0.000 C 
ATOM      2  C   UNL     1       2.757   5.279  19.972  0.00  0.00    +0.000 C 
ATOM      3  C   UNL     1       3.640   4.489  19.331  0.00  0.00    +0.000 C 
ATOM      4  C   UNL     1       4.291   4.774  18.009  0.00  0.00    +0.000 C 
ATOM      5  C   UNL     1       5.797   5.009  18.214  0.00  0.00    +0.000 C 
ATOM      6  C   UNL     1       4.073   3.577  17.074  0.00  0.00    +0.000 C 
ATOM      7  N   UNL     1       3.711   5.944  17.367  0.00  0.00    +0.000 N 
ATOM      8  C   UNL     1       3.038   6.907  18.126  0.00  0.00    +0.000 A 
ATOM      9  C   UNL     1       2.902   8.191  17.581  0.00  0.00    +0.000 A 
ATOM     10  C   UNL     1       2.212   9.196  18.256  0.00  0.00    +0.000 A 
ATOM     11  C   UNL     1       1.529   8.905  19.435  0.00  0.00    +0.000 A 
ATOM     12  C   UNL     1       1.534   7.564  19.908  0.00  0.00    +0.000 A 
ATOM     13  C   UNL     1       2.396   6.587  19.349  0.00  0.00    +0.000 A 
ATOM     14  C   UNL     1       0.404   7.284  20.872  0.00  0.00    +0.000 C 
ATOM     15  O   UNL     1       0.342   8.225  21.945  0.00  0.00    +0.000 OA
ATOM     16  C   UNL     1       0.274   9.519  21.496  0.00  0.00    +0.000 A 
ATOM     17  C   UNL     1      -0.313  10.450  22.360  0.00  0.00    +0.000 A 
ATOM     18  F   UNL     1      -0.818  10.054  23.538  0.00  0.00    +0.000 F 
ATOM     19  C   UNL     1      -0.388  11.789  22.018  0.00  0.00    +0.000 A 
ATOM     20  C   UNL     1       0.139  12.188  20.801  0.00  0.00    +0.000 A 
ATOM     21  F   UNL     1       0.094  13.483  20.462  0.00  0.00    +0.000 F 
ATOM     22  C   UNL     1       0.735  11.276  19.926  0.00  0.00    +0.000 A 
ATOM     23  C   UNL     1       0.822   9.914  20.257  0.00  0.00    +0.000 A 
ATOM     24  H   UNL     1       4.242   6.305  16.583  0.00  0.00    +0.000 HD
ENDROOT
TORSDOF 0
ENDMDL
MODEL 7
REMARK VINA RESULT:      -6.8      4.176      7.631
REMARK  Name = 
REMARK  3 active torsions:
REMARK  status: ('A' for Active; 'I' for Inactive)
REMARK    1  A    between atoms: C_1  and  C_2
REMARK    2  A    between atoms: C_4  and  C_5
REMARK    3  A    between atoms: C_4  and  C_6
REMARK                            x       y       z     vdW  Elec       q    Type
REMARK                         _______ _______ _______ _____ _____    ______ ____
ROOT
ATOM      1  C   UNL     1       1.879   9.763  17.450  0.00  0.00    +0.000 C 
ATOM      2  C   UNL     1       2.020   8.732  18.531  0.00  0.00    +0.000 C 
ATOM      3  C   UNL     1       2.537   7.535  18.193  0.00  0.00    +0.000 C 
ATOM      4  C   UNL     1       2.625   6.323  19.074  0.00  0.00    +0.000 C 
ATOM      5  C   UNL     1       1.691   5.225  18.538  0.00  0.00    +0.000 C 
ATOM      6  C   UNL     1       4.072   5.816  19.086  0.00  0.00    +0.000 C 
ATOM      7  N   UNL     1       2.255   6.632  20.448  0.00  0.00    +0.000 N 
ATOM      8  C   UNL     1       1.458   7.745  20.733  0.00  0.00    +0.000 A 
ATOM      9  C   UNL     1       0.763   7.756  21.950  0.00  0.00    +0.000 A 
ATOM     10  C   UNL     1      -0.021   8.845  22.326  0.00  0.00    +0.000 A 
ATOM     11  C   UNL     1      -0.025  10.004  21.554  0.00  0.00    +0.000 A 
ATOM     12  C   UNL     1       0.804  10.054  20.401  0.00  0.00    +0.000 A 
ATOM     13  C   UNL     1       1.439   8.890  19.898  0.00  0.00    +0.000 A 
ATOM     14  C   UNL     1       1.083  11.468  19.946  0.00  0.00    +0.000 C 
ATOM     15  O   UNL     1      -0.105  12.244  19.778  0.00  0.00    +0.000 OA
ATOM     16  C   UNL     1      -0.881  12.252  20.909  0.00  0.00    +0.000 A 
ATOM     17  C   UNL     1      -1.738  13.347  21.070  0.00  0.00    +0.000 A 
ATOM     18  F   UNL     1      -1.738  14.343  20.172  0.00  0.00    +0.000 F 
ATOM     19  C   UNL     1      -2.595  13.425  22.155  0.00  0.00    +0.000 A 
ATOM     20  C   UNL     1      -2.589  12.391  23.075  0.00  0.00    +0.000 A 
ATOM     21  F   UNL     1      -3.425  12.440  24.120  0.00  0.00    +0.000 F 
ATOM     22  C   UNL     1      -1.746  11.286  22.930  0.00  0.00    +0.000 A 
ATOM     23  C   UNL     1      -0.872  11.187  21.835  0.00  0.00    +0.000 A 
ATOM     24  H   UNL     1       2.095   5.823  21.036  0.00  0.00    +0.000 HD
ENDROOT
TORSDOF 0
ENDMDL
MODEL 8
REMARK VINA RESULT:      -6.6      3.550      5.415
REMARK  Name = 
REMARK  3 active torsions:
REMARK  status: ('A' for Active; 'I' for Inactive)
REMARK    1  A    between atoms: C_1  and  C_2
REMARK    2  A    between atoms: C_4  and  C_5
REMARK    3  A    between atoms: C_4  and  C_6
REMARK                            x       y       z     vdW  Elec       q    Type
REMARK                         _______ _______ _______ _____ _____    ______ ____
ROOT
ATOM      1  C   UNL     1      -4.060  12.526  21.354  0.00  0.00    +0.000 C 
ATOM      2  C   UNL     1      -4.339  12.508  19.880  0.00  0.00    +0.000 C 
ATOM      3  C   UNL     1      -5.569  12.872  19.470  0.00  0.00    +0.000 C 
ATOM      4  C   UNL     1      -6.103  12.783  18.069  0.00  0.00    +0.000 C 
ATOM      5  C   UNL     1      -7.217  11.725  18.007  0.00  0.00    +0.000 C 
ATOM      6  C   UNL     1      -6.659  14.151  17.656  0.00  0.00    +0.000 C 
ATOM      7  N   UNL     1      -5.058  12.428  17.120  0.00  0.00    +0.000 N 
ATOM      8  C   UNL     1      -3.898  11.777  17.554  0.00  0.00    +0.000 A 
ATOM      9  C   UNL     1      -3.155  11.064  16.604  0.00  0.00    +0.000 A 
ATOM     10  C   UNL     1      -1.967  10.421  16.947  0.00  0.00    +0.000 A 
ATOM     11  C   UNL     1      -1.426  10.584  18.220  0.00  0.00    +0.000 A 
ATOM     12  C   UNL     1      -2.097  11.436  19.138  0.00  0.00    +0.000 A 
ATOM     13  C   UNL     1      -3.402  11.925  18.874  0.00  0.00    +0.000 A 
ATOM     14  C   UNL     1      -1.198  11.907  20.258  0.00  0.00    +0.000 C 
ATOM     15  O   UNL     1      -0.529  10.833  20.923  0.00  0.00    +0.000 OA
ATOM     16  C   UNL     1       0.172  10.042  20.051  0.00  0.00    +0.000 A 
ATOM     17  C   UNL     1       1.255   9.332  20.584  0.00  0.00    +0.000 A 
ATOM     18  F   UNL     1       1.590   9.480  21.874  0.00  0.00    +0.000 F 
ATOM     19  C   UNL     1       1.997   8.470  19.795  0.00  0.00    +0.000 A 
ATOM     20  C   UNL     1       1.641   8.322  18.466  0.00  0.00    +0.000 A 
ATOM     21  F   UNL     1       2.336   7.477  17.692  0.00  0.00    +0.000 F 
ATOM     22  C   UNL     1       0.561   9.017  17.914  0.00  0.00    +0.000 A 
ATOM     23  C   UNL     1      -0.206   9.893  18.699  0.00  0.00    +0.000 A 
ATOM     24  H   UNL     1      -5.392  12.151  16.205  0.00  0.00    +0.000 HD
ENDROOT
TORSDOF 0
ENDMDL
MODEL 9
REMARK VINA RESULT:      -6.5      3.138      6.671
REMARK  Name = 
REMARK  3 active torsions:
REMARK  status: ('A' for Active; 'I' for Inactive)
REMARK    1  A    between atoms: C_1  and  C_2
REMARK    2  A    between atoms: C_4  and  C_5
REMARK    3  A    between atoms: C_4  and  C_6
REMARK                            x       y       z     vdW  Elec       q    Type
REMARK                         _______ _______ _______ _____ _____    ______ ____
ROOT
ATOM      1  C   UNL     1       3.576   4.111  20.537  0.00  0.00    +0.000 C 
ATOM      2  C   UNL     1       3.899   4.678  19.186  0.00  0.00    +0.000 C 
ATOM      3  C   UNL     1       4.880   4.088  18.476  0.00  0.00    +0.000 C 
ATOM      4  C   UNL     1       5.461   4.579  17.182  0.00  0.00    +0.000 C 
ATOM      5  C   UNL     1       6.918   5.019  17.403  0.00  0.00    +0.000 C 
ATOM      6  C   UNL     1       5.410   3.448  16.147  0.00  0.00    +0.000 C 
ATOM      7  N   UNL     1       4.703   5.701  16.646  0.00  0.00    +0.000 N 
ATOM      8  C   UNL     1       3.906   6.482  17.488  0.00  0.00    +0.000 A 
ATOM      9  C   UNL     1       3.571   7.774  17.057  0.00  0.00    +0.000 A 
ATOM     10  C   UNL     1       2.749   8.601  17.819  0.00  0.00    +0.000 A 
ATOM     11  C   UNL     1       2.135   8.111  18.970  0.00  0.00    +0.000 A 
ATOM     12  C   UNL     1       2.347   6.751  19.324  0.00  0.00    +0.000 A 
ATOM     13  C   UNL     1       3.337   5.966  18.680  0.00  0.00    +0.000 A 
ATOM     14  C   UNL     1       1.287   6.222  20.262  0.00  0.00    +0.000 C 
ATOM     15  O   UNL     1       1.102   7.048  21.414  0.00  0.00    +0.000 OA
ATOM     16  C   UNL     1       0.835   8.350  21.079  0.00  0.00    +0.000 A 
ATOM     17  C   UNL     1       0.128   9.105  22.023  0.00  0.00    +0.000 A 
ATOM     18  F   UNL     1      -0.294   8.538  23.163  0.00  0.00    +0.000 F 
ATOM     19  C   UNL     1      -0.151  10.442  21.799  0.00  0.00    +0.000 A 
ATOM     20  C   UNL     1       0.292  11.019  20.621  0.00  0.00    +0.000 A 
ATOM     21  F   UNL     1       0.049  12.317  20.396  0.00  0.00    +0.000 F 
ATOM     22  C   UNL     1       1.003  10.285  19.668  0.00  0.00    +0.000 A 
ATOM     23  C   UNL     1       1.298   8.928  19.878  0.00  0.00    +0.000 A 
ATOM     24  H   UNL     1       5.161   6.203  15.895  0.00  0.00    +0.000 HD
ENDROOT
TORSDOF 0
ENDMDL
