MODEL 1
REMARK VINA RESULT:      -8.6      0.000      0.000
REMARK  Name = 
REMARK  6 active torsions:
REMARK  status: ('A' for Active; 'I' for Inactive)
REMARK    1  A    between atoms: C_1  and  O_2
REMARK    2  A    between atoms: O_2  and  C_3
REMARK    3  A    between atoms: C_6  and  C_7
REMARK    4  A    between atoms: C_19  and  C_21
REMARK    5  A    between atoms: C_33  and  O_34
REMARK    6  A    between atoms: O_34  and  C_35
REMARK                            x       y       z     vdW  Elec       q    Type
REMARK                         _______ _______ _______ _____ _____    ______ ____
ROOT
ATOM      1  C   UNL     1       2.617   7.227  18.623  0.00  0.00    +0.000 A 
ATOM      2  C   UNL     1       2.257   7.079  19.973  0.00  0.00    +0.000 A 
ATOM      3  C   UNL     1       1.483   8.052  20.606  0.00  0.00    +0.000 A 
ATOM      4  C   UNL     1       0.996   9.119  19.861  0.00  0.00    +0.000 A 
ATOM      5  C   UNL     1       1.080   9.104  18.482  0.00  0.00    +0.000 A 
ATOM      6  C   UNL     1       1.996   8.250  17.886  0.00  0.00    +0.000 A 
ATOM      7  C   UNL     1       0.154   9.966  17.681  0.00  0.00    +0.000 C 
ATOM      8  O   UNL     1      -0.664  10.778  18.531  0.00  0.00    +0.000 OA
ATOM      9  C   UNL     1       0.099  11.283  19.637  0.00  0.00    +0.000 C 
ATOM     10  C   UNL     1      -0.802  12.156  20.509  0.00  0.00    +0.000 C 
ATOM     11  C   UNL     1       0.024  12.823  21.610  0.00  0.00    +0.000 C 
ATOM     12  N   UNL     1       1.101  13.646  21.054  0.00  0.00    +0.000 N 
ATOM     13  C   UNL     1       1.493  14.758  21.806  0.00  0.00    +0.000 C 
ATOM     14  O   UNL     1       1.003  15.008  22.906  0.00  0.00    +0.000 OA
ATOM     15  C   UNL     1       2.004  12.940  20.155  0.00  0.00    +0.000 C 
ATOM     16  C   UNL     1       1.238  12.183  19.087  0.00  0.00    +0.000 C 
ATOM     17  O   UNL     1       0.498  10.205  20.513  0.00  0.00    +0.000 OA
ENDROOT
BRANCH  13  18
ATOM     18  C   UNL     1       2.523  15.711  21.326  0.00  0.00    +0.000 A 
ATOM     19  C   UNL     1       3.737  15.756  22.023  0.00  0.00    +0.000 A 
ATOM     20  C   UNL     1       4.691  16.737  21.735  0.00  0.00    +0.000 A 
ATOM     21  C   UNL     1       4.426  17.675  20.747  0.00  0.00    +0.000 A 
ATOM     22  F   UNL     1       5.327  18.631  20.482  0.00  0.00    +0.000 F 
ATOM     23  C   UNL     1       3.219  17.658  20.051  0.00  0.00    +0.000 A 
ATOM     24  C   UNL     1       2.271  16.684  20.354  0.00  0.00    +0.000 A 
ATOM     25  F   UNL     1       1.091  16.741  19.715  0.00  0.00    +0.000 F 
ENDBRANCH  13  18
BRANCH   1  29
ATOM     26  C   UNL     1       5.294   4.654  16.478  0.00  0.00    +0.000 A 
ATOM     27  C   UNL     1       4.119   4.130  17.040  0.00  0.00    +0.000 A 
ATOM     28  C   UNL     1       3.242   4.946  17.758  0.00  0.00    +0.000 A 
ATOM     29  C   UNL     1       3.541   6.297  17.959  0.00  0.00    +0.000 A 
ATOM     30  C   UNL     1       4.782   6.762  17.506  0.00  0.00    +0.000 A 
ATOM     31  C   UNL     1       5.666   5.965  16.778  0.00  0.00    +0.000 A 
BRANCH  26  33
ATOM     32  C   UNL     1       5.930   4.159  14.276  0.00  0.00    +0.000 C 
ATOM     33  O   UNL     1       6.084   3.883  15.671  0.00  0.00    +0.000 OA
ENDBRANCH  26  33
BRANCH  31  34
ATOM     34  O   UNL     1       6.809   6.645  16.470  0.00  0.00    +0.000 OA
ATOM     35  C   UNL     1       7.491   7.312  17.512  0.00  0.00    +0.000 C 
ENDBRANCH  31  34
ENDBRANCH   1  29
TORSDOF 4
ENDMDL
MODEL 2
REMARK VINA RESULT:      -8.5      0.828      1.187
REMARK  Name = 
REMARK  6 active torsions:
REMARK  status: ('A' for Active; 'I' for Inactive)
REMARK    1  A    between atoms: C_1  and  O_2
REMARK    2  A    between atoms: O_2  and  C_3
REMARK    3  A    between atoms: C_6  and  C_7
REMARK    4  A    between atoms: C_19  and  C_21
REMARK    5  A    between atoms: C_33  and  O_34
REMARK    6  A    between atoms: O_34  and  C_35
REMARK                            x       y       z     vdW  Elec       q    Type
REMARK                         _______ _______ _______ _____ _____    ______ ____
ROOT
ATOM      1  C   UNL     1       2.498   7.348  18.761  0.00  0.00    +0.000 A 
ATOM      2  C   UNL     1       2.095   7.203  20.099  0.00  0.00    +0.000 A 
ATOM      3  C   UNL     1       1.326   8.193  20.713  0.00  0.00    +0.000 A 
ATOM      4  C   UNL     1       0.886   9.273  19.958  0.00  0.00    +0.000 A 
ATOM      5  C   UNL     1       1.011   9.261  18.582  0.00  0.00    +0.000 A 
ATOM      6  C   UNL     1       1.924   8.387  18.010  0.00  0.00    +0.000 A 
ATOM      7  C   UNL     1       0.129  10.147  17.757  0.00  0.00    +0.000 C 
ATOM      8  O   UNL     1      -0.695  10.976  18.585  0.00  0.00    +0.000 OA
ATOM      9  C   UNL     1       0.047  11.458  19.715  0.00  0.00    +0.000 C 
ATOM     10  C   UNL     1      -0.859  12.350  20.564  0.00  0.00    +0.000 C 
ATOM     11  C   UNL     1      -0.050  12.993  21.691  0.00  0.00    +0.000 C 
ATOM     12  N   UNL     1       1.062  13.792  21.171  0.00  0.00    +0.000 N 
ATOM     13  C   UNL     1       1.457  14.892  21.938  0.00  0.00    +0.000 C 
ATOM     14  O   UNL     1       0.941  15.151  23.024  0.00  0.00    +0.000 OA
ATOM     15  C   UNL     1       1.974  13.069  20.296  0.00  0.00    +0.000 C 
ATOM     16  C   UNL     1       1.223  12.333  19.203  0.00  0.00    +0.000 C 
ATOM     17  O   UNL     1       0.394  10.369  20.598  0.00  0.00    +0.000 OA
ENDROOT
BRANCH  13  18
ATOM     18  C   UNL     1       2.523  15.823  21.492  0.00  0.00    +0.000 A 
ATOM     19  C   UNL     1       2.241  16.652  20.399  0.00  0.00    +0.000 A 
ATOM     20  C   UNL     1       3.245  17.435  19.819  0.00  0.00    +0.000 A 
ATOM     21  C   UNL     1       4.532  17.387  20.336  0.00  0.00    +0.000 A 
ATOM     22  F   UNL     1       5.501  18.118  19.770  0.00  0.00    +0.000 F 
ATOM     23  C   UNL     1       4.837  16.558  21.414  0.00  0.00    +0.000 A 
ATOM     24  C   UNL     1       3.834  15.772  21.976  0.00  0.00    +0.000 A 
ATOM     25  F   UNL     1       4.179  14.932  22.966  0.00  0.00    +0.000 F 
ENDBRANCH  13  18
BRANCH   1  29
ATOM     26  C   UNL     1       5.156   4.704  16.678  0.00  0.00    +0.000 A 
ATOM     27  C   UNL     1       4.017   4.191  17.317  0.00  0.00    +0.000 A 
ATOM     28  C   UNL     1       3.147   5.031  18.016  0.00  0.00    +0.000 A 
ATOM     29  C   UNL     1       3.419   6.399  18.120  0.00  0.00    +0.000 A 
ATOM     30  C   UNL     1       4.631   6.861  17.591  0.00  0.00    +0.000 A 
ATOM     31  C   UNL     1       5.506   6.040  16.880  0.00  0.00    +0.000 A 
BRANCH  26  33
ATOM     32  C   UNL     1       5.947   4.281  14.512  0.00  0.00    +0.000 C 
ATOM     33  O   UNL     1       5.934   3.901  15.891  0.00  0.00    +0.000 OA
ENDBRANCH  26  33
BRANCH  31  34
ATOM     34  O   UNL     1       6.620   6.724  16.486  0.00  0.00    +0.000 OA
ATOM     35  C   UNL     1       7.501   7.198  17.484  0.00  0.00    +0.000 C 
ENDBRANCH  31  34
ENDBRANCH   1  29
TORSDOF 4
ENDMDL
MODEL 3
REMARK VINA RESULT:      -8.3      0.851      1.610
REMARK  Name = 
REMARK  6 active torsions:
REMARK  status: ('A' for Active; 'I' for Inactive)
REMARK    1  A    between atoms: C_1  and  O_2
REMARK    2  A    between atoms: O_2  and  C_3
REMARK    3  A    between atoms: C_6  and  C_7
REMARK    4  A    between atoms: C_19  and  C_21
REMARK    5  A    between atoms: C_33  and  O_34
REMARK    6  A    between atoms: O_34  and  C_35
REMARK                            x       y       z     vdW  Elec       q    Type
REMARK                         _______ _______ _______ _____ _____    ______ ____
ROOT
ATOM      1  C   UNL     1       2.476   7.380  18.600  0.00  0.00    +0.000 A 
ATOM      2  C   UNL     1       2.183   7.232  19.966  0.00  0.00    +0.000 A 
ATOM      3  C   UNL     1       1.446   8.207  20.638  0.00  0.00    +0.000 A 
ATOM      4  C   UNL     1       0.926   9.277  19.919  0.00  0.00    +0.000 A 
ATOM      5  C   UNL     1       0.942   9.264  18.538  0.00  0.00    +0.000 A 
ATOM      6  C   UNL     1       1.823   8.407  17.896  0.00  0.00    +0.000 A 
ATOM      7  C   UNL     1      -0.019  10.130  17.785  0.00  0.00    +0.000 C 
ATOM      8  O   UNL     1      -0.791  10.945  18.675  0.00  0.00    +0.000 OA
ATOM      9  C   UNL     1       0.029  11.445  19.742  0.00  0.00    +0.000 C 
ATOM     10  C   UNL     1      -0.825  12.321  20.660  0.00  0.00    +0.000 C 
ATOM     11  C   UNL     1       0.058  12.983  21.718  0.00  0.00    +0.000 C 
ATOM     12  N   UNL     1       1.110  13.802  21.111  0.00  0.00    +0.000 N 
ATOM     13  C   UNL     1       1.543  14.911  21.843  0.00  0.00    +0.000 C 
ATOM     14  O   UNL     1       1.109  15.162  22.966  0.00  0.00    +0.000 OA
ATOM     15  C   UNL     1       1.964  13.094  20.167  0.00  0.00    +0.000 C 
ATOM     16  C   UNL     1       1.142  12.341  19.138  0.00  0.00    +0.000 C 
ATOM     17  O   UNL     1       0.466  10.365  20.596  0.00  0.00    +0.000 OA
ENDROOT
BRANCH  13  18
ATOM     18  C   UNL     1       2.552  15.861  21.314  0.00  0.00    +0.000 A 
ATOM     19  C   UNL     1       3.898  15.602  21.605  0.00  0.00    +0.000 A 
ATOM     20  C   UNL     1       4.890  16.534  21.282  0.00  0.00    +0.000 A 
ATOM     21  C   UNL     1       4.532  17.726  20.668  0.00  0.00    +0.000 A 
ATOM     22  F   UNL     1       5.476  18.631  20.377  0.00  0.00    +0.000 F 
ATOM     23  C   UNL     1       3.198  18.010  20.383  0.00  0.00    +0.000 A 
ATOM     24  C   UNL     1       2.216  17.081  20.719  0.00  0.00    +0.000 A 
ATOM     25  F   UNL     1       0.935  17.418  20.496  0.00  0.00    +0.000 F 
ENDBRANCH  13  18
BRANCH   1  29
ATOM     26  C   UNL     1       5.160   4.596  16.747  0.00  0.00    +0.000 A 
ATOM     27  C   UNL     1       5.183   5.948  16.371  0.00  0.00    +0.000 A 
ATOM     28  C   UNL     1       4.306   6.869  16.948  0.00  0.00    +0.000 A 
ATOM     29  C   UNL     1       3.362   6.448  17.889  0.00  0.00    +0.000 A 
ATOM     30  C   UNL     1       3.268   5.073  18.145  0.00  0.00    +0.000 A 
ATOM     31  C   UNL     1       4.142   4.141  17.587  0.00  0.00    +0.000 A 
BRANCH  26  33
ATOM     32  C   UNL     1       6.698   4.131  15.040  0.00  0.00    +0.000 C 
ATOM     33  O   UNL     1       6.101   3.724  16.274  0.00  0.00    +0.000 OA
ENDBRANCH  26  33
BRANCH  31  34
ATOM     34  O   UNL     1       3.830   2.871  17.980  0.00  0.00    +0.000 OA
ATOM     35  C   UNL     1       3.970   2.541  19.347  0.00  0.00    +0.000 C 
ENDBRANCH  31  34
ENDBRANCH   1  29
TORSDOF 4
ENDMDL
MODEL 4
REMARK VINA RESULT:      -8.2      1.100      2.043
REMARK  Name = 
REMARK  6 active torsions:
REMARK  status: ('A' for Active; 'I' for Inactive)
REMARK    1  A    between atoms: C_1  and  O_2
REMARK    2  A    between atoms: O_2  and  C_3
REMARK    3  A    between atoms: C_6  and  C_7
REMARK    4  A    between atoms: C_19  and  C_21
REMARK    5  A    between atoms: C_33  and  O_34
REMARK    6  A    between atoms: O_34  and  C_35
REMARK                            x       y       z     vdW  Elec       q    Type
REMARK                         _______ _______ _______ _____ _____    ______ ____
ROOT
ATOM      1  C   UNL     1       2.498   7.434  18.571  0.00  0.00    +0.000 A 
ATOM      2  C   UNL     1       2.155   7.260  19.923  0.00  0.00    +0.000 A 
ATOM      3  C   UNL     1       1.401   8.227  20.588  0.00  0.00    +0.000 A 
ATOM      4  C   UNL     1       0.914   9.314  19.873  0.00  0.00    +0.000 A 
ATOM      5  C   UNL     1       0.979   9.329  18.493  0.00  0.00    +0.000 A 
ATOM      6  C   UNL     1       1.878   8.479  17.866  0.00  0.00    +0.000 A 
ATOM      7  C   UNL     1       0.051  10.217  17.723  0.00  0.00    +0.000 C 
ATOM      8  O   UNL     1      -0.748  11.019  18.602  0.00  0.00    +0.000 OA
ATOM      9  C   UNL     1       0.036  11.491  19.708  0.00  0.00    +0.000 C 
ATOM     10  C   UNL     1      -0.845  12.354  20.612  0.00  0.00    +0.000 C 
ATOM     11  C   UNL     1       0.004  12.989  21.715  0.00  0.00    +0.000 C 
ATOM     12  N   UNL     1       1.081  13.813  21.162  0.00  0.00    +0.000 N 
ATOM     13  C   UNL     1       1.494  14.904  21.932  0.00  0.00    +0.000 C 
ATOM     14  O   UNL     1       1.022  15.135  23.044  0.00  0.00    +0.000 OA
ATOM     15  C   UNL     1       1.964  13.119  20.236  0.00  0.00    +0.000 C 
ATOM     16  C   UNL     1       1.176  12.392  19.162  0.00  0.00    +0.000 C 
ATOM     17  O   UNL     1       0.436  10.391  20.555  0.00  0.00    +0.000 OA
ENDROOT
BRANCH  13  18
ATOM     18  C   UNL     1       2.527  15.858  21.459  0.00  0.00    +0.000 A 
ATOM     19  C   UNL     1       2.320  16.470  20.216  0.00  0.00    +0.000 A 
ATOM     20  C   UNL     1       3.321  17.252  19.629  0.00  0.00    +0.000 A 
ATOM     21  C   UNL     1       4.530  17.419  20.289  0.00  0.00    +0.000 A 
ATOM     22  F   UNL     1       5.500  18.148  19.720  0.00  0.00    +0.000 F 
ATOM     23  C   UNL     1       4.763  16.806  21.519  0.00  0.00    +0.000 A 
ATOM     24  C   UNL     1       3.765  16.020  22.089  0.00  0.00    +0.000 A 
ATOM     25  F   UNL     1       4.049  15.387  23.240  0.00  0.00    +0.000 F 
ENDBRANCH  13  18
BRANCH   1  29
ATOM     26  C   UNL     1       5.217   4.656  16.761  0.00  0.00    +0.000 A 
ATOM     27  C   UNL     1       5.327   6.027  16.481  0.00  0.00    +0.000 A 
ATOM     28  C   UNL     1       4.441   6.948  17.045  0.00  0.00    +0.000 A 
ATOM     29  C   UNL     1       3.404   6.511  17.874  0.00  0.00    +0.000 A 
ATOM     30  C   UNL     1       3.234   5.128  18.027  0.00  0.00    +0.000 A 
ATOM     31  C   UNL     1       4.114   4.195  17.481  0.00  0.00    +0.000 A 
BRANCH  26  33
ATOM     32  C   UNL     1       6.507   3.954  14.933  0.00  0.00    +0.000 C 
ATOM     33  O   UNL     1       6.160   3.775  16.309  0.00  0.00    +0.000 OA
ENDBRANCH  26  33
BRANCH  31  34
ATOM     34  O   UNL     1       3.719   2.918  17.759  0.00  0.00    +0.000 OA
ATOM     35  C   UNL     1       2.335   2.636  17.778  0.00  0.00    +0.000 C 
ENDBRANCH  31  34
ENDBRANCH   1  29
TORSDOF 4
ENDMDL
MODEL 5
REMARK VINA RESULT:      -8.0      2.185      3.114
REMARK  Name = 
REMARK  6 active torsions:
REMARK  status: ('A' for Active; 'I' for Inactive)
REMARK    1  A    between atoms: C_1  and  O_2
REMARK    2  A    between atoms: O_2  and  C_3
REMARK    3  A    between atoms: C_6  and  C_7
REMARK    4  A    between atoms: C_19  and  C_21
REMARK    5  A    between atoms: C_33  and  O_34
REMARK    6  A    between atoms: O_34  and  C_35
REMARK                            x       y       z     vdW  Elec       q    Type
REMARK                         _______ _______ _______ _____ _____    ______ ____
ROOT
ATOM      1  C   UNL     1       1.622   7.988  20.186  0.00  0.00    +0.000 A 
ATOM      2  C   UNL     1       1.240   8.238  21.515  0.00  0.00    +0.000 A 
ATOM      3  C   UNL     1       0.857   9.520  21.908  0.00  0.00    +0.000 A 
ATOM      4  C   UNL     1       0.768  10.523  20.950  0.00  0.00    +0.000 A 
ATOM      5  C   UNL     1       0.835  10.213  19.605  0.00  0.00    +0.000 A 
ATOM      6  C   UNL     1       1.394   8.998  19.236  0.00  0.00    +0.000 A 
ATOM      7  C   UNL     1       0.264  11.166  18.602  0.00  0.00    +0.000 C 
ATOM      8  O   UNL     1      -0.216  12.358  19.235  0.00  0.00    +0.000 OA
ATOM      9  C   UNL     1       0.680  12.775  20.275  0.00  0.00    +0.000 C 
ATOM     10  C   UNL     1       0.143  14.057  20.914  0.00  0.00    +0.000 C 
ATOM     11  C   UNL     1       1.156  14.600  21.923  0.00  0.00    +0.000 C 
ATOM     12  N   UNL     1       2.450  14.879  21.295  0.00  0.00    +0.000 N 
ATOM     13  C   UNL     1       3.207  15.914  21.853  0.00  0.00    +0.000 C 
ATOM     14  O   UNL     1       2.840  16.526  22.855  0.00  0.00    +0.000 OA
ATOM     15  C   UNL     1       3.045  13.747  20.600  0.00  0.00    +0.000 C 
ATOM     16  C   UNL     1       2.059  13.106  19.643  0.00  0.00    +0.000 C 
ATOM     17  O   UNL     1       0.683  11.819  21.358  0.00  0.00    +0.000 OA
ENDROOT
BRANCH  13  18
ATOM     18  C   UNL     1       4.503  16.344  21.272  0.00  0.00    +0.000 A 
ATOM     19  C   UNL     1       5.630  16.298  22.103  0.00  0.00    +0.000 A 
ATOM     20  C   UNL     1       6.849  16.838  21.681  0.00  0.00    +0.000 A 
ATOM     21  C   UNL     1       6.939  17.425  20.427  0.00  0.00    +0.000 A 
ATOM     22  F   UNL     1       8.098  17.964  20.028  0.00  0.00    +0.000 F 
ATOM     23  C   UNL     1       5.826  17.494  19.591  0.00  0.00    +0.000 A 
ATOM     24  C   UNL     1       4.613  16.964  20.024  0.00  0.00    +0.000 A 
ATOM     25  F   UNL     1       3.545  17.112  19.223  0.00  0.00    +0.000 F 
ENDBRANCH  13  18
BRANCH   1  29
ATOM     26  C   UNL     1       3.368   4.215  19.135  0.00  0.00    +0.000 A 
ATOM     27  C   UNL     1       3.283   5.238  18.178  0.00  0.00    +0.000 A 
ATOM     28  C   UNL     1       2.703   6.469  18.493  0.00  0.00    +0.000 A 
ATOM     29  C   UNL     1       2.162   6.688  19.764  0.00  0.00    +0.000 A 
ATOM     30  C   UNL     1       2.137   5.607  20.654  0.00  0.00    +0.000 A 
ATOM     31  C   UNL     1       2.721   4.375  20.361  0.00  0.00    +0.000 A 
BRANCH  26  33
ATOM     32  C   UNL     1       3.260   2.069  18.196  0.00  0.00    +0.000 C 
ATOM     33  O   UNL     1       4.047   3.060  18.862  0.00  0.00    +0.000 OA
ENDBRANCH  26  33
BRANCH  31  34
ATOM     34  O   UNL     1       2.546   3.487  21.383  0.00  0.00    +0.000 OA
ATOM     35  C   UNL     1       1.352   2.730  21.414  0.00  0.00    +0.000 C 
ENDBRANCH  31  34
ENDBRANCH   1  29
TORSDOF 4
ENDMDL
MODEL 6
REMARK VINA RESULT:      -8.0      2.428      3.415
REMARK  Name = 
REMARK  6 active torsions:
REMARK  status: ('A' for Active; 'I' for Inactive)
REMARK    1  A    between atoms: C_1  and  O_2
REMARK    2  A    between atoms: O_2  and  C_3
REMARK    3  A    between atoms: C_6  and  C_7
REMARK    4  A    between atoms: C_19  and  C_21
REMARK    5  A    between atoms: C_33  and  O_34
REMARK    6  A    between atoms: O_34  and  C_35
REMARK                            x       y       z     vdW  Elec       q    Type
REMARK                         _______ _______ _______ _____ _____    ______ ____
ROOT
ATOM      1  C   UNL     1       1.585   8.029  20.236  0.00  0.00    +0.000 A 
ATOM      2  C   UNL     1       1.197   8.287  21.562  0.00  0.00    +0.000 A 
ATOM      3  C   UNL     1       0.834   9.576  21.951  0.00  0.00    +0.000 A 
ATOM      4  C   UNL     1       0.769  10.579  20.992  0.00  0.00    +0.000 A 
ATOM      5  C   UNL     1       0.840  10.267  19.648  0.00  0.00    +0.000 A 
ATOM      6  C   UNL     1       1.380   9.042  19.283  0.00  0.00    +0.000 A 
ATOM      7  C   UNL     1       0.292  11.229  18.641  0.00  0.00    +0.000 C 
ATOM      8  O   UNL     1      -0.171  12.430  19.269  0.00  0.00    +0.000 OA
ATOM      9  C   UNL     1       0.725  12.832  20.315  0.00  0.00    +0.000 C 
ATOM     10  C   UNL     1       0.207  14.123  20.949  0.00  0.00    +0.000 C 
ATOM     11  C   UNL     1       1.221  14.650  21.964  0.00  0.00    +0.000 C 
ATOM     12  N   UNL     1       2.524  14.906  21.345  0.00  0.00    +0.000 N 
ATOM     13  C   UNL     1       3.296  15.928  21.907  0.00  0.00    +0.000 C 
ATOM     14  O   UNL     1       2.932  16.547  22.906  0.00  0.00    +0.000 OA
ATOM     15  C   UNL     1       3.105  13.763  20.655  0.00  0.00    +0.000 C 
ATOM     16  C   UNL     1       2.113  13.138  19.692  0.00  0.00    +0.000 C 
ATOM     17  O   UNL     1       0.704  11.877  21.398  0.00  0.00    +0.000 OA
ENDROOT
BRANCH  13  18
ATOM     18  C   UNL     1       4.602  16.335  21.335  0.00  0.00    +0.000 A 
ATOM     19  C   UNL     1       4.583  17.110  20.168  0.00  0.00    +0.000 A 
ATOM     20  C   UNL     1       5.767  17.394  19.480  0.00  0.00    +0.000 A 
ATOM     21  C   UNL     1       6.971  16.900  19.962  0.00  0.00    +0.000 A 
ATOM     22  F   UNL     1       8.105  17.151  19.294  0.00  0.00    +0.000 F 
ATOM     23  C   UNL     1       7.011  16.115  21.112  0.00  0.00    +0.000 A 
ATOM     24  C   UNL     1       5.825  15.827  21.783  0.00  0.00    +0.000 A 
ATOM     25  F   UNL     1       5.892  15.008  22.847  0.00  0.00    +0.000 F 
ENDBRANCH  13  18
BRANCH   1  29
ATOM     26  C   UNL     1       3.276   4.229  19.195  0.00  0.00    +0.000 A 
ATOM     27  C   UNL     1       3.179   5.241  18.227  0.00  0.00    +0.000 A 
ATOM     28  C   UNL     1       2.616   6.480  18.539  0.00  0.00    +0.000 A 
ATOM     29  C   UNL     1       2.104   6.720  19.818  0.00  0.00    +0.000 A 
ATOM     30  C   UNL     1       2.089   5.649  20.723  0.00  0.00    +0.000 A 
ATOM     31  C   UNL     1       2.657   4.409  20.432  0.00  0.00    +0.000 A 
BRANCH  26  33
ATOM     32  C   UNL     1       3.180   2.132  18.149  0.00  0.00    +0.000 C 
ATOM     33  O   UNL     1       3.940   3.065  18.922  0.00  0.00    +0.000 OA
ENDBRANCH  26  33
BRANCH  31  34
ATOM     34  O   UNL     1       2.497   3.535  21.469  0.00  0.00    +0.000 OA
ATOM     35  C   UNL     1       1.387   2.661  21.440  0.00  0.00    +0.000 C 
ENDBRANCH  31  34
ENDBRANCH   1  29
TORSDOF 4
ENDMDL
MODEL 7
REMARK VINA RESULT:      -7.8      1.753      2.489
REMARK  Name = 
REMARK  6 active torsions:
REMARK  status: ('A' for Active; 'I' for Inactive)
REMARK    1  A    between atoms: C_1  and  O_2
REMARK    2  A    between atoms: O_2  and  C_3
REMARK    3  A    between atoms: C_6  and  C_7
REMARK    4  A    between atoms: C_19  and  C_21
REMARK    5  A    between atoms: C_33  and  O_34
REMARK    6  A    between atoms: O_34  and  C_35
REMARK                            x       y       z     vdW  Elec       q    Type
REMARK                         _______ _______ _______ _____ _____    ______ ____
ROOT
ATOM      1  C   UNL     1       1.637   7.975  20.303  0.00  0.00    +0.000 A 
ATOM      2  C   UNL     1       1.216   8.239  21.618  0.00  0.00    +0.000 A 
ATOM      3  C   UNL     1       0.815   9.525  21.982  0.00  0.00    +0.000 A 
ATOM      4  C   UNL     1       0.747  10.514  21.009  0.00  0.00    +0.000 A 
ATOM      5  C   UNL     1       0.854  10.186  19.671  0.00  0.00    +0.000 A 
ATOM      6  C   UNL     1       1.429   8.970  19.333  0.00  0.00    +0.000 A 
ATOM      7  C   UNL     1       0.305  11.123  18.640  0.00  0.00    +0.000 C 
ATOM      8  O   UNL     1      -0.199  12.320  19.242  0.00  0.00    +0.000 OA
ATOM      9  C   UNL     1       0.666  12.757  20.301  0.00  0.00    +0.000 C 
ATOM     10  C   UNL     1       0.104  14.043  20.907  0.00  0.00    +0.000 C 
ATOM     11  C   UNL     1       1.085  14.606  21.937  0.00  0.00    +0.000 C 
ATOM     12  N   UNL     1       2.394  14.885  21.341  0.00  0.00    +0.000 N 
ATOM     13  C   UNL     1       3.129  15.931  21.906  0.00  0.00    +0.000 C 
ATOM     14  O   UNL     1       2.731  16.554  22.889  0.00  0.00    +0.000 OA
ATOM     15  C   UNL     1       3.015  13.747  20.679  0.00  0.00    +0.000 C 
ATOM     16  C   UNL     1       2.059  13.087  19.703  0.00  0.00    +0.000 C 
ATOM     17  O   UNL     1       0.643  11.815  21.397  0.00  0.00    +0.000 OA
ENDROOT
BRANCH  13  18
ATOM     18  C   UNL     1       4.438  16.361  21.356  0.00  0.00    +0.000 A 
ATOM     19  C   UNL     1       5.549  16.300  22.207  0.00  0.00    +0.000 A 
ATOM     20  C   UNL     1       6.779  16.839  21.816  0.00  0.00    +0.000 A 
ATOM     21  C   UNL     1       6.896  17.440  20.571  0.00  0.00    +0.000 A 
ATOM     22  F   UNL     1       8.066  17.977  20.202  0.00  0.00    +0.000 F 
ATOM     23  C   UNL     1       5.800  17.525  19.714  0.00  0.00    +0.000 A 
ATOM     24  C   UNL     1       4.576  16.996  20.118  0.00  0.00    +0.000 A 
ATOM     25  F   UNL     1       3.524  17.159  19.297  0.00  0.00    +0.000 F 
ENDBRANCH  13  18
BRANCH   1  29
ATOM     26  C   UNL     1       3.123   4.182  18.962  0.00  0.00    +0.000 A 
ATOM     27  C   UNL     1       2.500   4.287  20.216  0.00  0.00    +0.000 A 
ATOM     28  C   UNL     1       2.025   5.515  20.680  0.00  0.00    +0.000 A 
ATOM     29  C   UNL     1       2.196   6.672  19.914  0.00  0.00    +0.000 A 
ATOM     30  C   UNL     1       2.940   6.564  18.732  0.00  0.00    +0.000 A 
ATOM     31  C   UNL     1       3.412   5.345  18.247  0.00  0.00    +0.000 A 
BRANCH  26  33
ATOM     32  C   UNL     1       2.430   2.321  17.715  0.00  0.00    +0.000 C 
ATOM     33  O   UNL     1       3.472   2.960  18.458  0.00  0.00    +0.000 OA
ENDBRANCH  26  33
BRANCH  31  34
ATOM     34  O   UNL     1       4.120   5.511  17.091  0.00  0.00    +0.000 OA
ATOM     35  C   UNL     1       4.849   6.709  16.920  0.00  0.00    +0.000 C 
ENDBRANCH  31  34
ENDBRANCH   1  29
TORSDOF 4
ENDMDL
MODEL 8
REMARK VINA RESULT:      -7.8      1.992      2.831
REMARK  Name = 
REMARK  6 active torsions:
REMARK  status: ('A' for Active; 'I' for Inactive)
REMARK    1  A    between atoms: C_1  and  O_2
REMARK    2  A    between atoms: O_2  and  C_3
REMARK    3  A    between atoms: C_6  and  C_7
REMARK    4  A    between atoms: C_19  and  C_21
REMARK    5  A    between atoms: C_33  and  O_34
REMARK    6  A    between atoms: O_34  and  C_35
REMARK                            x       y       z     vdW  Elec       q    Type
REMARK                         _______ _______ _______ _____ _____    ______ ____
ROOT
ATOM      1  C   UNL     1       1.591   7.954  20.381  0.00  0.00    +0.000 A 
ATOM      2  C   UNL     1       1.193   8.247  21.697  0.00  0.00    +0.000 A 
ATOM      3  C   UNL     1       0.806   9.542  22.043  0.00  0.00    +0.000 A 
ATOM      4  C   UNL     1       0.729  10.512  21.052  0.00  0.00    +0.000 A 
ATOM      5  C   UNL     1       0.812  10.158  19.719  0.00  0.00    +0.000 A 
ATOM      6  C   UNL     1       1.374   8.931  19.396  0.00  0.00    +0.000 A 
ATOM      7  C   UNL     1       0.253  11.078  18.678  0.00  0.00    +0.000 C 
ATOM      8  O   UNL     1      -0.234  12.291  19.265  0.00  0.00    +0.000 OA
ATOM      9  C   UNL     1       0.651  12.741  20.302  0.00  0.00    +0.000 C 
ATOM     10  C   UNL     1       0.107  14.043  20.892  0.00  0.00    +0.000 C 
ATOM     11  C   UNL     1       1.108  14.619  21.895  0.00  0.00    +0.000 C 
ATOM     12  N   UNL     1       2.409  14.878  21.273  0.00  0.00    +0.000 N 
ATOM     13  C   UNL     1       3.161  15.929  21.806  0.00  0.00    +0.000 C 
ATOM     14  O   UNL     1       2.782  16.574  22.782  0.00  0.00    +0.000 OA
ATOM     15  C   UNL     1       3.013  13.723  20.623  0.00  0.00    +0.000 C 
ATOM     16  C   UNL     1       2.037  13.051  19.676  0.00  0.00    +0.000 C 
ATOM     17  O   UNL     1       0.640  11.821  21.416  0.00  0.00    +0.000 OA
ENDROOT
BRANCH  13  18
ATOM     18  C   UNL     1       4.463  16.340  21.226  0.00  0.00    +0.000 A 
ATOM     19  C   UNL     1       4.445  16.954  19.967  0.00  0.00    +0.000 A 
ATOM     20  C   UNL     1       5.638  17.221  19.286  0.00  0.00    +0.000 A 
ATOM     21  C   UNL     1       6.848  16.870  19.867  0.00  0.00    +0.000 A 
ATOM     22  F   UNL     1       7.991  17.103  19.208  0.00  0.00    +0.000 F 
ATOM     23  C   UNL     1       6.888  16.245  21.112  0.00  0.00    +0.000 A 
ATOM     24  C   UNL     1       5.695  15.973  21.777  0.00  0.00    +0.000 A 
ATOM     25  F   UNL     1       5.767  15.305  22.940  0.00  0.00    +0.000 F 
ENDBRANCH  13  18
BRANCH   1  29
ATOM     26  C   UNL     1       3.049   4.137  19.078  0.00  0.00    +0.000 A 
ATOM     27  C   UNL     1       2.338   4.241  20.284  0.00  0.00    +0.000 A 
ATOM     28  C   UNL     1       1.869   5.476  20.736  0.00  0.00    +0.000 A 
ATOM     29  C   UNL     1       2.134   6.640  20.009  0.00  0.00    +0.000 A 
ATOM     30  C   UNL     1       2.961   6.528  18.883  0.00  0.00    +0.000 A 
ATOM     31  C   UNL     1       3.429   5.302  18.410  0.00  0.00    +0.000 A 
BRANCH  26  33
ATOM     32  C   UNL     1       2.403   2.335  17.725  0.00  0.00    +0.000 C 
ATOM     33  O   UNL     1       3.396   2.913  18.577  0.00  0.00    +0.000 OA
ENDBRANCH  26  33
BRANCH  31  34
ATOM     34  O   UNL     1       4.226   5.465  17.314  0.00  0.00    +0.000 OA
ATOM     35  C   UNL     1       4.647   6.772  16.981  0.00  0.00    +0.000 C 
ENDBRANCH  31  34
ENDBRANCH   1  29
TORSDOF 4
ENDMDL
MODEL 9
REMARK VINA RESULT:      -7.6      4.590      8.025
REMARK  Name = 
REMARK  6 active torsions:
REMARK  status: ('A' for Active; 'I' for Inactive)
REMARK    1  A    between atoms: C_1  and  O_2
REMARK    2  A    between atoms: O_2  and  C_3
REMARK    3  A    between atoms: C_6  and  C_7
REMARK    4  A    between atoms: C_19  and  C_21
REMARK    5  A    between atoms: C_33  and  O_34
REMARK    6  A    between atoms: O_34  and  C_35
REMARK                            x       y       z     vdW  Elec       q    Type
REMARK                         _______ _______ _______ _____ _____    ______ ____
ROOT
ATOM      1  C   UNL     1       1.217  13.638  19.535  0.00  0.00    +0.000 A 
ATOM      2  C   UNL     1       1.389  14.106  20.849  0.00  0.00    +0.000 A 
ATOM      3  C   UNL     1       2.430  14.984  21.153  0.00  0.00    +0.000 A 
ATOM      4  C   UNL     1       3.234  15.462  20.125  0.00  0.00    +0.000 A 
ATOM      5  C   UNL     1       2.877  15.256  18.806  0.00  0.00    +0.000 A 
ATOM      6  C   UNL     1       1.971  14.247  18.517  0.00  0.00    +0.000 A 
ATOM      7  C   UNL     1       3.436  16.154  17.746  0.00  0.00    +0.000 C 
ATOM      8  O   UNL     1       4.373  17.087  18.297  0.00  0.00    +0.000 OA
ATOM      9  C   UNL     1       5.197  16.451  19.286  0.00  0.00    +0.000 C 
ATOM     10  C   UNL     1       6.193  17.472  19.837  0.00  0.00    +0.000 C 
ATOM     11  C   UNL     1       7.176  16.782  20.784  0.00  0.00    +0.000 C 
ATOM     12  N   UNL     1       7.910  15.707  20.112  0.00  0.00    +0.000 N 
ATOM     13  C   UNL     1       9.202  15.444  20.576  0.00  0.00    +0.000 C 
ATOM     14  O   UNL     1       9.685  16.041  21.537  0.00  0.00    +0.000 OA
ATOM     15  C   UNL     1       7.070  14.692  19.492  0.00  0.00    +0.000 C 
ATOM     16  C   UNL     1       6.011  15.319  18.604  0.00  0.00    +0.000 C 
ATOM     17  O   UNL     1       4.409  16.073  20.437  0.00  0.00    +0.000 OA
ENDROOT
BRANCH  13  18
ATOM     18  C   UNL     1      10.077  14.429  19.940  0.00  0.00    +0.000 A 
ATOM     19  C   UNL     1      10.443  14.638  18.604  0.00  0.00    +0.000 A 
ATOM     20  C   UNL     1      11.128  13.650  17.889  0.00  0.00    +0.000 A 
ATOM     21  C   UNL     1      11.445  12.452  18.513  0.00  0.00    +0.000 A 
ATOM     22  F   UNL     1      12.080  11.494  17.825  0.00  0.00    +0.000 F 
ATOM     23  C   UNL     1      11.077  12.217  19.836  0.00  0.00    +0.000 A 
ATOM     24  C   UNL     1      10.385  13.202  20.537  0.00  0.00    +0.000 A 
ATOM     25  F   UNL     1       9.984  12.915  21.786  0.00  0.00    +0.000 F 
ENDBRANCH  13  18
BRANCH   1  29
ATOM     26  C   UNL     1      -1.610  10.652  18.321  0.00  0.00    +0.000 A 
ATOM     27  C   UNL     1      -2.058  11.830  18.938  0.00  0.00    +0.000 A 
ATOM     28  C   UNL     1      -1.154  12.808  19.357  0.00  0.00    +0.000 A 
ATOM     29  C   UNL     1       0.222  12.611  19.200  0.00  0.00    +0.000 A 
ATOM     30  C   UNL     1       0.647  11.370  18.708  0.00  0.00    +0.000 A 
ATOM     31  C   UNL     1      -0.241  10.386  18.274  0.00  0.00    +0.000 A 
BRANCH  26  33
ATOM     32  C   UNL     1      -2.839  10.005  16.431  0.00  0.00    +0.000 C 
ATOM     33  O   UNL     1      -2.502   9.756  17.799  0.00  0.00    +0.000 OA
ENDBRANCH  26  33
BRANCH  31  34
ATOM     34  O   UNL     1       0.422   9.268  17.856  0.00  0.00    +0.000 OA
ATOM     35  C   UNL     1       1.834   9.302  17.825  0.00  0.00    +0.000 C 
ENDBRANCH  31  34
ENDBRANCH   1  29
TORSDOF 4
ENDMDL
