MODEL 1
REMARK VINA RESULT:      -7.1      0.000      0.000
REMARK  Name = 
REMARK  4 active torsions:
REMARK  status: ('A' for Active; 'I' for Inactive)
REMARK    1  A    between atoms: C_2  and  C_3
REMARK    2  A    between atoms: C_3  and  C_4
REMARK    3  A    between atoms: C_4  and  N_5
REMARK    4  A    between atoms: N_11  and  C_12
REMARK                            x       y       z     vdW  Elec       q    Type
REMARK                         _______ _______ _______ _____ _____    ______ ____
ROOT
ATOM      1  O   UNL     1       3.627   6.814  17.452  0.00  0.00    +0.000 OA
ATOM      2  C   UNL     1       2.834   7.391  18.180  0.00  0.00    +0.000 C 
ATOM      3  N   UNL     1       2.124   6.695  19.124  0.00  0.00    +0.000 N 
ATOM      4  H   UNL     1       1.472   7.231  19.714  0.00  0.00    +0.000 HD
ENDROOT
BRANCH   3   5
ATOM      5  C   UNL     1       2.191   5.230  19.309  0.00  0.00    +0.000 C 
ATOM      6  C   UNL     1       1.212   4.761  20.428  0.00  0.00    +0.000 C 
ATOM      7  C   UNL     1       1.287   3.230  20.594  0.00  0.00    +0.000 C 
ATOM      8  C   UNL     1       0.875   2.553  19.274  0.00  0.00    +0.000 C 
ATOM      9  C   UNL     1       1.843   2.979  18.152  0.00  0.00    +0.000 C 
ATOM     10  C   UNL     1       3.277   2.547  18.522  0.00  0.00    +0.000 C 
ATOM     11  C   UNL     1       3.696   3.236  19.838  0.00  0.00    +0.000 C 
ATOM     12  C   UNL     1       2.729   2.815  20.968  0.00  0.00    +0.000 C 
ATOM     13  C   UNL     1       3.639   4.776  19.667  0.00  0.00    +0.000 C 
ATOM     14  C   UNL     1       1.793   4.518  17.981  0.00  0.00    +0.000 C 
ENDBRANCH   3   5
BRANCH   2  15
ATOM     15  C   UNL     1       2.579   8.861  17.912  0.00  0.00    +0.000 C 
BRANCH  15  16
ATOM     16  C   UNL     1       1.147   9.436  18.019  0.00  0.00    +0.000 C 
BRANCH  16  17
ATOM     17  N   UNL     1       0.933  10.050  19.370  0.00  0.00    +0.000 NA
ATOM     18  C   UNL     1      -0.457   9.939  19.859  0.00  0.00    +0.000 C 
ATOM     19  C   UNL     1      -1.387  10.947  19.151  0.00  0.00    +0.000 C 
ATOM     20  O   UNL     1      -0.914  12.275  19.291  0.00  0.00    +0.000 OA
ATOM     21  C   UNL     1       0.387  12.386  18.743  0.00  0.00    +0.000 C 
ATOM     22  C   UNL     1       1.354  11.468  19.494  0.00  0.00    +0.000 C 
ENDBRANCH  16  17
ENDBRANCH  15  16
ENDBRANCH   2  15
TORSDOF 4
ENDMDL
MODEL 2
REMARK VINA RESULT:      -7.1      0.421      1.709
REMARK  Name = 
REMARK  4 active torsions:
REMARK  status: ('A' for Active; 'I' for Inactive)
REMARK    1  A    between atoms: C_2  and  C_3
REMARK    2  A    between atoms: C_3  and  C_4
REMARK    3  A    between atoms: C_4  and  N_5
REMARK    4  A    between atoms: N_11  and  C_12
REMARK                            x       y       z     vdW  Elec       q    Type
REMARK                         _______ _______ _______ _____ _____    ______ ____
ROOT
ATOM      1  O   UNL     1       3.522   7.043  17.504  0.00  0.00    +0.000 OA
ATOM      2  C   UNL     1       2.710   7.524  18.280  0.00  0.00    +0.000 C 
ATOM      3  N   UNL     1       2.053   6.726  19.180  0.00  0.00    +0.000 N 
ATOM      4  H   UNL     1       1.381   7.183  19.813  0.00  0.00    +0.000 HD
ENDROOT
BRANCH   3   5
ATOM      5  C   UNL     1       2.201   5.258  19.261  0.00  0.00    +0.000 C 
ATOM      6  C   UNL     1       3.660   4.861  19.640  0.00  0.00    +0.000 C 
ATOM      7  C   UNL     1       3.789   3.328  19.733  0.00  0.00    +0.000 C 
ATOM      8  C   UNL     1       2.843   2.803  20.831  0.00  0.00    +0.000 C 
ATOM      9  C   UNL     1       1.387   3.159  20.469  0.00  0.00    +0.000 C 
ATOM     10  C   UNL     1       1.020   2.504  19.121  0.00  0.00    +0.000 C 
ATOM     11  C   UNL     1       1.958   3.040  18.019  0.00  0.00    +0.000 C 
ATOM     12  C   UNL     1       3.421   2.688  18.375  0.00  0.00    +0.000 C 
ATOM     13  C   UNL     1       1.817   4.580  17.910  0.00  0.00    +0.000 C 
ATOM     14  C   UNL     1       1.242   4.696  20.355  0.00  0.00    +0.000 C 
ENDBRANCH   3   5
BRANCH   2  15
ATOM     15  C   UNL     1       2.372   8.993  18.118  0.00  0.00    +0.000 C 
BRANCH  15  16
ATOM     16  C   UNL     1       0.909   9.435  17.881  0.00  0.00    +0.000 C 
BRANCH  16  17
ATOM     17  N   UNL     1       0.334  10.025  19.133  0.00  0.00    +0.000 NA
ATOM     18  C   UNL     1      -1.104  10.346  19.031  0.00  0.00    +0.000 C 
ATOM     19  C   UNL     1      -1.340  11.630  18.208  0.00  0.00    +0.000 C 
ATOM     20  O   UNL     1      -0.620  12.728  18.742  0.00  0.00    +0.000 OA
ATOM     21  C   UNL     1       0.766  12.437  18.756  0.00  0.00    +0.000 C 
ATOM     22  C   UNL     1       1.040  11.224  19.648  0.00  0.00    +0.000 C 
ENDBRANCH  16  17
ENDBRANCH  15  16
ENDBRANCH   2  15
TORSDOF 4
ENDMDL
MODEL 3
REMARK VINA RESULT:      -7.1      0.091      1.655
REMARK  Name = 
REMARK  4 active torsions:
REMARK  status: ('A' for Active; 'I' for Inactive)
REMARK    1  A    between atoms: C_2  and  C_3
REMARK    2  A    between atoms: C_3  and  C_4
REMARK    3  A    between atoms: C_4  and  N_5
REMARK    4  A    between atoms: N_11  and  C_12
REMARK                            x       y       z     vdW  Elec       q    Type
REMARK                         _______ _______ _______ _____ _____    ______ ____
ROOT
ATOM      1  O   UNL     1       3.679   6.787  17.476  0.00  0.00    +0.000 OA
ATOM      2  C   UNL     1       2.848   7.351  18.172  0.00  0.00    +0.000 C 
ATOM      3  N   UNL     1       2.094   6.640  19.069  0.00  0.00    +0.000 N 
ATOM      4  H   UNL     1       1.411   7.166  19.633  0.00  0.00    +0.000 HD
ENDROOT
BRANCH   3   5
ATOM      5  C   UNL     1       2.157   5.173  19.236  0.00  0.00    +0.000 C 
ATOM      6  C   UNL     1       1.777   4.440  17.915  0.00  0.00    +0.000 C 
ATOM      7  C   UNL     1       1.863   2.912  18.108  0.00  0.00    +0.000 C 
ATOM      8  C   UNL     1       3.308   2.526  18.478  0.00  0.00    +0.000 C 
ATOM      9  C   UNL     1       3.704   3.218  19.799  0.00  0.00    +0.000 C 
ATOM     10  C   UNL     1       2.749   2.762  20.921  0.00  0.00    +0.000 C 
ATOM     11  C   UNL     1       1.302   3.161  20.557  0.00  0.00    +0.000 C 
ATOM     12  C   UNL     1       0.899   2.473  19.233  0.00  0.00    +0.000 C 
ATOM     13  C   UNL     1       1.209   4.699  20.381  0.00  0.00    +0.000 C 
ATOM     14  C   UNL     1       3.607   4.754  19.628  0.00  0.00    +0.000 C 
ENDBRANCH   3   5
BRANCH   2  15
ATOM     15  C   UNL     1       2.601   8.824  17.912  0.00  0.00    +0.000 C 
BRANCH  15  16
ATOM     16  C   UNL     1       1.175   9.410  18.036  0.00  0.00    +0.000 C 
BRANCH  16  17
ATOM     17  N   UNL     1       1.008  10.098  19.357  0.00  0.00    +0.000 NA
ATOM     18  C   UNL     1      -0.342   9.946  19.939  0.00  0.00    +0.000 C 
ATOM     19  C   UNL     1      -1.367  10.857  19.231  0.00  0.00    +0.000 C 
ATOM     20  O   UNL     1      -0.961  12.214  19.259  0.00  0.00    +0.000 OA
ATOM     21  C   UNL     1       0.296  12.356  18.624  0.00  0.00    +0.000 C 
ATOM     22  C   UNL     1       1.356  11.540  19.368  0.00  0.00    +0.000 C 
ENDBRANCH  16  17
ENDBRANCH  15  16
ENDBRANCH   2  15
TORSDOF 4
ENDMDL
MODEL 4
REMARK VINA RESULT:      -7.1      0.987      1.048
REMARK  Name = 
REMARK  4 active torsions:
REMARK  status: ('A' for Active; 'I' for Inactive)
REMARK    1  A    between atoms: C_2  and  C_3
REMARK    2  A    between atoms: C_3  and  C_4
REMARK    3  A    between atoms: C_4  and  N_5
REMARK    4  A    between atoms: N_11  and  C_12
REMARK                            x       y       z     vdW  Elec       q    Type
REMARK                         _______ _______ _______ _____ _____    ______ ____
ROOT
ATOM      1  O   UNL     1       2.480   7.157  19.959  0.00  0.00    +0.000 OA
ATOM      2  C   UNL     1       2.409   7.191  18.740  0.00  0.00    +0.000 C 
ATOM      3  N   UNL     1       2.339   6.029  18.016  0.00  0.00    +0.000 N 
ATOM      4  H   UNL     1       2.277   6.115  16.990  0.00  0.00    +0.000 HD
ENDROOT
BRANCH   3   5
ATOM      5  C   UNL     1       2.405   4.673  18.600  0.00  0.00    +0.000 C 
ATOM      6  C   UNL     1       1.286   4.467  19.665  0.00  0.00    +0.000 C 
ATOM      7  C   UNL     1       1.364   3.042  20.251  0.00  0.00    +0.000 C 
ATOM      8  C   UNL     1       1.154   2.015  19.122  0.00  0.00    +0.000 C 
ATOM      9  C   UNL     1       2.264   2.179  18.064  0.00  0.00    +0.000 C 
ATOM     10  C   UNL     1       3.639   1.942  18.723  0.00  0.00    +0.000 C 
ATOM     11  C   UNL     1       3.855   2.980  19.845  0.00  0.00    +0.000 C 
ATOM     12  C   UNL     1       2.744   2.822  20.909  0.00  0.00    +0.000 C 
ATOM     13  C   UNL     1       3.795   4.412  19.255  0.00  0.00    +0.000 C 
ATOM     14  C   UNL     1       2.212   3.611  17.475  0.00  0.00    +0.000 C 
ENDBRANCH   3   5
BRANCH   2  15
ATOM     15  C   UNL     1       2.530   8.545  18.069  0.00  0.00    +0.000 C 
BRANCH  15  16
ATOM     16  C   UNL     1       1.315   9.500  18.014  0.00  0.00    +0.000 C 
BRANCH  16  17
ATOM     17  N   UNL     1       1.437  10.560  19.067  0.00  0.00    +0.000 NA
ATOM     18  C   UNL     1       0.817  10.192  20.356  0.00  0.00    +0.000 C 
ATOM     19  C   UNL     1      -0.721  10.301  20.294  0.00  0.00    +0.000 C 
ATOM     20  O   UNL     1      -1.133  11.597  19.895  0.00  0.00    +0.000 OA
ATOM     21  C   UNL     1      -0.598  11.903  18.620  0.00  0.00    +0.000 C 
ATOM     22  C   UNL     1       0.932  11.899  18.677  0.00  0.00    +0.000 C 
ENDBRANCH  16  17
ENDBRANCH  15  16
ENDBRANCH   2  15
TORSDOF 4
ENDMDL
MODEL 5
REMARK VINA RESULT:      -7.0      4.565      6.043
REMARK  Name = 
REMARK  4 active torsions:
REMARK  status: ('A' for Active; 'I' for Inactive)
REMARK    1  A    between atoms: C_2  and  C_3
REMARK    2  A    between atoms: C_3  and  C_4
REMARK    3  A    between atoms: C_4  and  N_5
REMARK    4  A    between atoms: N_11  and  C_12
REMARK                            x       y       z     vdW  Elec       q    Type
REMARK                         _______ _______ _______ _____ _____    ______ ____
ROOT
ATOM      1  O   UNL     1       6.187   4.533  19.867  0.00  0.00    +0.000 OA
ATOM      2  C   UNL     1       5.844   5.092  18.836  0.00  0.00    +0.000 C 
ATOM      3  N   UNL     1       4.536   5.054  18.429  0.00  0.00    +0.000 N 
ATOM      4  H   UNL     1       4.300   5.545  17.554  0.00  0.00    +0.000 HD
ENDROOT
BRANCH   3   5
ATOM      5  C   UNL     1       3.462   4.315  19.126  0.00  0.00    +0.000 C 
ATOM      6  C   UNL     1       2.991   5.079  20.400  0.00  0.00    +0.000 C 
ATOM      7  C   UNL     1       1.862   4.298  21.103  0.00  0.00    +0.000 C 
ATOM      8  C   UNL     1       0.663   4.164  20.146  0.00  0.00    +0.000 C 
ATOM      9  C   UNL     1       1.094   3.388  18.885  0.00  0.00    +0.000 C 
ATOM     10  C   UNL     1       1.583   1.983  19.292  0.00  0.00    +0.000 C 
ATOM     11  C   UNL     1       2.794   2.116  20.240  0.00  0.00    +0.000 C 
ATOM     12  C   UNL     1       2.370   2.895  21.506  0.00  0.00    +0.000 C 
ATOM     13  C   UNL     1       3.937   2.885  19.528  0.00  0.00    +0.000 C 
ATOM     14  C   UNL     1       2.239   4.150  18.173  0.00  0.00    +0.000 C 
ENDBRANCH   3   5
BRANCH   2  15
ATOM     15  C   UNL     1       6.931   5.705  17.977  0.00  0.00    +0.000 C 
BRANCH  15  16
ATOM     16  C   UNL     1       7.436   4.968  16.715  0.00  0.00    +0.000 C 
BRANCH  16  17
ATOM     17  N   UNL     1       7.009   5.700  15.478  0.00  0.00    +0.000 NA
ATOM     18  C   UNL     1       5.556   5.954  15.410  0.00  0.00    +0.000 C 
ATOM     19  C   UNL     1       4.776   4.676  15.035  0.00  0.00    +0.000 C 
ATOM     20  O   UNL     1       5.243   4.124  13.816  0.00  0.00    +0.000 OA
ATOM     21  C   UNL     1       6.619   3.808  13.924  0.00  0.00    +0.000 C 
ATOM     22  C   UNL     1       7.429   5.077  14.198  0.00  0.00    +0.000 C 
ENDBRANCH  16  17
ENDBRANCH  15  16
ENDBRANCH   2  15
TORSDOF 4
ENDMDL
MODEL 6
REMARK VINA RESULT:      -7.0      4.260      6.079
REMARK  Name = 
REMARK  4 active torsions:
REMARK  status: ('A' for Active; 'I' for Inactive)
REMARK    1  A    between atoms: C_2  and  C_3
REMARK    2  A    between atoms: C_3  and  C_4
REMARK    3  A    between atoms: C_4  and  N_5
REMARK    4  A    between atoms: N_11  and  C_12
REMARK                            x       y       z     vdW  Elec       q    Type
REMARK                         _______ _______ _______ _____ _____    ______ ____
ROOT
ATOM      1  O   UNL     1       5.745   5.545  19.290  0.00  0.00    +0.000 OA
ATOM      2  C   UNL     1       5.163   6.001  18.318  0.00  0.00    +0.000 C 
ATOM      3  N   UNL     1       3.882   5.607  18.027  0.00  0.00    +0.000 N 
ATOM      4  H   UNL     1       3.437   6.026  17.197  0.00  0.00    +0.000 HD
ENDROOT
BRANCH   3   5
ATOM      5  C   UNL     1       3.127   4.588  18.785  0.00  0.00    +0.000 C 
ATOM      6  C   UNL     1       2.749   5.110  20.204  0.00  0.00    +0.000 C 
ATOM      7  C   UNL     1       1.950   4.037  20.971  0.00  0.00    +0.000 C 
ATOM      8  C   UNL     1       0.650   3.726  20.207  0.00  0.00    +0.000 C 
ATOM      9  C   UNL     1       0.994   3.182  18.805  0.00  0.00    +0.000 C 
ATOM     10  C   UNL     1       1.825   1.890  18.948  0.00  0.00    +0.000 C 
ATOM     11  C   UNL     1       3.135   2.205  19.702  0.00  0.00    +0.000 C 
ATOM     12  C   UNL     1       2.798   2.752  21.108  0.00  0.00    +0.000 C 
ATOM     13  C   UNL     1       3.949   3.269  18.922  0.00  0.00    +0.000 C 
ATOM     14  C   UNL     1       1.811   4.241  18.024  0.00  0.00    +0.000 C 
ENDBRANCH   3   5
BRANCH   2  15
ATOM     15  C   UNL     1       5.950   6.906  17.391  0.00  0.00    +0.000 C 
BRANCH  15  16
ATOM     16  C   UNL     1       6.022   6.599  15.877  0.00  0.00    +0.000 C 
BRANCH  16  17
ATOM     17  N   UNL     1       7.124   5.623  15.595  0.00  0.00    +0.000 NA
ATOM     18  C   UNL     1       7.303   5.328  14.158  0.00  0.00    +0.000 C 
ATOM     19  C   UNL     1       6.203   4.380  13.635  0.00  0.00    +0.000 C 
ATOM     20  O   UNL     1       6.152   3.181  14.388  0.00  0.00    +0.000 OA
ATOM     21  C   UNL     1       5.898   3.474  15.749  0.00  0.00    +0.000 C 
ATOM     22  C   UNL     1       7.027   4.333  16.322  0.00  0.00    +0.000 C 
ENDBRANCH  16  17
ENDBRANCH  15  16
ENDBRANCH   2  15
TORSDOF 4
ENDMDL
MODEL 7
REMARK VINA RESULT:      -7.0      1.512      2.383
REMARK  Name = 
REMARK  4 active torsions:
REMARK  status: ('A' for Active; 'I' for Inactive)
REMARK    1  A    between atoms: C_2  and  C_3
REMARK    2  A    between atoms: C_3  and  C_4
REMARK    3  A    between atoms: C_4  and  N_5
REMARK    4  A    between atoms: N_11  and  C_12
REMARK                            x       y       z     vdW  Elec       q    Type
REMARK                         _______ _______ _______ _____ _____    ______ ____
ROOT
ATOM      1  O   UNL     1       3.195   7.435  17.708  0.00  0.00    +0.000 OA
ATOM      2  C   UNL     1       2.391   7.710  18.585  0.00  0.00    +0.000 C 
ATOM      3  N   UNL     1       1.902   6.730  19.410  0.00  0.00    +0.000 N 
ATOM      4  H   UNL     1       1.228   7.018  20.136  0.00  0.00    +0.000 HD
ENDROOT
BRANCH   3   5
ATOM      5  C   UNL     1       2.230   5.294  19.292  0.00  0.00    +0.000 C 
ATOM      6  C   UNL     1       3.739   5.038  19.586  0.00  0.00    +0.000 C 
ATOM      7  C   UNL     1       4.056   3.533  19.471  0.00  0.00    +0.000 C 
ATOM      8  C   UNL     1       3.220   2.755  20.506  0.00  0.00    +0.000 C 
ATOM      9  C   UNL     1       1.719   2.971  20.223  0.00  0.00    +0.000 C 
ATOM     10  C   UNL     1       1.387   2.456  18.807  0.00  0.00    +0.000 C 
ATOM     11  C   UNL     1       2.214   3.245  17.768  0.00  0.00    +0.000 C 
ATOM     12  C   UNL     1       3.720   3.035  18.046  0.00  0.00    +0.000 C 
ATOM     13  C   UNL     1       1.882   4.756  17.870  0.00  0.00    +0.000 C 
ATOM     14  C   UNL     1       1.385   4.480  20.318  0.00  0.00    +0.000 C 
ENDBRANCH   3   5
BRANCH   2  15
ATOM     15  C   UNL     1       1.869   9.132  18.635  0.00  0.00    +0.000 C 
BRANCH  15  16
ATOM     16  C   UNL     1       0.688   9.497  19.566  0.00  0.00    +0.000 C 
BRANCH  16  17
ATOM     17  N   UNL     1       1.193  10.164  20.810  0.00  0.00    +0.000 NA
ATOM     18  C   UNL     1       1.113   9.312  22.015  0.00  0.00    +0.000 C 
ATOM     19  C   UNL     1      -0.334   9.216  22.543  0.00  0.00    +0.000 C 
ATOM     20  O   UNL     1      -0.878  10.498  22.801  0.00  0.00    +0.000 OA
ATOM     21  C   UNL     1      -0.871  11.275  21.617  0.00  0.00    +0.000 C 
ATOM     22  C   UNL     1       0.565  11.470  21.126  0.00  0.00    +0.000 C 
ENDBRANCH  16  17
ENDBRANCH  15  16
ENDBRANCH   2  15
TORSDOF 4
ENDMDL
MODEL 8
REMARK VINA RESULT:      -7.0      4.303      6.215
REMARK  Name = 
REMARK  4 active torsions:
REMARK  status: ('A' for Active; 'I' for Inactive)
REMARK    1  A    between atoms: C_2  and  C_3
REMARK    2  A    between atoms: C_3  and  C_4
REMARK    3  A    between atoms: C_4  and  N_5
REMARK    4  A    between atoms: N_11  and  C_12
REMARK                            x       y       z     vdW  Elec       q    Type
REMARK                         _______ _______ _______ _____ _____    ______ ____
ROOT
ATOM      1  O   UNL     1       5.814   5.472  19.359  0.00  0.00    +0.000 OA
ATOM      2  C   UNL     1       5.277   5.954  18.374  0.00  0.00    +0.000 C 
ATOM      3  N   UNL     1       3.992   5.609  18.045  0.00  0.00    +0.000 N 
ATOM      4  H   UNL     1       3.586   6.049  17.205  0.00  0.00    +0.000 HD
ENDROOT
BRANCH   3   5
ATOM      5  C   UNL     1       3.179   4.614  18.774  0.00  0.00    +0.000 C 
ATOM      6  C   UNL     1       1.857   4.302  18.011  0.00  0.00    +0.000 C 
ATOM      7  C   UNL     1       1.032   3.251  18.782  0.00  0.00    +0.000 C 
ATOM      8  C   UNL     1       1.845   1.948  18.896  0.00  0.00    +0.000 C 
ATOM      9  C   UNL     1       3.151   2.221  19.671  0.00  0.00    +0.000 C 
ATOM     10  C   UNL     1       2.808   2.736  21.084  0.00  0.00    +0.000 C 
ATOM     11  C   UNL     1       2.005   4.050  20.970  0.00  0.00    +0.000 C 
ATOM     12  C   UNL     1       0.695   3.783  20.194  0.00  0.00    +0.000 C 
ATOM     13  C   UNL     1       2.840   5.113  20.212  0.00  0.00    +0.000 C 
ATOM     14  C   UNL     1       3.986   3.287  18.919  0.00  0.00    +0.000 C 
ENDBRANCH   3   5
BRANCH   2  15
ATOM     15  C   UNL     1       6.123   6.835  17.477  0.00  0.00    +0.000 C 
BRANCH  15  16
ATOM     16  C   UNL     1       6.157   6.589  15.950  0.00  0.00    +0.000 C 
BRANCH  16  17
ATOM     17  N   UNL     1       7.219   5.588  15.607  0.00  0.00    +0.000 NA
ATOM     18  C   UNL     1       7.370   5.355  14.156  0.00  0.00    +0.000 C 
ATOM     19  C   UNL     1       6.230   4.472  13.605  0.00  0.00    +0.000 C 
ATOM     20  O   UNL     1       6.145   3.241  14.302  0.00  0.00    +0.000 OA
ATOM     21  C   UNL     1       5.918   3.479  15.679  0.00  0.00    +0.000 C 
ATOM     22  C   UNL     1       7.085   4.270  16.275  0.00  0.00    +0.000 C 
ENDBRANCH  16  17
ENDBRANCH  15  16
ENDBRANCH   2  15
TORSDOF 4
ENDMDL
MODEL 9
REMARK VINA RESULT:      -7.0      0.783      1.041
REMARK  Name = 
REMARK  4 active torsions:
REMARK  status: ('A' for Active; 'I' for Inactive)
REMARK    1  A    between atoms: C_2  and  C_3
REMARK    2  A    between atoms: C_3  and  C_4
REMARK    3  A    between atoms: C_4  and  N_5
REMARK    4  A    between atoms: N_11  and  C_12
REMARK                            x       y       z     vdW  Elec       q    Type
REMARK                         _______ _______ _______ _____ _____    ______ ____
ROOT
ATOM      1  O   UNL     1       3.720   6.479  17.410  0.00  0.00    +0.000 OA
ATOM      2  C   UNL     1       2.880   7.111  18.032  0.00  0.00    +0.000 C 
ATOM      3  N   UNL     1       2.099   6.490  18.973  0.00  0.00    +0.000 N 
ATOM      4  H   UNL     1       1.409   7.070  19.471  0.00  0.00    +0.000 HD
ENDROOT
BRANCH   3   5
ATOM      5  C   UNL     1       2.143   5.044  19.274  0.00  0.00    +0.000 C 
ATOM      6  C   UNL     1       1.172   4.684  20.439  0.00  0.00    +0.000 C 
ATOM      7  C   UNL     1       1.223   3.170  20.727  0.00  0.00    +0.000 C 
ATOM      8  C   UNL     1       0.780   2.397  19.471  0.00  0.00    +0.000 C 
ATOM      9  C   UNL     1       1.740   2.714  18.306  0.00  0.00    +0.000 C 
ATOM     10  C   UNL     1       3.171   2.286  18.692  0.00  0.00    +0.000 C 
ATOM     11  C   UNL     1       3.620   3.071  19.943  0.00  0.00    +0.000 C 
ATOM     12  C   UNL     1       2.662   2.759  21.114  0.00  0.00    +0.000 C 
ATOM     13  C   UNL     1       3.588   4.593  19.649  0.00  0.00    +0.000 C 
ATOM     14  C   UNL     1       1.714   4.234  18.012  0.00  0.00    +0.000 C 
ENDBRANCH   3   5
BRANCH   2  15
ATOM     15  C   UNL     1       2.654   8.555  17.634  0.00  0.00    +0.000 C 
BRANCH  15  16
ATOM     16  C   UNL     1       2.194   9.592  18.686  0.00  0.00    +0.000 C 
BRANCH  16  17
ATOM     17  N   UNL     1       0.774   9.330  19.089  0.00  0.00    +0.000 NA
ATOM     18  C   UNL     1      -0.208  10.186  18.393  0.00  0.00    +0.000 C 
ATOM     19  C   UNL     1      -0.213  11.620  18.965  0.00  0.00    +0.000 C 
ATOM     20  O   UNL     1      -0.452  11.619  20.362  0.00  0.00    +0.000 OA
ATOM     21  C   UNL     1       0.544  10.862  21.024  0.00  0.00    +0.000 C 
ATOM     22  C   UNL     1       0.506   9.409  20.546  0.00  0.00    +0.000 C 
ENDBRANCH  16  17
ENDBRANCH  15  16
ENDBRANCH   2  15
TORSDOF 4
ENDMDL
