MODEL 1
REMARK VINA RESULT:      -8.2      0.000      0.000
REMARK  Name = 
REMARK  12 active torsions:
REMARK  status: ('A' for Active; 'I' for Inactive)
REMARK    1  A    between atoms: C_1  and  O_2
REMARK    2  A    between atoms: O_2  and  C_3
REMARK    3  A    between atoms: C_3  and  C_5
REMARK    4  A    between atoms: C_5  and  S_6
REMARK    5  A    between atoms: S_6  and  C_8
REMARK    6  A    between atoms: C_11  and  CA_12
REMARK    7  A    between atoms: CA_12  and  C_13
REMARK    8  A    between atoms: CA_12  and  N_15
REMARK    9  A    between atoms: C_13  and  O_14
REMARK   10  A    between atoms: C_16  and  C_18
REMARK   11  A    between atoms: C_25  and  C_26
REMARK   12  A    between atoms: N_29  and  C_30
REMARK                            x       y       z     vdW  Elec       q    Type
REMARK                         _______ _______ _______ _____ _____    ______ ____
ROOT
ATOM      1  CA  UNL     1       0.495  11.303  18.800  0.00  0.00    +0.000 C 
ENDROOT
BRANCH   1   5
ATOM      2  C   UNL     1      -2.713  12.645  21.452  0.00  0.00    +0.000 A 
ATOM      3  C   UNL     1      -2.868  12.679  20.064  0.00  0.00    +0.000 A 
ATOM      4  C   UNL     1      -1.845  12.219  19.222  0.00  0.00    +0.000 A 
ATOM      5  C   UNL     1      -0.635  11.724  19.743  0.00  0.00    +0.000 A 
ATOM      6  C   UNL     1      -0.489  11.701  21.141  0.00  0.00    +0.000 A 
ATOM      7  C   UNL     1      -1.511  12.164  21.984  0.00  0.00    +0.000 A 
BRANCH   2   8
ATOM      8  S   UNL     1      -4.032  13.246  22.548  0.00  0.00    +0.000 S 
ATOM      9  O   UNL     1      -4.290  12.103  23.598  0.00  0.00    +0.000 OA
BRANCH   8  10
ATOM     10  C   UNL     1      -5.384  13.199  21.344  0.00  0.00    +0.000 C 
BRANCH  10  11
ATOM     11  C   UNL     1      -6.609  12.580  21.955  0.00  0.00    +0.000 C 
ATOM     12  O   UNL     1      -7.372  13.150  22.725  0.00  0.00    +0.000 OA
BRANCH  11  14
ATOM     13  C   UNL     1      -7.293  11.237  20.147  0.00  0.00    +0.000 C 
ATOM     14  O   UNL     1      -6.783  11.311  21.479  0.00  0.00    +0.000 OA
ENDBRANCH  11  14
ENDBRANCH  10  11
ENDBRANCH   8  10
ENDBRANCH   2   8
ENDBRANCH   1   5
BRANCH   1  15
ATOM     15  N   UNL     1       0.952   9.941  19.096  0.00  0.00    +0.000 N 
ATOM     16  C   UNL     1       1.808   9.230  18.267  0.00  0.00    +0.000 C 
ATOM     17  O   UNL     1       2.251   9.715  17.230  0.00  0.00    +0.000 OA
ATOM     18  H   UNL     1       0.752   9.560  20.010  0.00  0.00    +0.000 HD
BRANCH  16  19
ATOM     19  C   UNL     1       2.195   7.923  18.763  0.00  0.00    +0.000 A 
ATOM     20  C   UNL     1       3.005   6.982  18.149  0.00  0.00    +0.000 A 
ATOM     21  C   UNL     1       3.039   5.805  18.944  0.00  0.00    +0.000 A 
ATOM     22  C   UNL     1       3.664   4.546  18.831  0.00  0.00    +0.000 A 
ATOM     23 CL   UNL     1       4.790   4.429  17.535  0.00  0.00    +0.000 Cl
ATOM     24  C   UNL     1       3.368   3.504  19.718  0.00  0.00    +0.000 A 
ATOM     25 CL   UNL     1       4.129   1.959  19.500  0.00  0.00    +0.000 Cl
ATOM     26  C   UNL     1       2.447   3.713  20.757  0.00  0.00    +0.000 A 
ATOM     27  C   UNL     1       1.961   2.591  21.642  0.00  0.00    +0.000 C 
ATOM     28  C   UNL     1       1.888   5.000  20.947  0.00  0.00    +0.000 A 
ATOM     29  C   UNL     1       2.209   6.036  20.042  0.00  0.00    +0.000 A 
ATOM     30  N   UNL     1       1.881   7.385  20.004  0.00  0.00    +0.000 N 
ATOM     31  C   UNL     1       1.380   8.149  21.129  0.00  0.00    +0.000 C 
ENDBRANCH  16  19
ENDBRANCH   1  15
BRANCH   1  32
ATOM     32  C   UNL     1       1.652  12.335  18.859  0.00  0.00    +0.000 C 
BRANCH  32  33
ATOM     33  O   UNL     1       2.189  12.671  17.584  0.00  0.00    +0.000 OA
ATOM     34  H   UNL     1       2.157  11.871  17.031  0.00  0.00    +0.000 HD
ENDBRANCH  32  33
ENDBRANCH   1  32
TORSDOF 9
ENDMDL
MODEL 2
REMARK VINA RESULT:      -8.2      1.753      2.273
REMARK  Name = 
REMARK  12 active torsions:
REMARK  status: ('A' for Active; 'I' for Inactive)
REMARK    1  A    between atoms: C_1  and  O_2
REMARK    2  A    between atoms: O_2  and  C_3
REMARK    3  A    between atoms: C_3  and  C_5
REMARK    4  A    between atoms: C_5  and  S_6
REMARK    5  A    between atoms: S_6  and  C_8
REMARK    6  A    between atoms: C_11  and  CA_12
REMARK    7  A    between atoms: CA_12  and  C_13
REMARK    8  A    between atoms: CA_12  and  N_15
REMARK    9  A    between atoms: C_13  and  O_14
REMARK   10  A    between atoms: C_16  and  C_18
REMARK   11  A    between atoms: C_25  and  C_26
REMARK   12  A    between atoms: N_29  and  C_30
REMARK                            x       y       z     vdW  Elec       q    Type
REMARK                         _______ _______ _______ _____ _____    ______ ____
ROOT
ATOM      1  CA  UNL     1       0.264  11.387  18.993  0.00  0.00    +0.000 C 
ENDROOT
BRANCH   1   5
ATOM      2  C   UNL     1      -4.065  11.617  18.419  0.00  0.00    +0.000 A 
ATOM      3  C   UNL     1      -3.255  10.941  17.503  0.00  0.00    +0.000 A 
ATOM      4  C   UNL     1      -1.871  10.848  17.711  0.00  0.00    +0.000 A 
ATOM      5  C   UNL     1      -1.258  11.436  18.832  0.00  0.00    +0.000 A 
ATOM      6  C   UNL     1      -2.084  12.119  19.743  0.00  0.00    +0.000 A 
ATOM      7  C   UNL     1      -3.468  12.215  19.534  0.00  0.00    +0.000 A 
BRANCH   2   8
ATOM      8  S   UNL     1      -5.858  11.748  18.152  0.00  0.00    +0.000 S 
ATOM      9  O   UNL     1      -6.051  12.610  16.851  0.00  0.00    +0.000 OA
BRANCH   8  10
ATOM     10  C   UNL     1      -6.236  12.807  19.573  0.00  0.00    +0.000 C 
BRANCH  10  11
ATOM     11  C   UNL     1      -7.000  12.038  20.611  0.00  0.00    +0.000 C 
ATOM     12  O   UNL     1      -6.793  10.868  20.910  0.00  0.00    +0.000 OA
BRANCH  11  14
ATOM     13  C   UNL     1      -7.423  14.137  21.588  0.00  0.00    +0.000 C 
ATOM     14  O   UNL     1      -7.917  12.849  21.219  0.00  0.00    +0.000 OA
ENDBRANCH  11  14
ENDBRANCH  10  11
ENDBRANCH   8  10
ENDBRANCH   2   8
ENDBRANCH   1   5
BRANCH   1  15
ATOM     15  N   UNL     1       0.730  10.014  19.206  0.00  0.00    +0.000 N 
ATOM     16  C   UNL     1       1.662   9.392  18.388  0.00  0.00    +0.000 C 
ATOM     17  O   UNL     1       2.168   9.972  17.431  0.00  0.00    +0.000 OA
ATOM     18  H   UNL     1       0.473   9.552  20.067  0.00  0.00    +0.000 HD
BRANCH  16  19
ATOM     19  C   UNL     1       2.043   8.054  18.800  0.00  0.00    +0.000 A 
ATOM     20  C   UNL     1       2.746   7.105  18.075  0.00  0.00    +0.000 A 
ATOM     21  C   UNL     1       2.812   5.900  18.826  0.00  0.00    +0.000 A 
ATOM     22  C   UNL     1       3.369   4.623  18.608  0.00  0.00    +0.000 A 
ATOM     23 CL   UNL     1       4.349   4.509  17.199  0.00  0.00    +0.000 Cl
ATOM     24  C   UNL     1       3.122   3.562  19.488  0.00  0.00    +0.000 A 
ATOM     25 CL   UNL     1       3.792   1.998  19.144  0.00  0.00    +0.000 Cl
ATOM     26  C   UNL     1       2.323   3.769  20.623  0.00  0.00    +0.000 A 
ATOM     27  C   UNL     1       1.883   2.636  21.519  0.00  0.00    +0.000 C 
ATOM     28  C   UNL     1       1.840   5.069  20.911  0.00  0.00    +0.000 A 
ATOM     29  C   UNL     1       2.110   6.124  20.010  0.00  0.00    +0.000 A 
ATOM     30  N   UNL     1       1.836   7.485  20.049  0.00  0.00    +0.000 N 
ATOM     31  C   UNL     1       1.486   8.227  21.244  0.00  0.00    +0.000 C 
ENDBRANCH  16  19
ENDBRANCH   1  15
BRANCH   1  32
ATOM     32  C   UNL     1       0.711  12.342  20.132  0.00  0.00    +0.000 C 
BRANCH  32  33
ATOM     33  O   UNL     1       1.053  11.675  21.342  0.00  0.00    +0.000 OA
ATOM     34  H   UNL     1       1.878  12.070  21.673  0.00  0.00    +0.000 HD
ENDBRANCH  32  33
ENDBRANCH   1  32
TORSDOF 9
ENDMDL
MODEL 3
REMARK VINA RESULT:      -8.0      1.708      2.328
REMARK  Name = 
REMARK  12 active torsions:
REMARK  status: ('A' for Active; 'I' for Inactive)
REMARK    1  A    between atoms: C_1  and  O_2
REMARK    2  A    between atoms: O_2  and  C_3
REMARK    3  A    between atoms: C_3  and  C_5
REMARK    4  A    between atoms: C_5  and  S_6
REMARK    5  A    between atoms: S_6  and  C_8
REMARK    6  A    between atoms: C_11  and  CA_12
REMARK    7  A    between atoms: CA_12  and  C_13
REMARK    8  A    between atoms: CA_12  and  N_15
REMARK    9  A    between atoms: C_13  and  O_14
REMARK   10  A    between atoms: C_16  and  C_18
REMARK   11  A    between atoms: C_25  and  C_26
REMARK   12  A    between atoms: N_29  and  C_30
REMARK                            x       y       z     vdW  Elec       q    Type
REMARK                         _______ _______ _______ _____ _____    ______ ____
ROOT
ATOM      1  CA  UNL     1       0.460  11.331  18.963  0.00  0.00    +0.000 C 
ENDROOT
BRANCH   1   5
ATOM      2  C   UNL     1      -3.830  11.462  18.119  0.00  0.00    +0.000 A 
ATOM      3  C   UNL     1      -3.261  12.305  19.077  0.00  0.00    +0.000 A 
ATOM      4  C   UNL     1      -1.880  12.277  19.320  0.00  0.00    +0.000 A 
ATOM      5  C   UNL     1      -1.032  11.398  18.622  0.00  0.00    +0.000 A 
ATOM      6  C   UNL     1      -1.618  10.550  17.665  0.00  0.00    +0.000 A 
ATOM      7  C   UNL     1      -3.000  10.576  17.424  0.00  0.00    +0.000 A 
BRANCH   2   8
ATOM      8  S   UNL     1      -5.619  11.489  17.805  0.00  0.00    +0.000 S 
ATOM      9  O   UNL     1      -6.065  12.993  17.914  0.00  0.00    +0.000 OA
BRANCH   8  10
ATOM     10  C   UNL     1      -6.142  10.650  19.323  0.00  0.00    +0.000 C 
BRANCH  10  11
ATOM     11  C   UNL     1      -6.744  11.634  20.285  0.00  0.00    +0.000 C 
ATOM     12  O   UNL     1      -7.904  12.026  20.251  0.00  0.00    +0.000 OA
BRANCH  11  14
ATOM     13  C   UNL     1      -6.322  12.865  22.246  0.00  0.00    +0.000 C 
ATOM     14  O   UNL     1      -5.829  11.980  21.239  0.00  0.00    +0.000 OA
ENDBRANCH  11  14
ENDBRANCH  10  11
ENDBRANCH   8  10
ENDBRANCH   2   8
ENDBRANCH   1   5
BRANCH   1  15
ATOM     15  N   UNL     1       0.891   9.948  19.186  0.00  0.00    +0.000 N 
ATOM     16  C   UNL     1       1.785   9.287  18.355  0.00  0.00    +0.000 C 
ATOM     17  O   UNL     1       2.284   9.838  17.378  0.00  0.00    +0.000 OA
ATOM     18  H   UNL     1       0.641   9.506  20.060  0.00  0.00    +0.000 HD
BRANCH  16  19
ATOM     19  C   UNL     1       2.136   7.944  18.779  0.00  0.00    +0.000 A 
ATOM     20  C   UNL     1       2.812   6.972  18.060  0.00  0.00    +0.000 A 
ATOM     21  C   UNL     1       2.854   5.773  18.823  0.00  0.00    +0.000 A 
ATOM     22  C   UNL     1       3.379   4.481  18.615  0.00  0.00    +0.000 A 
ATOM     23 CL   UNL     1       4.348   4.330  17.202  0.00  0.00    +0.000 Cl
ATOM     24  C   UNL     1       3.113   3.436  19.508  0.00  0.00    +0.000 A 
ATOM     25 CL   UNL     1       3.743   1.852  19.176  0.00  0.00    +0.000 Cl
ATOM     26  C   UNL     1       2.326   3.673  20.645  0.00  0.00    +0.000 A 
ATOM     27  C   UNL     1       1.865   2.561  21.555  0.00  0.00    +0.000 C 
ATOM     28  C   UNL     1       1.875   4.988  20.922  0.00  0.00    +0.000 A 
ATOM     29  C   UNL     1       2.165   6.026  20.009  0.00  0.00    +0.000 A 
ATOM     30  N   UNL     1       1.923   7.394  20.035  0.00  0.00    +0.000 N 
ATOM     31  C   UNL     1       1.598   8.156  21.224  0.00  0.00    +0.000 C 
ENDBRANCH  16  19
ENDBRANCH   1  15
BRANCH   1  32
ATOM     32  C   UNL     1       0.771  12.247  20.176  0.00  0.00    +0.000 C 
BRANCH  32  33
ATOM     33  O   UNL     1       1.103  11.534  21.364  0.00  0.00    +0.000 OA
ATOM     34  H   UNL     1       0.417  10.857  21.502  0.00  0.00    +0.000 HD
ENDBRANCH  32  33
ENDBRANCH   1  32
TORSDOF 9
ENDMDL
MODEL 4
REMARK VINA RESULT:      -7.9      0.778      1.144
REMARK  Name = 
REMARK  12 active torsions:
REMARK  status: ('A' for Active; 'I' for Inactive)
REMARK    1  A    between atoms: C_1  and  O_2
REMARK    2  A    between atoms: O_2  and  C_3
REMARK    3  A    between atoms: C_3  and  C_5
REMARK    4  A    between atoms: C_5  and  S_6
REMARK    5  A    between atoms: S_6  and  C_8
REMARK    6  A    between atoms: C_11  and  CA_12
REMARK    7  A    between atoms: CA_12  and  C_13
REMARK    8  A    between atoms: CA_12  and  N_15
REMARK    9  A    between atoms: C_13  and  O_14
REMARK   10  A    between atoms: C_16  and  C_18
REMARK   11  A    between atoms: C_25  and  C_26
REMARK   12  A    between atoms: N_29  and  C_30
REMARK                            x       y       z     vdW  Elec       q    Type
REMARK                         _______ _______ _______ _____ _____    ______ ____
ROOT
ATOM      1  CA  UNL     1       0.625  11.467  19.082  0.00  0.00    +0.000 C 
ENDROOT
BRANCH   1   5
ATOM      2  C   UNL     1      -2.148  12.723  22.222  0.00  0.00    +0.000 A 
ATOM      3  C   UNL     1      -1.096  11.847  22.502  0.00  0.00    +0.000 A 
ATOM      4  C   UNL     1      -0.194  11.473  21.495  0.00  0.00    +0.000 A 
ATOM      5  C   UNL     1      -0.326  11.954  20.179  0.00  0.00    +0.000 A 
ATOM      6  C   UNL     1      -1.392  12.829  19.909  0.00  0.00    +0.000 A 
ATOM      7  C   UNL     1      -2.296  13.201  20.915  0.00  0.00    +0.000 A 
BRANCH   2   8
ATOM      8  S   UNL     1      -3.324  13.206  23.520  0.00  0.00    +0.000 S 
ATOM      9  O   UNL     1      -3.963  11.873  24.057  0.00  0.00    +0.000 OA
BRANCH   8  10
ATOM     10  C   UNL     1      -4.546  14.008  22.450  0.00  0.00    +0.000 C 
BRANCH  10  11
ATOM     11  C   UNL     1      -5.929  13.524  22.780  0.00  0.00    +0.000 C 
ATOM     12  O   UNL     1      -6.599  13.911  23.730  0.00  0.00    +0.000 OA
BRANCH  11  14
ATOM     13  C   UNL     1      -7.588  11.981  22.141  0.00  0.00    +0.000 C 
ATOM     14  O   UNL     1      -6.357  12.637  21.833  0.00  0.00    +0.000 OA
ENDBRANCH  11  14
ENDBRANCH  10  11
ENDBRANCH   8  10
ENDBRANCH   2   8
ENDBRANCH   1   5
BRANCH   1  15
ATOM     15  N   UNL     1       1.042  10.082  19.318  0.00  0.00    +0.000 N 
ATOM     16  C   UNL     1       1.736   9.327  18.383  0.00  0.00    +0.000 C 
ATOM     17  O   UNL     1       2.057   9.789  17.292  0.00  0.00    +0.000 OA
ATOM     18  H   UNL     1       0.950   9.710  20.253  0.00  0.00    +0.000 HD
BRANCH  16  19
ATOM     19  C   UNL     1       2.115   7.999  18.828  0.00  0.00    +0.000 A 
ATOM     20  C   UNL     1       2.870   7.055  18.150  0.00  0.00    +0.000 A 
ATOM     21  C   UNL     1       2.914   5.858  18.915  0.00  0.00    +0.000 A 
ATOM     22  C   UNL     1       3.502   4.587  18.740  0.00  0.00    +0.000 A 
ATOM     23 CL   UNL     1       4.556   4.477  17.385  0.00  0.00    +0.000 Cl
ATOM     24  C   UNL     1       3.225   3.531  19.617  0.00  0.00    +0.000 A 
ATOM     25 CL   UNL     1       3.936   1.975  19.324  0.00  0.00    +0.000 Cl
ATOM     26  C   UNL     1       2.365   3.736  20.707  0.00  0.00    +0.000 A 
ATOM     27  C   UNL     1       1.897   2.605  21.589  0.00  0.00    +0.000 C 
ATOM     28  C   UNL     1       1.848   5.031  20.955  0.00  0.00    +0.000 A 
ATOM     29  C   UNL     1       2.148   6.081  20.059  0.00  0.00    +0.000 A 
ATOM     30  N   UNL     1       1.852   7.439  20.070  0.00  0.00    +0.000 N 
ATOM     31  C   UNL     1       1.428   8.186  21.238  0.00  0.00    +0.000 C 
ENDBRANCH  16  19
ENDBRANCH   1  15
BRANCH   1  32
ATOM     32  C   UNL     1       1.835  12.431  18.957  0.00  0.00    +0.000 C 
BRANCH  32  33
ATOM     33  O   UNL     1       2.195  12.731  17.612  0.00  0.00    +0.000 OA
ATOM     34  H   UNL     1       2.582  11.926  17.225  0.00  0.00    +0.000 HD
ENDBRANCH  32  33
ENDBRANCH   1  32
TORSDOF 9
ENDMDL
MODEL 5
REMARK VINA RESULT:      -7.8      6.414     11.062
REMARK  Name = 
REMARK  12 active torsions:
REMARK  status: ('A' for Active; 'I' for Inactive)
REMARK    1  A    between atoms: C_1  and  O_2
REMARK    2  A    between atoms: O_2  and  C_3
REMARK    3  A    between atoms: C_3  and  C_5
REMARK    4  A    between atoms: C_5  and  S_6
REMARK    5  A    between atoms: S_6  and  C_8
REMARK    6  A    between atoms: C_11  and  CA_12
REMARK    7  A    between atoms: CA_12  and  C_13
REMARK    8  A    between atoms: CA_12  and  N_15
REMARK    9  A    between atoms: C_13  and  O_14
REMARK   10  A    between atoms: C_16  and  C_18
REMARK   11  A    between atoms: C_25  and  C_26
REMARK   12  A    between atoms: N_29  and  C_30
REMARK                            x       y       z     vdW  Elec       q    Type
REMARK                         _______ _______ _______ _____ _____    ______ ____
ROOT
ATOM      1  CA  UNL     1       6.327   5.017  18.474  0.00  0.00    +0.000 C 
ENDROOT
BRANCH   1   5
ATOM      2  C   UNL     1       6.627   4.182  14.192  0.00  0.00    +0.000 A 
ATOM      3  C   UNL     1       5.775   3.435  15.011  0.00  0.00    +0.000 A 
ATOM      4  C   UNL     1       5.664   3.729  16.377  0.00  0.00    +0.000 A 
ATOM      5  C   UNL     1       6.408   4.769  16.965  0.00  0.00    +0.000 A 
ATOM      6  C   UNL     1       7.266   5.508  16.132  0.00  0.00    +0.000 A 
ATOM      7  C   UNL     1       7.380   5.212  14.765  0.00  0.00    +0.000 A 
BRANCH   2   8
ATOM      8  S   UNL     1       6.781   3.801  12.422  0.00  0.00    +0.000 S 
ATOM      9  O   UNL     1       7.408   5.077  11.748  0.00  0.00    +0.000 OA
BRANCH   8  10
ATOM     10  C   UNL     1       5.014   3.784  12.025  0.00  0.00    +0.000 C 
BRANCH  10  11
ATOM     11  C   UNL     1       4.667   2.559  11.229  0.00  0.00    +0.000 C 
ATOM     12  O   UNL     1       5.318   1.521  11.222  0.00  0.00    +0.000 OA
BRANCH  11  14
ATOM     13  C   UNL     1       3.263   4.084  10.115  0.00  0.00    +0.000 C 
ATOM     14  O   UNL     1       3.489   2.747  10.563  0.00  0.00    +0.000 OA
ENDBRANCH  11  14
ENDBRANCH  10  11
ENDBRANCH   8  10
ENDBRANCH   2   8
ENDBRANCH   1   5
BRANCH   1  15
ATOM     15  N   UNL     1       5.184   5.871  18.810  0.00  0.00    +0.000 N 
ATOM     16  C   UNL     1       3.888   5.390  18.939  0.00  0.00    +0.000 C 
ATOM     17  O   UNL     1       3.625   4.200  18.791  0.00  0.00    +0.000 OA
ATOM     18  H   UNL     1       5.368   6.820  19.102  0.00  0.00    +0.000 HD
BRANCH  16  19
ATOM     19  C   UNL     1       2.905   6.380  19.339  0.00  0.00    +0.000 A 
ATOM     20  C   UNL     1       2.601   7.580  18.717  0.00  0.00    +0.000 A 
ATOM     21  C   UNL     1       1.646   8.282  19.502  0.00  0.00    +0.000 A 
ATOM     22  C   UNL     1       0.987   9.524  19.389  0.00  0.00    +0.000 A 
ATOM     23 CL   UNL     1       1.240  10.325  17.888  0.00  0.00    +0.000 Cl
ATOM     24  C   UNL     1       0.202  10.028  20.433  0.00  0.00    +0.000 A 
ATOM     25 CL   UNL     1      -0.545  11.586  20.260  0.00  0.00    +0.000 Cl
ATOM     26  C   UNL     1       0.044   9.280  21.611  0.00  0.00    +0.000 A 
ATOM     27  C   UNL     1      -0.649   9.834  22.832  0.00  0.00    +0.000 C 
ATOM     28  C   UNL     1       0.614   7.987  21.700  0.00  0.00    +0.000 A 
ATOM     29  C   UNL     1       1.396   7.499  20.629  0.00  0.00    +0.000 A 
ATOM     30  N   UNL     1       2.015   6.276  20.399  0.00  0.00    +0.000 N 
ATOM     31  C   UNL     1       1.701   5.044  21.095  0.00  0.00    +0.000 C 
ENDBRANCH  16  19
ENDBRANCH   1  15
BRANCH   1  32
ATOM     32  C   UNL     1       7.668   5.601  18.992  0.00  0.00    +0.000 C 
BRANCH  32  33
ATOM     33  O   UNL     1       7.892   5.385  20.382  0.00  0.00    +0.000 OA
ATOM     34  H   UNL     1       8.269   4.493  20.483  0.00  0.00    +0.000 HD
ENDBRANCH  32  33
ENDBRANCH   1  32
TORSDOF 9
ENDMDL
MODEL 6
REMARK VINA RESULT:      -7.8      1.572      2.087
REMARK  Name = 
REMARK  12 active torsions:
REMARK  status: ('A' for Active; 'I' for Inactive)
REMARK    1  A    between atoms: C_1  and  O_2
REMARK    2  A    between atoms: O_2  and  C_3
REMARK    3  A    between atoms: C_3  and  C_5
REMARK    4  A    between atoms: C_5  and  S_6
REMARK    5  A    between atoms: S_6  and  C_8
REMARK    6  A    between atoms: C_11  and  CA_12
REMARK    7  A    between atoms: CA_12  and  C_13
REMARK    8  A    between atoms: CA_12  and  N_15
REMARK    9  A    between atoms: C_13  and  O_14
REMARK   10  A    between atoms: C_16  and  C_18
REMARK   11  A    between atoms: C_25  and  C_26
REMARK   12  A    between atoms: N_29  and  C_30
REMARK                            x       y       z     vdW  Elec       q    Type
REMARK                         _______ _______ _______ _____ _____    ______ ____
ROOT
ATOM      1  CA  UNL     1       0.307  10.826  18.105  0.00  0.00    +0.000 C 
ENDROOT
BRANCH   1   5
ATOM      2  C   UNL     1      -4.017  11.268  18.583  0.00  0.00    +0.000 A 
ATOM      3  C   UNL     1      -3.483  10.238  17.803  0.00  0.00    +0.000 A 
ATOM      4  C   UNL     1      -2.094  10.087  17.680  0.00  0.00    +0.000 A 
ATOM      5  C   UNL     1      -1.202  10.966  18.321  0.00  0.00    +0.000 A 
ATOM      6  C   UNL     1      -1.753  12.001  19.097  0.00  0.00    +0.000 A 
ATOM      7  C   UNL     1      -3.142  12.155  19.219  0.00  0.00    +0.000 A 
BRANCH   2   8
ATOM      8  S   UNL     1      -5.816  11.473  18.742  0.00  0.00    +0.000 S 
ATOM      9  O   UNL     1      -6.333  11.946  17.334  0.00  0.00    +0.000 OA
BRANCH   8  10
ATOM     10  C   UNL     1      -5.796  12.919  19.833  0.00  0.00    +0.000 C 
BRANCH  10  11
ATOM     11  C   UNL     1      -6.177  12.526  21.231  0.00  0.00    +0.000 C 
ATOM     12  O   UNL     1      -5.392  12.138  22.088  0.00  0.00    +0.000 OA
BRANCH  11  14
ATOM     13  C   UNL     1      -7.915  12.773  22.798  0.00  0.00    +0.000 C 
ATOM     14  O   UNL     1      -7.515  12.723  21.429  0.00  0.00    +0.000 OA
ENDBRANCH  11  14
ENDBRANCH  10  11
ENDBRANCH   8  10
ENDBRANCH   2   8
ENDBRANCH   1   5
BRANCH   1  15
ATOM     15  N   UNL     1       0.773   9.486  18.473  0.00  0.00    +0.000 N 
ATOM     16  C   UNL     1       1.960   8.939  18.006  0.00  0.00    +0.000 C 
ATOM     17  O   UNL     1       2.706   9.563  17.258  0.00  0.00    +0.000 OA
ATOM     18  H   UNL     1       0.285   8.997  19.211  0.00  0.00    +0.000 HD
BRANCH  16  19
ATOM     19  C   UNL     1       2.279   7.626  18.535  0.00  0.00    +0.000 A 
ATOM     20  C   UNL     1       2.964   6.597  17.909  0.00  0.00    +0.000 A 
ATOM     21  C   UNL     1       2.964   5.455  18.756  0.00  0.00    +0.000 A 
ATOM     22  C   UNL     1       3.478   4.145  18.657  0.00  0.00    +0.000 A 
ATOM     23 CL   UNL     1       4.491   3.883  17.291  0.00  0.00    +0.000 Cl
ATOM     24  C   UNL     1       3.168   3.169  19.611  0.00  0.00    +0.000 A 
ATOM     25 CL   UNL     1       3.786   1.558  19.413  0.00  0.00    +0.000 Cl
ATOM     26  C   UNL     1       2.347   3.495  20.702  0.00  0.00    +0.000 A 
ATOM     27  C   UNL     1       1.842   2.455  21.672  0.00  0.00    +0.000 C 
ATOM     28  C   UNL     1       1.906   4.831  20.871  0.00  0.00    +0.000 A 
ATOM     29  C   UNL     1       2.240   5.799  19.897  0.00  0.00    +0.000 A 
ATOM     30  N   UNL     1       2.017   7.168  19.819  0.00  0.00    +0.000 N 
ATOM     31  C   UNL     1       1.664   8.015  20.940  0.00  0.00    +0.000 C 
ENDBRANCH  16  19
ENDBRANCH   1  15
BRANCH   1  32
ATOM     32  C   UNL     1       1.063  11.942  18.875  0.00  0.00    +0.000 C 
BRANCH  32  33
ATOM     33  O   UNL     1       1.676  12.910  18.029  0.00  0.00    +0.000 OA
ATOM     34  H   UNL     1       2.620  12.948  18.262  0.00  0.00    +0.000 HD
ENDBRANCH  32  33
ENDBRANCH   1  32
TORSDOF 9
ENDMDL
MODEL 7
REMARK VINA RESULT:      -7.7      1.530      1.928
REMARK  Name = 
REMARK  12 active torsions:
REMARK  status: ('A' for Active; 'I' for Inactive)
REMARK    1  A    between atoms: C_1  and  O_2
REMARK    2  A    between atoms: O_2  and  C_3
REMARK    3  A    between atoms: C_3  and  C_5
REMARK    4  A    between atoms: C_5  and  S_6
REMARK    5  A    between atoms: S_6  and  C_8
REMARK    6  A    between atoms: C_11  and  CA_12
REMARK    7  A    between atoms: CA_12  and  C_13
REMARK    8  A    between atoms: CA_12  and  N_15
REMARK    9  A    between atoms: C_13  and  O_14
REMARK   10  A    between atoms: C_16  and  C_18
REMARK   11  A    between atoms: C_25  and  C_26
REMARK   12  A    between atoms: N_29  and  C_30
REMARK                            x       y       z     vdW  Elec       q    Type
REMARK                         _______ _______ _______ _____ _____    ______ ____
ROOT
ATOM      1  CA  UNL     1       0.498  12.730  20.071  0.00  0.00    +0.000 C 
ENDROOT
BRANCH   1   5
ATOM      2  C   UNL     1      -2.855  13.027  22.863  0.00  0.00    +0.000 A 
ATOM      3  C   UNL     1      -1.914  12.000  22.979  0.00  0.00    +0.000 A 
ATOM      4  C   UNL     1      -0.826  11.930  22.097  0.00  0.00    +0.000 A 
ATOM      5  C   UNL     1      -0.655  12.876  21.069  0.00  0.00    +0.000 A 
ATOM      6  C   UNL     1      -1.612  13.899  20.959  0.00  0.00    +0.000 A 
ATOM      7  C   UNL     1      -2.703  13.968  21.840  0.00  0.00    +0.000 A 
BRANCH   2   8
ATOM      8  S   UNL     1      -4.271  13.120  23.998  0.00  0.00    +0.000 S 
ATOM      9  O   UNL     1      -4.461  11.674  24.589  0.00  0.00    +0.000 OA
BRANCH   8  10
ATOM     10  C   UNL     1      -5.561  13.377  22.752  0.00  0.00    +0.000 C 
BRANCH  10  11
ATOM     11  C   UNL     1      -6.802  12.614  23.117  0.00  0.00    +0.000 C 
ATOM     12  O   UNL     1      -7.427  12.752  24.162  0.00  0.00    +0.000 OA
BRANCH  11  14
ATOM     13  C   UNL     1      -6.412  11.957  20.891  0.00  0.00    +0.000 C 
ATOM     14  O   UNL     1      -7.168  11.790  22.091  0.00  0.00    +0.000 OA
ENDBRANCH  11  14
ENDBRANCH  10  11
ENDBRANCH   8  10
ENDBRANCH   2   8
ENDBRANCH   1   5
BRANCH   1  15
ATOM     15  N   UNL     1       1.034  11.365  20.077  0.00  0.00    +0.000 N 
ATOM     16  C   UNL     1       0.607  10.377  19.200  0.00  0.00    +0.000 C 
ATOM     17  O   UNL     1      -0.248  10.599  18.347  0.00  0.00    +0.000 OA
ATOM     18  H   UNL     1       1.849  11.176  20.643  0.00  0.00    +0.000 HD
BRANCH  16  19
ATOM     19  C   UNL     1       1.303   9.110  19.320  0.00  0.00    +0.000 A 
ATOM     20  C   UNL     1       2.174   8.525  18.415  0.00  0.00    +0.000 A 
ATOM     21  C   UNL     1       2.547   7.240  18.892  0.00  0.00    +0.000 A 
ATOM     22  C   UNL     1       3.374   6.203  18.411  0.00  0.00    +0.000 A 
ATOM     23 CL   UNL     1       4.293   6.620  17.017  0.00  0.00    +0.000 Cl
ATOM     24  C   UNL     1       3.416   4.954  19.043  0.00  0.00    +0.000 A 
ATOM     25 CL   UNL     1       4.413   3.698  18.378  0.00  0.00    +0.000 Cl
ATOM     26  C   UNL     1       2.640   4.726  20.190  0.00  0.00    +0.000 A 
ATOM     27  C   UNL     1       2.513   3.361  20.820  0.00  0.00    +0.000 C 
ATOM     28  C   UNL     1       1.883   5.788  20.745  0.00  0.00    +0.000 A 
ATOM     29  C   UNL     1       1.864   7.040  20.092  0.00  0.00    +0.000 A 
ATOM     30  N   UNL     1       1.286   8.261  20.418  0.00  0.00    +0.000 N 
ATOM     31  C   UNL     1       0.826   8.633  21.741  0.00  0.00    +0.000 C 
ENDBRANCH  16  19
ENDBRANCH   1  15
BRANCH   1  32
ATOM     32  C   UNL     1       1.592  13.792  20.360  0.00  0.00    +0.000 C 
BRANCH  32  33
ATOM     33  O   UNL     1       1.912  13.927  21.741  0.00  0.00    +0.000 OA
ATOM     34  H   UNL     1       2.827  13.618  21.863  0.00  0.00    +0.000 HD
ENDBRANCH  32  33
ENDBRANCH   1  32
TORSDOF 9
ENDMDL
MODEL 8
REMARK VINA RESULT:      -7.6      1.705      2.698
REMARK  Name = 
REMARK  12 active torsions:
REMARK  status: ('A' for Active; 'I' for Inactive)
REMARK    1  A    between atoms: C_1  and  O_2
REMARK    2  A    between atoms: O_2  and  C_3
REMARK    3  A    between atoms: C_3  and  C_5
REMARK    4  A    between atoms: C_5  and  S_6
REMARK    5  A    between atoms: S_6  and  C_8
REMARK    6  A    between atoms: C_11  and  CA_12
REMARK    7  A    between atoms: CA_12  and  C_13
REMARK    8  A    between atoms: CA_12  and  N_15
REMARK    9  A    between atoms: C_13  and  O_14
REMARK   10  A    between atoms: C_16  and  C_18
REMARK   11  A    between atoms: C_25  and  C_26
REMARK   12  A    between atoms: N_29  and  C_30
REMARK                            x       y       z     vdW  Elec       q    Type
REMARK                         _______ _______ _______ _____ _____    ______ ____
ROOT
ATOM      1  CA  UNL     1       0.608  11.277  19.008  0.00  0.00    +0.000 C 
ENDROOT
BRANCH   1   5
ATOM      2  C   UNL     1      -2.275  12.403  22.098  0.00  0.00    +0.000 A 
ATOM      3  C   UNL     1      -1.031  11.865  22.439  0.00  0.00    +0.000 A 
ATOM      4  C   UNL     1      -0.102  11.534  21.443  0.00  0.00    +0.000 A 
ATOM      5  C   UNL     1      -0.393  11.721  20.079  0.00  0.00    +0.000 A 
ATOM      6  C   UNL     1      -1.651  12.256  19.748  0.00  0.00    +0.000 A 
ATOM      7  C   UNL     1      -2.582  12.585  20.745  0.00  0.00    +0.000 A 
BRANCH   2   8
ATOM      8  S   UNL     1      -3.487  12.827  23.383  0.00  0.00    +0.000 S 
ATOM      9  O   UNL     1      -4.907  12.601  22.746  0.00  0.00    +0.000 OA
BRANCH   8  10
ATOM     10  C   UNL     1      -3.181  14.612  23.422  0.00  0.00    +0.000 C 
BRANCH  10  11
ATOM     11  C   UNL     1      -2.189  14.951  24.497  0.00  0.00    +0.000 C 
ATOM     12  O   UNL     1      -0.997  14.671  24.464  0.00  0.00    +0.000 OA
BRANCH  11  14
ATOM     13  C   UNL     1      -3.893  16.476  25.056  0.00  0.00    +0.000 C 
ATOM     14  O   UNL     1      -2.795  15.671  25.488  0.00  0.00    +0.000 OA
ENDBRANCH  11  14
ENDBRANCH  10  11
ENDBRANCH   8  10
ENDBRANCH   2   8
ENDBRANCH   1   5
BRANCH   1  15
ATOM     15  N   UNL     1       1.026   9.887  19.217  0.00  0.00    +0.000 N 
ATOM     16  C   UNL     1       1.779   9.173  18.295  0.00  0.00    +0.000 C 
ATOM     17  O   UNL     1       2.156   9.679  17.242  0.00  0.00    +0.000 OA
ATOM     18  H   UNL     1       0.885   9.480  20.130  0.00  0.00    +0.000 HD
BRANCH  16  19
ATOM     19  C   UNL     1       2.146   7.833  18.712  0.00  0.00    +0.000 A 
ATOM     20  C   UNL     1       2.822   6.868  17.983  0.00  0.00    +0.000 A 
ATOM     21  C   UNL     1       2.881   5.667  18.742  0.00  0.00    +0.000 A 
ATOM     22  C   UNL     1       3.415   4.380  18.525  0.00  0.00    +0.000 A 
ATOM     23 CL   UNL     1       4.370   4.241  17.101  0.00  0.00    +0.000 Cl
ATOM     24  C   UNL     1       3.167   3.330  19.417  0.00  0.00    +0.000 A 
ATOM     25 CL   UNL     1       3.806   1.753  19.075  0.00  0.00    +0.000 Cl
ATOM     26  C   UNL     1       2.390   3.558  20.564  0.00  0.00    +0.000 A 
ATOM     27  C   UNL     1       1.948   2.439  21.476  0.00  0.00    +0.000 C 
ATOM     28  C   UNL     1       1.932   4.868  20.849  0.00  0.00    +0.000 A 
ATOM     29  C   UNL     1       2.203   5.911  19.936  0.00  0.00    +0.000 A 
ATOM     30  N   UNL     1       1.951   7.277  19.968  0.00  0.00    +0.000 N 
ATOM     31  C   UNL     1       1.632   8.033  21.163  0.00  0.00    +0.000 C 
ENDBRANCH  16  19
ENDBRANCH   1  15
BRANCH   1  32
ATOM     32  C   UNL     1       1.815  12.253  18.969  0.00  0.00    +0.000 C 
BRANCH  32  33
ATOM     33  O   UNL     1       1.801  13.139  17.855  0.00  0.00    +0.000 OA
ATOM     34  H   UNL     1       2.494  13.807  18.002  0.00  0.00    +0.000 HD
ENDBRANCH  32  33
ENDBRANCH   1  32
TORSDOF 9
ENDMDL
MODEL 9
REMARK VINA RESULT:      -7.6      1.942      3.166
REMARK  Name = 
REMARK  12 active torsions:
REMARK  status: ('A' for Active; 'I' for Inactive)
REMARK    1  A    between atoms: C_1  and  O_2
REMARK    2  A    between atoms: O_2  and  C_3
REMARK    3  A    between atoms: C_3  and  C_5
REMARK    4  A    between atoms: C_5  and  S_6
REMARK    5  A    between atoms: S_6  and  C_8
REMARK    6  A    between atoms: C_11  and  CA_12
REMARK    7  A    between atoms: CA_12  and  C_13
REMARK    8  A    between atoms: CA_12  and  N_15
REMARK    9  A    between atoms: C_13  and  O_14
REMARK   10  A    between atoms: C_16  and  C_18
REMARK   11  A    between atoms: C_25  and  C_26
REMARK   12  A    between atoms: N_29  and  C_30
REMARK                            x       y       z     vdW  Elec       q    Type
REMARK                         _______ _______ _______ _____ _____    ______ ____
ROOT
ATOM      1  CA  UNL     1       0.804  12.409  18.791  0.00  0.00    +0.000 C 
ENDROOT
BRANCH   1   5
ATOM      2  C   UNL     1      -1.968  12.757  22.155  0.00  0.00    +0.000 A 
ATOM      3  C   UNL     1      -0.688  12.226  22.332  0.00  0.00    +0.000 A 
ATOM      4  C   UNL     1       0.204  12.145  21.254  0.00  0.00    +0.000 A 
ATOM      5  C   UNL     1      -0.161  12.582  19.967  0.00  0.00    +0.000 A 
ATOM      6  C   UNL     1      -1.454  13.109  19.801  0.00  0.00    +0.000 A 
ATOM      7  C   UNL     1      -2.349  13.187  20.879  0.00  0.00    +0.000 A 
BRANCH   2   8
ATOM      8  S   UNL     1      -3.132  12.858  23.547  0.00  0.00    +0.000 S 
ATOM      9  O   UNL     1      -4.531  12.408  22.988  0.00  0.00    +0.000 OA
BRANCH   8  10
ATOM     10  C   UNL     1      -3.161  14.663  23.706  0.00  0.00    +0.000 C 
BRANCH  10  11
ATOM     11  C   UNL     1      -1.772  15.192  23.924  0.00  0.00    +0.000 C 
ATOM     12  O   UNL     1      -1.043  14.882  24.858  0.00  0.00    +0.000 OA
BRANCH  11  14
ATOM     13  C   UNL     1      -0.042  15.946  22.518  0.00  0.00    +0.000 C 
ATOM     14  O   UNL     1      -1.417  16.020  22.896  0.00  0.00    +0.000 OA
ENDBRANCH  11  14
ENDBRANCH  10  11
ENDBRANCH   8  10
ENDBRANCH   2   8
ENDBRANCH   1   5
BRANCH   1  15
ATOM     15  N   UNL     1       1.484  11.112  18.850  0.00  0.00    +0.000 N 
ATOM     16  C   UNL     1       0.900   9.928  18.421  0.00  0.00    +0.000 C 
ATOM     17  O   UNL     1      -0.232   9.903  17.947  0.00  0.00    +0.000 OA
ATOM     18  H   UNL     1       2.468  11.099  19.075  0.00  0.00    +0.000 HD
BRANCH  16  19
ATOM     19  C   UNL     1       1.756   8.759  18.501  0.00  0.00    +0.000 A 
ATOM     20  C   UNL     1       2.681   8.314  17.571  0.00  0.00    +0.000 A 
ATOM     21  C   UNL     1       3.225   7.076  18.010  0.00  0.00    +0.000 A 
ATOM     22  C   UNL     1       4.172   6.167  17.494  0.00  0.00    +0.000 A 
ATOM     23 CL   UNL     1       5.008   6.733  16.101  0.00  0.00    +0.000 Cl
ATOM     24  C   UNL     1       4.384   4.920  18.093  0.00  0.00    +0.000 A 
ATOM     25 CL   UNL     1       5.525   3.819  17.385  0.00  0.00    +0.000 Cl
ATOM     26  C   UNL     1       3.661   4.566  19.243  0.00  0.00    +0.000 A 
ATOM     27  C   UNL     1       3.721   3.181  19.840  0.00  0.00    +0.000 C 
ATOM     28  C   UNL     1       2.782   5.507  19.833  0.00  0.00    +0.000 A 
ATOM     29  C   UNL     1       2.591   6.762  19.213  0.00  0.00    +0.000 A 
ATOM     30  N   UNL     1       1.865   7.889  19.576  0.00  0.00    +0.000 N 
ATOM     31  C   UNL     1       1.381   8.167  20.914  0.00  0.00    +0.000 C 
ENDBRANCH  16  19
ENDBRANCH   1  15
BRANCH   1  32
ATOM     32  C   UNL     1       1.805  13.595  18.743  0.00  0.00    +0.000 C 
BRANCH  32  33
ATOM     33  O   UNL     1       2.786  13.478  17.717  0.00  0.00    +0.000 OA
ATOM     34  H   UNL     1       2.573  12.684  17.196  0.00  0.00    +0.000 HD
ENDBRANCH  32  33
ENDBRANCH   1  32
TORSDOF 9
ENDMDL
