MODEL 1
REMARK VINA RESULT:      -6.3      0.000      0.000
REMARK  Name = 
REMARK  6 active torsions:
REMARK  status: ('A' for Active; 'I' for Inactive)
REMARK    1  A    between atoms: C_1  and  C_2
REMARK    2  A    between atoms: N_4  and  C_5
REMARK    3  A    between atoms: C_5  and  C_6
REMARK    4  A    between atoms: C_6  and  N_7
REMARK    5  A    between atoms: C_12  and  O_13
REMARK    6  A    between atoms: C_14  and  C_15
REMARK                            x       y       z     vdW  Elec       q    Type
REMARK                         _______ _______ _______ _____ _____    ______ ____
ROOT
ATOM      1  N   UNL     1       4.593   4.221  18.848  0.00  0.00    +0.000 N 
ATOM      2  C   UNL     1       4.443   3.020  19.541  0.00  0.00    +0.000 A 
ATOM      3  C   UNL     1       3.367   2.229  19.512  0.00  0.00    +0.000 A 
ATOM      4  C   UNL     1       2.220   2.680  18.714  0.00  0.00    +0.000 A 
ATOM      5  O   UNL     1       1.192   2.012  18.613  0.00  0.00    +0.000 OA
ATOM      6  C   UNL     1       2.311   4.010  18.047  0.00  0.00    +0.000 A 
ATOM      7  C   UNL     1       3.456   4.722  18.146  0.00  0.00    +0.000 A 
ATOM      8  C   UNL     1       3.522   6.095  17.517  0.00  0.00    +0.000 C 
ENDROOT
BRANCH   6   9
ATOM      9  O   UNL     1       1.187   4.450  17.372  0.00  0.00    +0.000 OA
ATOM     10  H   UNL     1       0.449   3.933  17.761  0.00  0.00    +0.000 HD
ENDBRANCH   6   9
BRANCH   1  11
ATOM     11  C   UNL     1       5.831   5.039  19.025  0.00  0.00    +0.000 C 
BRANCH  11  12
ATOM     12  C   UNL     1       6.965   4.668  18.049  0.00  0.00    +0.000 C 
BRANCH  12  16
ATOM     13  C   UNL     1       6.318   3.951  14.388  0.00  0.00    +0.000 C 
ATOM     14  C   UNL     1       6.821   4.708  15.589  0.00  0.00    +0.000 C 
ATOM     15  O   UNL     1       7.467   5.746  15.496  0.00  0.00    +0.000 OA
ATOM     16  N   UNL     1       6.489   4.121  16.788  0.00  0.00    +0.000 N 
ATOM     17  H   UNL     1       5.943   3.269  16.796  0.00  0.00    +0.000 HD
ENDBRANCH  12  16
ENDBRANCH  11  12
ENDBRANCH   1  11
TORSDOF 4
ENDMDL
MODEL 2
REMARK VINA RESULT:      -6.1      1.810      2.356
REMARK  Name = 
REMARK  6 active torsions:
REMARK  status: ('A' for Active; 'I' for Inactive)
REMARK    1  A    between atoms: C_1  and  C_2
REMARK    2  A    between atoms: N_4  and  C_5
REMARK    3  A    between atoms: C_5  and  C_6
REMARK    4  A    between atoms: C_6  and  N_7
REMARK    5  A    between atoms: C_12  and  O_13
REMARK    6  A    between atoms: C_14  and  C_15
REMARK                            x       y       z     vdW  Elec       q    Type
REMARK                         _______ _______ _______ _____ _____    ______ ____
ROOT
ATOM      1  N   UNL     1       3.644   3.528  18.336  0.00  0.00    +0.000 N 
ATOM      2  C   UNL     1       4.464   2.961  19.312  0.00  0.00    +0.000 A 
ATOM      3  C   UNL     1       4.073   2.551  20.521  0.00  0.00    +0.000 A 
ATOM      4  C   UNL     1       2.662   2.750  20.877  0.00  0.00    +0.000 A 
ATOM      5  O   UNL     1       2.205   2.389  21.960  0.00  0.00    +0.000 OA
ATOM      6  C   UNL     1       1.785   3.450  19.896  0.00  0.00    +0.000 A 
ATOM      7  C   UNL     1       2.295   3.819  18.698  0.00  0.00    +0.000 A 
ATOM      8  C   UNL     1       1.417   4.578  17.731  0.00  0.00    +0.000 C 
ENDROOT
BRANCH   6   9
ATOM      9  O   UNL     1       0.483   3.701  20.288  0.00  0.00    +0.000 OA
ATOM     10  H   UNL     1       0.418   4.679  20.312  0.00  0.00    +0.000 HD
ENDBRANCH   6   9
BRANCH   1  11
ATOM     11  C   UNL     1       4.231   4.004  17.047  0.00  0.00    +0.000 C 
BRANCH  11  12
ATOM     12  C   UNL     1       5.769   4.093  17.060  0.00  0.00    +0.000 C 
BRANCH  12  16
ATOM     13  C   UNL     1       7.464   7.442  17.552  0.00  0.00    +0.000 C 
ATOM     14  C   UNL     1       7.125   6.143  16.871  0.00  0.00    +0.000 C 
ATOM     15  O   UNL     1       7.568   5.834  15.771  0.00  0.00    +0.000 OA
ATOM     16  N   UNL     1       6.273   5.346  17.600  0.00  0.00    +0.000 N 
ATOM     17  H   UNL     1       5.951   5.654  18.509  0.00  0.00    +0.000 HD
ENDBRANCH  12  16
ENDBRANCH  11  12
ENDBRANCH   1  11
TORSDOF 4
ENDMDL
MODEL 3
REMARK VINA RESULT:      -6.1      1.785      2.185
REMARK  Name = 
REMARK  6 active torsions:
REMARK  status: ('A' for Active; 'I' for Inactive)
REMARK    1  A    between atoms: C_1  and  C_2
REMARK    2  A    between atoms: N_4  and  C_5
REMARK    3  A    between atoms: C_5  and  C_6
REMARK    4  A    between atoms: C_6  and  N_7
REMARK    5  A    between atoms: C_12  and  O_13
REMARK    6  A    between atoms: C_14  and  C_15
REMARK                            x       y       z     vdW  Elec       q    Type
REMARK                         _______ _______ _______ _____ _____    ______ ____
ROOT
ATOM      1  N   UNL     1       3.565   3.024  18.541  0.00  0.00    +0.000 N 
ATOM      2  C   UNL     1       4.310   2.521  19.608  0.00  0.00    +0.000 A 
ATOM      3  C   UNL     1       3.864   2.332  20.853  0.00  0.00    +0.000 A 
ATOM      4  C   UNL     1       2.479   2.727  21.141  0.00  0.00    +0.000 A 
ATOM      5  O   UNL     1       1.975   2.575  22.252  0.00  0.00    +0.000 OA
ATOM      6  C   UNL     1       1.692   3.365  20.048  0.00  0.00    +0.000 A 
ATOM      7  C   UNL     1       2.250   3.502  18.823  0.00  0.00    +0.000 A 
ATOM      8  C   UNL     1       1.469   4.201  17.736  0.00  0.00    +0.000 C 
ENDROOT
BRANCH   6   9
ATOM      9  O   UNL     1       0.420   3.804  20.367  0.00  0.00    +0.000 OA
ATOM     10  H   UNL     1       0.427   4.760  20.146  0.00  0.00    +0.000 HD
ENDBRANCH   6   9
BRANCH   1  11
ATOM     11  C   UNL     1       4.213   3.245  17.213  0.00  0.00    +0.000 C 
BRANCH  11  12
ATOM     12  C   UNL     1       5.042   4.541  17.134  0.00  0.00    +0.000 C 
BRANCH  12  16
ATOM     13  C   UNL     1       7.187   4.927  14.038  0.00  0.00    +0.000 C 
ATOM     14  C   UNL     1       6.873   4.674  15.489  0.00  0.00    +0.000 C 
ATOM     15  O   UNL     1       7.728   4.357  16.307  0.00  0.00    +0.000 OA
ATOM     16  N   UNL     1       5.541   4.829  15.798  0.00  0.00    +0.000 N 
ATOM     17  H   UNL     1       4.887   5.103  15.077  0.00  0.00    +0.000 HD
ENDBRANCH  12  16
ENDBRANCH  11  12
ENDBRANCH   1  11
TORSDOF 4
ENDMDL
MODEL 4
REMARK VINA RESULT:      -6.1      1.933      5.520
REMARK  Name = 
REMARK  6 active torsions:
REMARK  status: ('A' for Active; 'I' for Inactive)
REMARK    1  A    between atoms: C_1  and  C_2
REMARK    2  A    between atoms: N_4  and  C_5
REMARK    3  A    between atoms: C_5  and  C_6
REMARK    4  A    between atoms: C_6  and  N_7
REMARK    5  A    between atoms: C_12  and  O_13
REMARK    6  A    between atoms: C_14  and  C_15
REMARK                            x       y       z     vdW  Elec       q    Type
REMARK                         _______ _______ _______ _____ _____    ______ ____
ROOT
ATOM      1  N   UNL     1       4.970   4.259  17.731  0.00  0.00    +0.000 N 
ATOM      2  C   UNL     1       5.400   4.600  19.013  0.00  0.00    +0.000 A 
ATOM      3  C   UNL     1       6.396   5.441  19.306  0.00  0.00    +0.000 A 
ATOM      4  C   UNL     1       7.135   6.029  18.181  0.00  0.00    +0.000 A 
ATOM      5  O   UNL     1       8.056   6.826  18.352  0.00  0.00    +0.000 OA
ATOM      6  C   UNL     1       6.767   5.601  16.802  0.00  0.00    +0.000 A 
ATOM      7  C   UNL     1       5.736   4.743  16.629  0.00  0.00    +0.000 A 
ATOM      8  C   UNL     1       5.405   4.268  15.233  0.00  0.00    +0.000 C 
ENDROOT
BRANCH   6   9
ATOM      9  O   UNL     1       7.533   6.103  15.766  0.00  0.00    +0.000 OA
ATOM     10  H   UNL     1       7.753   7.018  16.043  0.00  0.00    +0.000 HD
ENDBRANCH   6   9
BRANCH   1  11
ATOM     11  C   UNL     1       3.882   3.251  17.549  0.00  0.00    +0.000 C 
BRANCH  11  12
ATOM     12  C   UNL     1       2.527   3.686  18.140  0.00  0.00    +0.000 C 
BRANCH  12  16
ATOM     13  C   UNL     1       1.560   2.691  21.663  0.00  0.00    +0.000 C 
ATOM     14  C   UNL     1       2.044   3.589  20.556  0.00  0.00    +0.000 C 
ATOM     15  O   UNL     1       2.306   4.774  20.729  0.00  0.00    +0.000 OA
ATOM     16  N   UNL     1       2.156   2.953  19.341  0.00  0.00    +0.000 N 
ATOM     17  H   UNL     1       1.934   1.968  19.268  0.00  0.00    +0.000 HD
ENDBRANCH  12  16
ENDBRANCH  11  12
ENDBRANCH   1  11
TORSDOF 4
ENDMDL
MODEL 5
REMARK VINA RESULT:      -6.0      2.224      5.446
REMARK  Name = 
REMARK  6 active torsions:
REMARK  status: ('A' for Active; 'I' for Inactive)
REMARK    1  A    between atoms: C_1  and  C_2
REMARK    2  A    between atoms: N_4  and  C_5
REMARK    3  A    between atoms: C_5  and  C_6
REMARK    4  A    between atoms: C_6  and  N_7
REMARK    5  A    between atoms: C_12  and  O_13
REMARK    6  A    between atoms: C_14  and  C_15
REMARK                            x       y       z     vdW  Elec       q    Type
REMARK                         _______ _______ _______ _____ _____    ______ ____
ROOT
ATOM      1  N   UNL     1       3.824   5.901  17.499  0.00  0.00    +0.000 N 
ATOM      2  C   UNL     1       4.804   6.893  17.491  0.00  0.00    +0.000 A 
ATOM      3  C   UNL     1       6.039   6.770  16.995  0.00  0.00    +0.000 A 
ATOM      4  C   UNL     1       6.418   5.462  16.446  0.00  0.00    +0.000 A 
ATOM      5  O   UNL     1       7.526   5.258  15.953  0.00  0.00    +0.000 OA
ATOM      6  C   UNL     1       5.428   4.351  16.538  0.00  0.00    +0.000 A 
ATOM      7  C   UNL     1       4.204   4.597  17.060  0.00  0.00    +0.000 A 
ATOM      8  C   UNL     1       3.226   3.455  17.202  0.00  0.00    +0.000 C 
ENDROOT
BRANCH   6   9
ATOM      9  O   UNL     1       5.839   3.109  16.092  0.00  0.00    +0.000 OA
ATOM     10  H   UNL     1       5.096   2.788  15.537  0.00  0.00    +0.000 HD
ENDBRANCH   6   9
BRANCH   1  11
ATOM     11  C   UNL     1       2.503   6.157  18.147  0.00  0.00    +0.000 C 
BRANCH  11  12
ATOM     12  C   UNL     1       2.590   6.372  19.670  0.00  0.00    +0.000 C 
BRANCH  12  16
ATOM     13  C   UNL     1       2.492   3.014  21.415  0.00  0.00    +0.000 C 
ATOM     14  C   UNL     1       1.950   4.244  20.737  0.00  0.00    +0.000 C 
ATOM     15  O   UNL     1       0.758   4.401  20.500  0.00  0.00    +0.000 OA
ATOM     16  N   UNL     1       2.920   5.163  20.409  0.00  0.00    +0.000 N 
ATOM     17  H   UNL     1       3.887   4.978  20.642  0.00  0.00    +0.000 HD
ENDBRANCH  12  16
ENDBRANCH  11  12
ENDBRANCH   1  11
TORSDOF 4
ENDMDL
MODEL 6
REMARK VINA RESULT:      -6.0      1.631      5.590
REMARK  Name = 
REMARK  6 active torsions:
REMARK  status: ('A' for Active; 'I' for Inactive)
REMARK    1  A    between atoms: C_1  and  C_2
REMARK    2  A    between atoms: N_4  and  C_5
REMARK    3  A    between atoms: C_5  and  C_6
REMARK    4  A    between atoms: C_6  and  N_7
REMARK    5  A    between atoms: C_12  and  O_13
REMARK    6  A    between atoms: C_14  and  C_15
REMARK                            x       y       z     vdW  Elec       q    Type
REMARK                         _______ _______ _______ _____ _____    ______ ____
ROOT
ATOM      1  N   UNL     1       4.919   4.418  17.597  0.00  0.00    +0.000 N 
ATOM      2  C   UNL     1       5.303   4.623  18.922  0.00  0.00    +0.000 A 
ATOM      3  C   UNL     1       6.329   5.374  19.332  0.00  0.00    +0.000 A 
ATOM      4  C   UNL     1       7.156   6.008  18.298  0.00  0.00    +0.000 A 
ATOM      5  O   UNL     1       8.111   6.731  18.579  0.00  0.00    +0.000 OA
ATOM      6  C   UNL     1       6.835   5.722  16.871  0.00  0.00    +0.000 A 
ATOM      7  C   UNL     1       5.766   4.946  16.577  0.00  0.00    +0.000 A 
ATOM      8  C   UNL     1       5.480   4.612  15.132  0.00  0.00    +0.000 C 
ENDROOT
BRANCH   6   9
ATOM      9  O   UNL     1       7.679   6.262  15.919  0.00  0.00    +0.000 OA
ATOM     10  H   UNL     1       8.330   6.784  16.435  0.00  0.00    +0.000 HD
ENDBRANCH   6   9
BRANCH   1  11
ATOM     11  C   UNL     1       3.786   3.498  17.278  0.00  0.00    +0.000 C 
BRANCH  11  12
ATOM     12  C   UNL     1       2.400   4.077  17.620  0.00  0.00    +0.000 C 
BRANCH  12  16
ATOM     13  C   UNL     1       1.067   2.979  20.989  0.00  0.00    +0.000 C 
ATOM     14  C   UNL     1       1.226   2.984  19.492  0.00  0.00    +0.000 C 
ATOM     15  O   UNL     1       0.664   2.177  18.763  0.00  0.00    +0.000 OA
ATOM     16  N   UNL     1       2.062   3.976  19.032  0.00  0.00    +0.000 N 
ATOM     17  H   UNL     1       2.488   4.619  19.687  0.00  0.00    +0.000 HD
ENDBRANCH  12  16
ENDBRANCH  11  12
ENDBRANCH   1  11
TORSDOF 4
ENDMDL
MODEL 7
REMARK VINA RESULT:      -6.0      2.047      5.494
REMARK  Name = 
REMARK  6 active torsions:
REMARK  status: ('A' for Active; 'I' for Inactive)
REMARK    1  A    between atoms: C_1  and  C_2
REMARK    2  A    between atoms: N_4  and  C_5
REMARK    3  A    between atoms: C_5  and  C_6
REMARK    4  A    between atoms: C_6  and  N_7
REMARK    5  A    between atoms: C_12  and  O_13
REMARK    6  A    between atoms: C_14  and  C_15
REMARK                            x       y       z     vdW  Elec       q    Type
REMARK                         _______ _______ _______ _____ _____    ______ ____
ROOT
ATOM      1  N   UNL     1       4.060   4.338  17.449  0.00  0.00    +0.000 N 
ATOM      2  C   UNL     1       4.663   3.965  16.248  0.00  0.00    +0.000 A 
ATOM      3  C   UNL     1       5.977   3.919  16.013  0.00  0.00    +0.000 A 
ATOM      4  C   UNL     1       6.872   4.339  17.100  0.00  0.00    +0.000 A 
ATOM      5  O   UNL     1       8.096   4.314  16.983  0.00  0.00    +0.000 OA
ATOM      6  C   UNL     1       6.254   4.843  18.359  0.00  0.00    +0.000 A 
ATOM      7  C   UNL     1       4.907   4.840  18.482  0.00  0.00    +0.000 A 
ATOM      8  C   UNL     1       4.285   5.406  19.737  0.00  0.00    +0.000 C 
ENDROOT
BRANCH   6   9
ATOM      9  O   UNL     1       7.115   5.311  19.334  0.00  0.00    +0.000 OA
ATOM     10  H   UNL     1       7.792   5.821  18.840  0.00  0.00    +0.000 HD
ENDBRANCH   6   9
BRANCH   1  11
ATOM     11  C   UNL     1       2.571   4.407  17.551  0.00  0.00    +0.000 C 
BRANCH  11  12
ATOM     12  C   UNL     1       1.911   3.062  17.915  0.00  0.00    +0.000 C 
BRANCH  12  16
ATOM     13  C   UNL     1       1.762   2.570  21.666  0.00  0.00    +0.000 C 
ATOM     14  C   UNL     1       1.436   3.185  20.331  0.00  0.00    +0.000 C 
ATOM     15  O   UNL     1       0.604   4.075  20.196  0.00  0.00    +0.000 OA
ATOM     16  N   UNL     1       2.157   2.650  19.289  0.00  0.00    +0.000 N 
ATOM     17  H   UNL     1       2.838   1.923  19.469  0.00  0.00    +0.000 HD
ENDBRANCH  12  16
ENDBRANCH  11  12
ENDBRANCH   1  11
TORSDOF 4
ENDMDL
MODEL 8
REMARK VINA RESULT:      -6.0      1.618      2.451
REMARK  Name = 
REMARK  6 active torsions:
REMARK  status: ('A' for Active; 'I' for Inactive)
REMARK    1  A    between atoms: C_1  and  C_2
REMARK    2  A    between atoms: N_4  and  C_5
REMARK    3  A    between atoms: C_5  and  C_6
REMARK    4  A    between atoms: C_6  and  N_7
REMARK    5  A    between atoms: C_12  and  O_13
REMARK    6  A    between atoms: C_14  and  C_15
REMARK                            x       y       z     vdW  Elec       q    Type
REMARK                         _______ _______ _______ _____ _____    ______ ____
ROOT
ATOM      1  N   UNL     1       3.817   5.352  18.026  0.00  0.00    +0.000 N 
ATOM      2  C   UNL     1       2.648   4.759  17.548  0.00  0.00    +0.000 A 
ATOM      3  C   UNL     1       2.224   3.525  17.835  0.00  0.00    +0.000 A 
ATOM      4  C   UNL     1       3.082   2.699  18.695  0.00  0.00    +0.000 A 
ATOM      5  O   UNL     1       2.767   1.558  19.027  0.00  0.00    +0.000 OA
ATOM      6  C   UNL     1       4.388   3.269  19.134  0.00  0.00    +0.000 A 
ATOM      7  C   UNL     1       4.709   4.534  18.782  0.00  0.00    +0.000 A 
ATOM      8  C   UNL     1       6.058   5.085  19.182  0.00  0.00    +0.000 C 
ENDROOT
BRANCH   6   9
ATOM      9  O   UNL     1       5.214   2.441  19.872  0.00  0.00    +0.000 OA
ATOM     10  H   UNL     1       5.860   3.049  20.292  0.00  0.00    +0.000 HD
ENDBRANCH   6   9
BRANCH   1  11
ATOM     11  C   UNL     1       4.203   6.722  17.570  0.00  0.00    +0.000 C 
BRANCH  11  12
ATOM     12  C   UNL     1       5.359   6.734  16.552  0.00  0.00    +0.000 C 
BRANCH  12  16
ATOM     13  C   UNL     1       6.076   3.970  14.066  0.00  0.00    +0.000 C 
ATOM     14  C   UNL     1       6.380   5.092  15.022  0.00  0.00    +0.000 C 
ATOM     15  O   UNL     1       7.523   5.431  15.306  0.00  0.00    +0.000 OA
ATOM     16  N   UNL     1       5.256   5.690  15.544  0.00  0.00    +0.000 N 
ATOM     17  H   UNL     1       4.339   5.369  15.260  0.00  0.00    +0.000 HD
ENDBRANCH  12  16
ENDBRANCH  11  12
ENDBRANCH   1  11
TORSDOF 4
ENDMDL
MODEL 9
REMARK VINA RESULT:      -5.9      1.530      1.549
REMARK  Name = 
REMARK  6 active torsions:
REMARK  status: ('A' for Active; 'I' for Inactive)
REMARK    1  A    between atoms: C_1  and  C_2
REMARK    2  A    between atoms: N_4  and  C_5
REMARK    3  A    between atoms: C_5  and  C_6
REMARK    4  A    between atoms: C_6  and  N_7
REMARK    5  A    between atoms: C_12  and  O_13
REMARK    6  A    between atoms: C_14  and  C_15
REMARK                            x       y       z     vdW  Elec       q    Type
REMARK                         _______ _______ _______ _____ _____    ______ ____
ROOT
ATOM      1  N   UNL     1       4.368   4.543  19.032  0.00  0.00    +0.000 N 
ATOM      2  C   UNL     1       4.667   3.256  19.481  0.00  0.00    +0.000 A 
ATOM      3  C   UNL     1       3.860   2.473  20.203  0.00  0.00    +0.000 A 
ATOM      4  C   UNL     1       2.559   3.027  20.598  0.00  0.00    +0.000 A 
ATOM      5  O   UNL     1       1.743   2.375  21.248  0.00  0.00    +0.000 OA
ATOM      6  C   UNL     1       2.255   4.437  20.223  0.00  0.00    +0.000 A 
ATOM      7  C   UNL     1       3.151   5.133  19.487  0.00  0.00    +0.000 A 
ATOM      8  C   UNL     1       2.863   6.579  19.159  0.00  0.00    +0.000 C 
ENDROOT
BRANCH   6   9
ATOM      9  O   UNL     1       1.060   4.962  20.679  0.00  0.00    +0.000 OA
ATOM     10  H   UNL     1       1.152   5.930  20.551  0.00  0.00    +0.000 HD
ENDBRANCH   6   9
BRANCH   1  11
ATOM     11  C   UNL     1       5.393   5.333  18.286  0.00  0.00    +0.000 C 
BRANCH  11  12
ATOM     12  C   UNL     1       6.490   4.469  17.634  0.00  0.00    +0.000 C 
BRANCH  12  16
ATOM     13  C   UNL     1       6.313   3.905  13.894  0.00  0.00    +0.000 C 
ATOM     14  C   UNL     1       6.716   4.574  15.181  0.00  0.00    +0.000 C 
ATOM     15  O   UNL     1       7.482   5.529  15.221  0.00  0.00    +0.000 OA
ATOM     16  N   UNL     1       6.146   4.007  16.298  0.00  0.00    +0.000 N 
ATOM     17  H   UNL     1       5.511   3.225  16.196  0.00  0.00    +0.000 HD
ENDBRANCH  12  16
ENDBRANCH  11  12
ENDBRANCH   1  11
TORSDOF 4
ENDMDL
