MODEL 1
REMARK VINA RESULT:      -7.2      0.000      0.000
REMARK  Name = 
REMARK  4 active torsions:
REMARK  status: ('A' for Active; 'I' for Inactive)
REMARK    1  A    between atoms: C_1  and  O_2
REMARK    2  A    between atoms: O_2  and  C_3
REMARK    3  A    between atoms: C_13  and  C_14
REMARK    4  A    between atoms: C_14  and  C_15
REMARK                            x       y       z     vdW  Elec       q    Type
REMARK                         _______ _______ _______ _____ _____    ______ ____
ROOT
ATOM      1  C   UNL     1       5.663   4.338  18.245  0.00  0.00    +0.000 A 
ATOM      2  C   UNL     1       5.099   3.836  19.423  0.00  0.00    +0.000 A 
ATOM      3  C   UNL     1       3.715   3.723  19.537  0.00  0.00    +0.000 A 
ATOM      4  O   UNL     1       3.216   3.187  20.741  0.00  0.00    +0.000 OA
ATOM      5  C   UNL     1       1.856   3.015  20.942  0.00  0.00    +0.000 A 
ATOM      6  O   UNL     1       1.399   2.514  21.962  0.00  0.00    +0.000 OA
ATOM      7  C   UNL     1       0.964   3.470  19.858  0.00  0.00    +0.000 A 
ATOM      8  C   UNL     1       1.425   3.991  18.717  0.00  0.00    +0.000 A 
ATOM      9  C   UNL     1       2.859   4.119  18.518  0.00  0.00    +0.000 A 
ATOM     10  C   UNL     1       3.413   4.629  17.344  0.00  0.00    +0.000 A 
ATOM     11  C   UNL     1       4.814   4.732  17.194  0.00  0.00    +0.000 A 
ENDROOT
BRANCH  11  12
ATOM     12  C   UNL     1       5.295   5.275  15.888  0.00  0.00    +0.000 C 
ATOM     13  C   UNL     1       5.590   4.361  14.727  0.00  0.00    +0.000 C 
ATOM     14  O   UNL     1       5.391   6.497  15.757  0.00  0.00    +0.000 OA
ENDBRANCH  11  12
BRANCH   1  16
ATOM     15  C   UNL     1       7.549   5.628  18.860  0.00  0.00    +0.000 C 
ATOM     16  O   UNL     1       7.012   4.538  18.112  0.00  0.00    +0.000 OA
ENDBRANCH   1  16
TORSDOF 2
ENDMDL
MODEL 2
REMARK VINA RESULT:      -7.1      1.009      1.122
REMARK  Name = 
REMARK  4 active torsions:
REMARK  status: ('A' for Active; 'I' for Inactive)
REMARK    1  A    between atoms: C_1  and  O_2
REMARK    2  A    between atoms: O_2  and  C_3
REMARK    3  A    between atoms: C_13  and  C_14
REMARK    4  A    between atoms: C_14  and  C_15
REMARK                            x       y       z     vdW  Elec       q    Type
REMARK                         _______ _______ _______ _____ _____    ______ ____
ROOT
ATOM      1  C   UNL     1       6.225   4.473  18.123  0.00  0.00    +0.000 A 
ATOM      2  C   UNL     1       5.354   4.244  19.195  0.00  0.00    +0.000 A 
ATOM      3  C   UNL     1       3.992   4.074  18.957  0.00  0.00    +0.000 A 
ATOM      4  O   UNL     1       3.176   3.823  20.078  0.00  0.00    +0.000 OA
ATOM      5  C   UNL     1       1.811   3.619  19.944  0.00  0.00    +0.000 A 
ATOM      6  O   UNL     1       1.087   3.358  20.897  0.00  0.00    +0.000 OA
ATOM      7  C   UNL     1       1.257   3.735  18.581  0.00  0.00    +0.000 A 
ATOM      8  C   UNL     1       2.018   3.985  17.512  0.00  0.00    +0.000 A 
ATOM      9  C   UNL     1       3.453   4.150  17.680  0.00  0.00    +0.000 A 
ATOM     10  C   UNL     1       4.313   4.388  16.608  0.00  0.00    +0.000 A 
ATOM     11  C   UNL     1       5.701   4.540  16.819  0.00  0.00    +0.000 A 
ENDROOT
BRANCH  11  12
ATOM     12  C   UNL     1       6.529   4.772  15.596  0.00  0.00    +0.000 C 
ATOM     13  C   UNL     1       6.329   3.945  14.354  0.00  0.00    +0.000 C 
ATOM     14  O   UNL     1       7.343   5.699  15.603  0.00  0.00    +0.000 OA
ENDBRANCH  11  12
BRANCH   1  16
ATOM     15  C   UNL     1       7.869   5.857  19.115  0.00  0.00    +0.000 C 
ATOM     16  O   UNL     1       7.560   4.719  18.311  0.00  0.00    +0.000 OA
ENDBRANCH   1  16
TORSDOF 2
ENDMDL
MODEL 3
REMARK VINA RESULT:      -7.0      1.710      2.867
REMARK  Name = 
REMARK  4 active torsions:
REMARK  status: ('A' for Active; 'I' for Inactive)
REMARK    1  A    between atoms: C_1  and  O_2
REMARK    2  A    between atoms: O_2  and  C_3
REMARK    3  A    between atoms: C_13  and  C_14
REMARK    4  A    between atoms: C_14  and  C_15
REMARK                            x       y       z     vdW  Elec       q    Type
REMARK                         _______ _______ _______ _____ _____    ______ ____
ROOT
ATOM      1  C   UNL     1       5.722   4.236  17.083  0.00  0.00    +0.000 A 
ATOM      2  C   UNL     1       4.520   3.538  16.928  0.00  0.00    +0.000 A 
ATOM      3  C   UNL     1       3.565   3.567  17.942  0.00  0.00    +0.000 A 
ATOM      4  O   UNL     1       2.367   2.863  17.710  0.00  0.00    +0.000 OA
ATOM      5  C   UNL     1       1.348   2.848  18.649  0.00  0.00    +0.000 A 
ATOM      6  O   UNL     1       0.281   2.279  18.455  0.00  0.00    +0.000 OA
ATOM      7  C   UNL     1       1.607   3.557  19.917  0.00  0.00    +0.000 A 
ATOM      8  C   UNL     1       2.744   4.218  20.154  0.00  0.00    +0.000 A 
ATOM      9  C   UNL     1       3.777   4.252  19.131  0.00  0.00    +0.000 A 
ATOM     10  C   UNL     1       4.978   4.942  19.297  0.00  0.00    +0.000 A 
ATOM     11  C   UNL     1       5.951   4.949  18.274  0.00  0.00    +0.000 A 
ENDROOT
BRANCH  11  12
ATOM     12  C   UNL     1       7.191   5.736  18.554  0.00  0.00    +0.000 C 
ATOM     13  C   UNL     1       7.475   7.023  17.826  0.00  0.00    +0.000 C 
ATOM     14  O   UNL     1       7.952   5.341  19.440  0.00  0.00    +0.000 OA
ENDBRANCH  11  12
BRANCH   1  16
ATOM     15  C   UNL     1       6.292   4.033  14.794  0.00  0.00    +0.000 C 
ATOM     16  O   UNL     1       6.722   4.180  16.147  0.00  0.00    +0.000 OA
ENDBRANCH   1  16
TORSDOF 2
ENDMDL
MODEL 4
REMARK VINA RESULT:      -7.0      1.804      2.195
REMARK  Name = 
REMARK  4 active torsions:
REMARK  status: ('A' for Active; 'I' for Inactive)
REMARK    1  A    between atoms: C_1  and  O_2
REMARK    2  A    between atoms: O_2  and  C_3
REMARK    3  A    between atoms: C_13  and  C_14
REMARK    4  A    between atoms: C_14  and  C_15
REMARK                            x       y       z     vdW  Elec       q    Type
REMARK                         _______ _______ _______ _____ _____    ______ ____
ROOT
ATOM      1  C   UNL     1       5.292   5.979  16.881  0.00  0.00    +0.000 A 
ATOM      2  C   UNL     1       4.234   6.102  17.788  0.00  0.00    +0.000 A 
ATOM      3  C   UNL     1       3.432   4.999  18.072  0.00  0.00    +0.000 A 
ATOM      4  O   UNL     1       2.400   5.186  19.014  0.00  0.00    +0.000 OA
ATOM      5  C   UNL     1       1.562   4.145  19.379  0.00  0.00    +0.000 A 
ATOM      6  O   UNL     1       0.684   4.272  20.224  0.00  0.00    +0.000 OA
ATOM      7  C   UNL     1       1.771   2.856  18.693  0.00  0.00    +0.000 A 
ATOM      8  C   UNL     1       2.739   2.669  17.790  0.00  0.00    +0.000 A 
ATOM      9  C   UNL     1       3.630   3.768  17.460  0.00  0.00    +0.000 A 
ATOM     10  C   UNL     1       4.677   3.641  16.547  0.00  0.00    +0.000 A 
ATOM     11  C   UNL     1       5.520   4.737  16.259  0.00  0.00    +0.000 A 
ENDROOT
BRANCH  11  12
ATOM     12  C   UNL     1       6.619   4.480  15.280  0.00  0.00    +0.000 C 
ATOM     13  C   UNL     1       6.318   4.174  13.837  0.00  0.00    +0.000 C 
ATOM     14  O   UNL     1       7.786   4.583  15.664  0.00  0.00    +0.000 OA
ENDBRANCH  11  12
BRANCH   1  16
ATOM     15  C   UNL     1       7.084   7.422  17.438  0.00  0.00    +0.000 C 
ATOM     16  O   UNL     1       6.063   7.051  16.512  0.00  0.00    +0.000 OA
ENDBRANCH   1  16
TORSDOF 2
ENDMDL
MODEL 5
REMARK VINA RESULT:      -6.9      1.715      3.092
REMARK  Name = 
REMARK  4 active torsions:
REMARK  status: ('A' for Active; 'I' for Inactive)
REMARK    1  A    between atoms: C_1  and  O_2
REMARK    2  A    between atoms: O_2  and  C_3
REMARK    3  A    between atoms: C_13  and  C_14
REMARK    4  A    between atoms: C_14  and  C_15
REMARK                            x       y       z     vdW  Elec       q    Type
REMARK                         _______ _______ _______ _____ _____    ______ ____
ROOT
ATOM      1  C   UNL     1       5.360   4.611  16.477  0.00  0.00    +0.000 A 
ATOM      2  C   UNL     1       4.059   4.105  16.382  0.00  0.00    +0.000 A 
ATOM      3  C   UNL     1       3.450   3.542  17.502  0.00  0.00    +0.000 A 
ATOM      4  O   UNL     1       2.131   3.075  17.343  0.00  0.00    +0.000 OA
ATOM      5  C   UNL     1       1.432   2.518  18.402  0.00  0.00    +0.000 A 
ATOM      6  O   UNL     1       0.270   2.142  18.300  0.00  0.00    +0.000 OA
ATOM      7  C   UNL     1       2.158   2.392  19.680  0.00  0.00    +0.000 A 
ATOM      8  C   UNL     1       3.414   2.821  19.840  0.00  0.00    +0.000 A 
ATOM      9  C   UNL     1       4.105   3.441  18.722  0.00  0.00    +0.000 A 
ATOM     10  C   UNL     1       5.406   3.934  18.822  0.00  0.00    +0.000 A 
ATOM     11  C   UNL     1       6.037   4.531  17.708  0.00  0.00    +0.000 A 
ENDROOT
BRANCH  11  12
ATOM     12  C   UNL     1       7.423   5.041  17.935  0.00  0.00    +0.000 C 
ATOM     13  C   UNL     1       7.662   6.400  18.539  0.00  0.00    +0.000 C 
ATOM     14  O   UNL     1       8.374   4.301  17.673  0.00  0.00    +0.000 OA
ENDBRANCH  11  12
BRANCH   1  16
ATOM     15  C   UNL     1       6.450   4.135  14.430  0.00  0.00    +0.000 C 
ATOM     16  O   UNL     1       6.030   5.106  15.388  0.00  0.00    +0.000 OA
ENDBRANCH   1  16
TORSDOF 2
ENDMDL
MODEL 6
REMARK VINA RESULT:      -6.9      1.769      2.687
REMARK  Name = 
REMARK  4 active torsions:
REMARK  status: ('A' for Active; 'I' for Inactive)
REMARK    1  A    between atoms: C_1  and  O_2
REMARK    2  A    between atoms: O_2  and  C_3
REMARK    3  A    between atoms: C_13  and  C_14
REMARK    4  A    between atoms: C_14  and  C_15
REMARK                            x       y       z     vdW  Elec       q    Type
REMARK                         _______ _______ _______ _____ _____    ______ ____
ROOT
ATOM      1  C   UNL     1       5.529   4.368  16.719  0.00  0.00    +0.000 A 
ATOM      2  C   UNL     1       4.423   3.512  16.769  0.00  0.00    +0.000 A 
ATOM      3  C   UNL     1       3.416   3.734  17.706  0.00  0.00    +0.000 A 
ATOM      4  O   UNL     1       2.320   2.850  17.685  0.00  0.00    +0.000 OA
ATOM      5  C   UNL     1       1.258   3.000  18.563  0.00  0.00    +0.000 A 
ATOM      6  O   UNL     1       0.274   2.269  18.538  0.00  0.00    +0.000 OA
ATOM      7  C   UNL     1       1.363   4.093  19.548  0.00  0.00    +0.000 A 
ATOM      8  C   UNL     1       2.404   4.931  19.586  0.00  0.00    +0.000 A 
ATOM      9  C   UNL     1       3.482   4.775  18.623  0.00  0.00    +0.000 A 
ATOM     10  C   UNL     1       4.586   5.626  18.586  0.00  0.00    +0.000 A 
ATOM     11  C   UNL     1       5.609   5.438  17.630  0.00  0.00    +0.000 A 
ENDROOT
BRANCH  11  12
ATOM     12  C   UNL     1       6.733   6.421  17.671  0.00  0.00    +0.000 C 
ATOM     13  C   UNL     1       7.798   6.340  18.733  0.00  0.00    +0.000 C 
ATOM     14  O   UNL     1       6.809   7.268  16.778  0.00  0.00    +0.000 OA
ENDBRANCH  11  12
BRANCH   1  16
ATOM     15  C   UNL     1       6.253   4.133  14.477  0.00  0.00    +0.000 C 
ATOM     16  O   UNL     1       6.580   4.150  15.867  0.00  0.00    +0.000 OA
ENDBRANCH   1  16
TORSDOF 2
ENDMDL
MODEL 7
REMARK VINA RESULT:      -6.8      1.807      5.765
REMARK  Name = 
REMARK  4 active torsions:
REMARK  status: ('A' for Active; 'I' for Inactive)
REMARK    1  A    between atoms: C_1  and  O_2
REMARK    2  A    between atoms: O_2  and  C_3
REMARK    3  A    between atoms: C_13  and  C_14
REMARK    4  A    between atoms: C_14  and  C_15
REMARK                            x       y       z     vdW  Elec       q    Type
REMARK                         _______ _______ _______ _____ _____    ______ ____
ROOT
ATOM      1  C   UNL     1       6.453   4.893  18.397  0.00  0.00    +0.000 A 
ATOM      2  C   UNL     1       7.255   5.312  17.330  0.00  0.00    +0.000 A 
ATOM      3  C   UNL     1       6.912   4.963  16.026  0.00  0.00    +0.000 A 
ATOM      4  O   UNL     1       7.749   5.439  14.997  0.00  0.00    +0.000 OA
ATOM      5  C   UNL     1       7.481   5.162  13.666  0.00  0.00    +0.000 A 
ATOM      6  O   UNL     1       8.169   5.599  12.751  0.00  0.00    +0.000 OA
ATOM      7  C   UNL     1       6.313   4.303  13.391  0.00  0.00    +0.000 A 
ATOM      8  C   UNL     1       5.520   3.835  14.359  0.00  0.00    +0.000 A 
ATOM      9  C   UNL     1       5.801   4.179  15.743  0.00  0.00    +0.000 A 
ATOM     10  C   UNL     1       5.004   3.748  16.803  0.00  0.00    +0.000 A 
ATOM     11  C   UNL     1       5.315   4.110  18.132  0.00  0.00    +0.000 A 
ENDROOT
BRANCH  11  12
ATOM     12  C   UNL     1       4.380   3.608  19.184  0.00  0.00    +0.000 C 
ATOM     13  C   UNL     1       3.001   4.193  19.342  0.00  0.00    +0.000 C 
ATOM     14  O   UNL     1       4.738   2.660  19.887  0.00  0.00    +0.000 OA
ENDBRANCH  11  12
BRANCH   1  16
ATOM     15  C   UNL     1       8.079   5.721  19.906  0.00  0.00    +0.000 C 
ATOM     16  O   UNL     1       6.787   5.148  19.702  0.00  0.00    +0.000 OA
ENDBRANCH   1  16
TORSDOF 2
ENDMDL
MODEL 8
REMARK VINA RESULT:      -6.8      1.762      2.260
REMARK  Name = 
REMARK  4 active torsions:
REMARK  status: ('A' for Active; 'I' for Inactive)
REMARK    1  A    between atoms: C_1  and  O_2
REMARK    2  A    between atoms: O_2  and  C_3
REMARK    3  A    between atoms: C_13  and  C_14
REMARK    4  A    between atoms: C_14  and  C_15
REMARK                            x       y       z     vdW  Elec       q    Type
REMARK                         _______ _______ _______ _____ _____    ______ ____
ROOT
ATOM      1  C   UNL     1       6.439   5.931  16.902  0.00  0.00    +0.000 A 
ATOM      2  C   UNL     1       5.680   6.072  18.069  0.00  0.00    +0.000 A 
ATOM      3  C   UNL     1       4.519   5.322  18.236  0.00  0.00    +0.000 A 
ATOM      4  O   UNL     1       3.816   5.494  19.446  0.00  0.00    +0.000 OA
ATOM      5  C   UNL     1       2.661   4.778  19.715  0.00  0.00    +0.000 A 
ATOM      6  O   UNL     1       2.055   4.879  20.775  0.00  0.00    +0.000 OA
ATOM      7  C   UNL     1       2.180   3.874  18.652  0.00  0.00    +0.000 A 
ATOM      8  C   UNL     1       2.830   3.712  17.496  0.00  0.00    +0.000 A 
ATOM      9  C   UNL     1       4.064   4.444  17.261  0.00  0.00    +0.000 A 
ATOM     10  C   UNL     1       4.809   4.306  16.090  0.00  0.00    +0.000 A 
ATOM     11  C   UNL     1       6.004   5.037  15.907  0.00  0.00    +0.000 A 
ENDROOT
BRANCH  11  12
ATOM     12  C   UNL     1       6.730   4.796  14.623  0.00  0.00    +0.000 C 
ATOM     13  C   UNL     1       6.173   3.864  13.578  0.00  0.00    +0.000 C 
ATOM     14  O   UNL     1       7.769   5.423  14.407  0.00  0.00    +0.000 OA
ENDBRANCH  11  12
BRANCH   1  16
ATOM     15  C   UNL     1       7.726   7.817  17.528  0.00  0.00    +0.000 C 
ATOM     16  O   UNL     1       7.548   6.699  16.658  0.00  0.00    +0.000 OA
ENDBRANCH   1  16
TORSDOF 2
ENDMDL
MODEL 9
REMARK VINA RESULT:      -6.5      1.868      3.156
REMARK  Name = 
REMARK  4 active torsions:
REMARK  status: ('A' for Active; 'I' for Inactive)
REMARK    1  A    between atoms: C_1  and  O_2
REMARK    2  A    between atoms: O_2  and  C_3
REMARK    3  A    between atoms: C_13  and  C_14
REMARK    4  A    between atoms: C_14  and  C_15
REMARK                            x       y       z     vdW  Elec       q    Type
REMARK                         _______ _______ _______ _____ _____    ______ ____
ROOT
ATOM      1  C   UNL     1       5.905   5.417  16.614  0.00  0.00    +0.000 A 
ATOM      2  C   UNL     1       4.719   4.696  16.437  0.00  0.00    +0.000 A 
ATOM      3  C   UNL     1       3.891   4.443  17.528  0.00  0.00    +0.000 A 
ATOM      4  O   UNL     1       2.701   3.732  17.275  0.00  0.00    +0.000 OA
ATOM      5  C   UNL     1       1.802   3.449  18.290  0.00  0.00    +0.000 A 
ATOM      6  O   UNL     1       0.741   2.870  18.089  0.00  0.00    +0.000 OA
ATOM      7  C   UNL     1       2.181   3.881  19.649  0.00  0.00    +0.000 A 
ATOM      8  C   UNL     1       3.313   4.544  19.904  0.00  0.00    +0.000 A 
ATOM      9  C   UNL     1       4.216   4.865  18.811  0.00  0.00    +0.000 A 
ATOM     10  C   UNL     1       5.401   5.576  18.997  0.00  0.00    +0.000 A 
ATOM     11  C   UNL     1       6.246   5.867  17.903  0.00  0.00    +0.000 A 
ENDROOT
BRANCH  11  12
ATOM     12  C   UNL     1       7.479   6.650  18.217  0.00  0.00    +0.000 C 
ATOM     13  C   UNL     1       7.730   7.992  17.581  0.00  0.00    +0.000 C 
ATOM     14  O   UNL     1       8.263   6.203  19.057  0.00  0.00    +0.000 OA
ENDBRANCH  11  12
BRANCH   1  16
ATOM     15  C   UNL     1       6.785   4.639  14.559  0.00  0.00    +0.000 C 
ATOM     16  O   UNL     1       6.788   5.628  15.588  0.00  0.00    +0.000 OA
ENDBRANCH   1  16
TORSDOF 2
ENDMDL
