MODEL 1
REMARK VINA RESULT:      -7.1      0.000      0.000
REMARK  Name = 
REMARK  4 active torsions:
REMARK  status: ('A' for Active; 'I' for Inactive)
REMARK    1  A    between atoms: C_6  and  C_7
REMARK    2  A    between atoms: C_7  and  C_8
REMARK    3  A    between atoms: C_8  and  N_9
REMARK    4  A    between atoms: N_9  and  C_10
REMARK                            x       y       z     vdW  Elec       q    Type
REMARK                         _______ _______ _______ _____ _____    ______ ____
ROOT
ATOM      1  C   UNL     1       2.134   6.013  20.066  0.00  0.00    +0.000 C 
ENDROOT
BRANCH   1   7
ATOM      2  C   UNL     1       3.386   6.745  17.978  0.00  0.00    +0.000 A 
ATOM      3  C   UNL     1       4.494   6.716  17.120  0.00  0.00    +0.000 A 
ATOM      4  C   UNL     1       5.596   5.995  17.519  0.00  0.00    +0.000 A 
ATOM      5  C   UNL     1       5.624   5.339  18.726  0.00  0.00    +0.000 A 
ATOM      6  C   UNL     1       4.552   5.361  19.599  0.00  0.00    +0.000 A 
ATOM      7  C   UNL     1       3.398   6.071  19.225  0.00  0.00    +0.000 A 
ATOM      8  O   UNL     1       6.795   4.672  18.923  0.00  0.00    +0.000 OA
ATOM      9  C   UNL     1       7.471   4.933  17.673  0.00  0.00    +0.000 C 
ATOM     10  O   UNL     1       6.741   5.823  16.805  0.00  0.00    +0.000 OA
ENDBRANCH   1   7
BRANCH   1  11
ATOM     11  C   UNL     1       2.052   4.864  21.093  0.00  0.00    +0.000 C 
BRANCH  11  12
ATOM     12  N   UNL     1       0.977   3.940  20.728  0.00  0.00    +0.000 NA
ATOM     13  H   UNL     1       0.299   4.438  20.152  0.00  0.00    +0.000 HD
BRANCH  12  14
ATOM     14  C   UNL     1       1.379   2.685  20.056  0.00  0.00    +0.000 C 
ATOM     15  C   UNL     1       0.784   2.701  18.633  0.00  0.00    +0.000 C 
ATOM     16  C   UNL     1       1.498   3.637  17.653  0.00  0.00    +0.000 C 
ATOM     17  C   UNL     1       2.615   2.949  16.876  0.00  0.00    +0.000 C 
ATOM     18  C   UNL     1       3.807   2.493  17.713  0.00  0.00    +0.000 C 
ATOM     19  C   UNL     1       3.472   1.606  18.914  0.00  0.00    +0.000 C 
ATOM     20  C   UNL     1       2.893   2.395  20.097  0.00  0.00    +0.000 C 
ENDBRANCH  12  14
ENDBRANCH  11  12
ENDBRANCH   1  11
TORSDOF 4
ENDMDL
MODEL 2
REMARK VINA RESULT:      -6.9      3.041      4.495
REMARK  Name = 
REMARK  4 active torsions:
REMARK  status: ('A' for Active; 'I' for Inactive)
REMARK    1  A    between atoms: C_6  and  C_7
REMARK    2  A    between atoms: C_7  and  C_8
REMARK    3  A    between atoms: C_8  and  N_9
REMARK    4  A    between atoms: N_9  and  C_10
REMARK                            x       y       z     vdW  Elec       q    Type
REMARK                         _______ _______ _______ _____ _____    ______ ____
ROOT
ATOM      1  C   UNL     1       4.298   5.553  18.381  0.00  0.00    +0.000 C 
ENDROOT
BRANCH   1   7
ATOM      2  C   UNL     1       3.106   7.686  17.684  0.00  0.00    +0.000 A 
ATOM      3  C   UNL     1       2.249   8.769  17.932  0.00  0.00    +0.000 A 
ATOM      4  C   UNL     1       1.574   8.792  19.129  0.00  0.00    +0.000 A 
ATOM      5  C   UNL     1       1.713   7.781  20.051  0.00  0.00    +0.000 A 
ATOM      6  C   UNL     1       2.539   6.695  19.828  0.00  0.00    +0.000 A 
ATOM      7  C   UNL     1       3.262   6.638  18.624  0.00  0.00    +0.000 A 
ATOM      8  O   UNL     1       0.976   8.002  21.174  0.00  0.00    +0.000 OA
ATOM      9  C   UNL     1       0.409   9.297  20.878  0.00  0.00    +0.000 C 
ATOM     10  O   UNL     1       0.735   9.774  19.557  0.00  0.00    +0.000 OA
ENDBRANCH   1   7
BRANCH   1  11
ATOM     11  C   UNL     1       4.079   4.672  17.133  0.00  0.00    +0.000 C 
BRANCH  11  12
ATOM     12  N   UNL     1       4.365   3.272  17.450  0.00  0.00    +0.000 NA
ATOM     13  H   UNL     1       5.098   3.240  18.157  0.00  0.00    +0.000 HD
BRANCH  12  14
ATOM     14  C   UNL     1       3.219   2.439  17.878  0.00  0.00    +0.000 C 
ATOM     15  C   UNL     1       3.592   1.782  19.223  0.00  0.00    +0.000 C 
ATOM     16  C   UNL     1       3.556   2.726  20.427  0.00  0.00    +0.000 C 
ATOM     17  C   UNL     1       2.203   2.746  21.131  0.00  0.00    +0.000 C 
ATOM     18  C   UNL     1       1.051   3.324  20.314  0.00  0.00    +0.000 C 
ATOM     19  C   UNL     1       0.839   2.699  18.934  0.00  0.00    +0.000 C 
ATOM     20  C   UNL     1       1.865   3.177  17.897  0.00  0.00    +0.000 C 
ENDBRANCH  12  14
ENDBRANCH  11  12
ENDBRANCH   1  11
TORSDOF 4
ENDMDL
MODEL 3
REMARK VINA RESULT:      -6.7      1.181      1.926
REMARK  Name = 
REMARK  4 active torsions:
REMARK  status: ('A' for Active; 'I' for Inactive)
REMARK    1  A    between atoms: C_6  and  C_7
REMARK    2  A    between atoms: C_7  and  C_8
REMARK    3  A    between atoms: C_8  and  N_9
REMARK    4  A    between atoms: N_9  and  C_10
REMARK                            x       y       z     vdW  Elec       q    Type
REMARK                         _______ _______ _______ _____ _____    ______ ____
ROOT
ATOM      1  C   UNL     1       2.490   6.608  19.034  0.00  0.00    +0.000 C 
ENDROOT
BRANCH   1   7
ATOM      2  C   UNL     1       4.784   5.588  19.431  0.00  0.00    +0.000 A 
ATOM      3  C   UNL     1       6.009   5.072  18.983  0.00  0.00    +0.000 A 
ATOM      4  C   UNL     1       6.184   4.920  17.628  0.00  0.00    +0.000 A 
ATOM      5  C   UNL     1       5.189   5.242  16.736  0.00  0.00    +0.000 A 
ATOM      6  C   UNL     1       3.967   5.739  17.148  0.00  0.00    +0.000 A 
ATOM      7  C   UNL     1       3.749   5.928  18.524  0.00  0.00    +0.000 A 
ATOM      8  O   UNL     1       5.567   5.036  15.444  0.00  0.00    +0.000 OA
ATOM      9  C   UNL     1       6.935   4.608  15.626  0.00  0.00    +0.000 C 
ATOM     10  O   UNL     1       7.311   4.473  17.012  0.00  0.00    +0.000 OA
ENDBRANCH   1   7
BRANCH   1  11
ATOM     11  C   UNL     1       1.971   6.136  20.409  0.00  0.00    +0.000 C 
BRANCH  11  12
ATOM     12  N   UNL     1       0.898   5.157  20.231  0.00  0.00    +0.000 NA
ATOM     13  H   UNL     1       0.587   5.185  19.261  0.00  0.00    +0.000 HD
BRANCH  12  14
ATOM     14  C   UNL     1       1.199   3.761  20.620  0.00  0.00    +0.000 C 
ATOM     15  C   UNL     1       0.887   2.858  19.409  0.00  0.00    +0.000 C 
ATOM     16  C   UNL     1       1.915   2.929  18.277  0.00  0.00    +0.000 C 
ATOM     17  C   UNL     1       3.025   1.891  18.411  0.00  0.00    +0.000 C 
ATOM     18  C   UNL     1       3.948   2.075  19.611  0.00  0.00    +0.000 C 
ATOM     19  C   UNL     1       3.254   2.179  20.971  0.00  0.00    +0.000 C 
ATOM     20  C   UNL     1       2.610   3.552  21.208  0.00  0.00    +0.000 C 
ENDBRANCH  12  14
ENDBRANCH  11  12
ENDBRANCH   1  11
TORSDOF 4
ENDMDL
MODEL 4
REMARK VINA RESULT:      -6.7      2.468      3.750
REMARK  Name = 
REMARK  4 active torsions:
REMARK  status: ('A' for Active; 'I' for Inactive)
REMARK    1  A    between atoms: C_6  and  C_7
REMARK    2  A    between atoms: C_7  and  C_8
REMARK    3  A    between atoms: C_8  and  N_9
REMARK    4  A    between atoms: N_9  and  C_10
REMARK                            x       y       z     vdW  Elec       q    Type
REMARK                         _______ _______ _______ _____ _____    ______ ____
ROOT
ATOM      1  C   UNL     1       6.242   5.226  18.552  0.00  0.00    +0.000 C 
ENDROOT
BRANCH   1   7
ATOM      2  C   UNL     1       5.384   3.865  16.585  0.00  0.00    +0.000 A 
ATOM      3  C   UNL     1       5.418   3.465  15.241  0.00  0.00    +0.000 A 
ATOM      4  C   UNL     1       6.294   4.114  14.401  0.00  0.00    +0.000 A 
ATOM      5  C   UNL     1       7.098   5.133  14.852  0.00  0.00    +0.000 A 
ATOM      6  C   UNL     1       7.076   5.557  16.167  0.00  0.00    +0.000 A 
ATOM      7  C   UNL     1       6.209   4.912  17.066  0.00  0.00    +0.000 A 
ATOM      8  O   UNL     1       7.902   5.627  13.871  0.00  0.00    +0.000 OA
ATOM      9  C   UNL     1       7.555   4.759  12.770  0.00  0.00    +0.000 C 
ATOM     10  O   UNL     1       6.491   3.838  13.084  0.00  0.00    +0.000 OA
ENDBRANCH   1   7
BRANCH   1  11
ATOM     11  C   UNL     1       4.908   5.067  19.311  0.00  0.00    +0.000 C 
BRANCH  11  12
ATOM     12  N   UNL     1       3.902   5.972  18.754  0.00  0.00    +0.000 NA
ATOM     13  H   UNL     1       3.978   5.960  17.737  0.00  0.00    +0.000 HD
BRANCH  12  14
ATOM     14  C   UNL     1       2.497   5.734  19.153  0.00  0.00    +0.000 C 
ATOM     15  C   UNL     1       1.780   5.053  17.970  0.00  0.00    +0.000 C 
ATOM     16  C   UNL     1       2.137   3.578  17.771  0.00  0.00    +0.000 C 
ATOM     17  C   UNL     1       1.204   2.630  18.518  0.00  0.00    +0.000 C 
ATOM     18  C   UNL     1       1.276   2.711  20.040  0.00  0.00    +0.000 C 
ATOM     19  C   UNL     1       1.087   4.106  20.639  0.00  0.00    +0.000 C 
ATOM     20  C   UNL     1       2.332   4.992  20.495  0.00  0.00    +0.000 C 
ENDBRANCH  12  14
ENDBRANCH  11  12
ENDBRANCH   1  11
TORSDOF 4
ENDMDL
MODEL 5
REMARK VINA RESULT:      -6.7      1.383      2.942
REMARK  Name = 
REMARK  4 active torsions:
REMARK  status: ('A' for Active; 'I' for Inactive)
REMARK    1  A    between atoms: C_6  and  C_7
REMARK    2  A    between atoms: C_7  and  C_8
REMARK    3  A    between atoms: C_8  and  N_9
REMARK    4  A    between atoms: N_9  and  C_10
REMARK                            x       y       z     vdW  Elec       q    Type
REMARK                         _______ _______ _______ _____ _____    ______ ____
ROOT
ATOM      1  C   UNL     1       4.375   2.518  19.404  0.00  0.00    +0.000 C 
ENDROOT
BRANCH   1   7
ATOM      2  C   UNL     1       4.735   3.637  17.151  0.00  0.00    +0.000 A 
ATOM      3  C   UNL     1       5.340   4.592  16.320  0.00  0.00    +0.000 A 
ATOM      4  C   UNL     1       6.152   5.532  16.909  0.00  0.00    +0.000 A 
ATOM      5  C   UNL     1       6.355   5.555  18.269  0.00  0.00    +0.000 A 
ATOM      6  C   UNL     1       5.761   4.636  19.114  0.00  0.00    +0.000 A 
ATOM      7  C   UNL     1       4.936   3.645  18.554  0.00  0.00    +0.000 A 
ATOM      8  O   UNL     1       7.204   6.549  18.647  0.00  0.00    +0.000 OA
ATOM      9  C   UNL     1       7.560   7.107  17.363  0.00  0.00    +0.000 C 
ATOM     10  O   UNL     1       6.848   6.506  16.263  0.00  0.00    +0.000 OA
ENDBRANCH   1   7
BRANCH   1  11
ATOM     11  C   UNL     1       3.130   1.798  18.843  0.00  0.00    +0.000 C 
BRANCH  11  12
ATOM     12  N   UNL     1       1.953   2.132  19.645  0.00  0.00    +0.000 NA
ATOM     13  H   UNL     1       2.246   2.282  20.610  0.00  0.00    +0.000 HD
BRANCH  12  14
ATOM     14  C   UNL     1       1.138   3.279  19.187  0.00  0.00    +0.000 C 
ATOM     15  C   UNL     1       1.016   4.270  20.362  0.00  0.00    +0.000 C 
ATOM     16  C   UNL     1       2.282   5.083  20.646  0.00  0.00    +0.000 C 
ATOM     17  C   UNL     1       2.321   6.411  19.897  0.00  0.00    +0.000 C 
ATOM     18  C   UNL     1       2.421   6.299  18.378  0.00  0.00    +0.000 C 
ATOM     19  C   UNL     1       1.359   5.427  17.707  0.00  0.00    +0.000 C 
ATOM     20  C   UNL     1       1.627   3.924  17.873  0.00  0.00    +0.000 C 
ENDBRANCH  12  14
ENDBRANCH  11  12
ENDBRANCH   1  11
TORSDOF 4
ENDMDL
MODEL 6
REMARK VINA RESULT:      -6.6      2.067      3.734
REMARK  Name = 
REMARK  4 active torsions:
REMARK  status: ('A' for Active; 'I' for Inactive)
REMARK    1  A    between atoms: C_6  and  C_7
REMARK    2  A    between atoms: C_7  and  C_8
REMARK    3  A    between atoms: C_8  and  N_9
REMARK    4  A    between atoms: N_9  and  C_10
REMARK                            x       y       z     vdW  Elec       q    Type
REMARK                         _______ _______ _______ _____ _____    ______ ____
ROOT
ATOM      1  C   UNL     1       5.442   3.939  16.672  0.00  0.00    +0.000 C 
ENDROOT
BRANCH   1   7
ATOM      2  C   UNL     1       7.135   4.693  18.411  0.00  0.00    +0.000 A 
ATOM      3  C   UNL     1       7.929   5.669  19.032  0.00  0.00    +0.000 A 
ATOM      4  C   UNL     1       7.953   6.926  18.473  0.00  0.00    +0.000 A 
ATOM      5  C   UNL     1       7.241   7.219  17.335  0.00  0.00    +0.000 A 
ATOM      6  C   UNL     1       6.462   6.274  16.694  0.00  0.00    +0.000 A 
ATOM      7  C   UNL     1       6.393   4.980  17.238  0.00  0.00    +0.000 A 
ATOM      8  O   UNL     1       7.385   8.519  16.957  0.00  0.00    +0.000 OA
ATOM      9  C   UNL     1       8.216   9.023  18.025  0.00  0.00    +0.000 C 
ATOM     10  O   UNL     1       8.631   8.002  18.955  0.00  0.00    +0.000 OA
ENDBRANCH   1   7
BRANCH   1  11
ATOM     11  C   UNL     1       4.367   3.402  17.641  0.00  0.00    +0.000 C 
BRANCH  11  12
ATOM     12  N   UNL     1       3.032   3.731  17.142  0.00  0.00    +0.000 NA
ATOM     13  H   UNL     1       2.605   2.886  16.765  0.00  0.00    +0.000 HD
BRANCH  12  14
ATOM     14  C   UNL     1       2.103   4.375  18.098  0.00  0.00    +0.000 C 
ATOM     15  C   UNL     1       1.053   3.326  18.515  0.00  0.00    +0.000 C 
ATOM     16  C   UNL     1       1.566   2.262  19.489  0.00  0.00    +0.000 C 
ATOM     17  C   UNL     1       1.359   2.641  20.952  0.00  0.00    +0.000 C 
ATOM     18  C   UNL     1       2.164   3.843  21.434  0.00  0.00    +0.000 C 
ATOM     19  C   UNL     1       2.010   5.120  20.605  0.00  0.00    +0.000 C 
ATOM     20  C   UNL     1       2.795   5.074  19.287  0.00  0.00    +0.000 C 
ENDBRANCH  12  14
ENDBRANCH  11  12
ENDBRANCH   1  11
TORSDOF 4
ENDMDL
MODEL 7
REMARK VINA RESULT:      -6.6      1.603      2.116
REMARK  Name = 
REMARK  4 active torsions:
REMARK  status: ('A' for Active; 'I' for Inactive)
REMARK    1  A    between atoms: C_6  and  C_7
REMARK    2  A    between atoms: C_7  and  C_8
REMARK    3  A    between atoms: C_8  and  N_9
REMARK    4  A    between atoms: N_9  and  C_10
REMARK                            x       y       z     vdW  Elec       q    Type
REMARK                         _______ _______ _______ _____ _____    ______ ____
ROOT
ATOM      1  C   UNL     1       2.433   5.991  18.265  0.00  0.00    +0.000 C 
ENDROOT
BRANCH   1   7
ATOM      2  C   UNL     1       4.712   6.963  17.700  0.00  0.00    +0.000 A 
ATOM      3  C   UNL     1       5.932   6.949  17.008  0.00  0.00    +0.000 A 
ATOM      4  C   UNL     1       6.212   5.855  16.223  0.00  0.00    +0.000 A 
ATOM      5  C   UNL     1       5.339   4.798  16.128  0.00  0.00    +0.000 A 
ATOM      6  C   UNL     1       4.136   4.777  16.809  0.00  0.00    +0.000 A 
ATOM      7  C   UNL     1       3.800   5.882  17.611  0.00  0.00    +0.000 A 
ATOM      8  O   UNL     1       5.793   3.828  15.288  0.00  0.00    +0.000 OA
ATOM      9  C   UNL     1       7.020   4.427  14.817  0.00  0.00    +0.000 C 
ATOM     10  O   UNL     1       7.322   5.685  15.455  0.00  0.00    +0.000 OA
ENDBRANCH   1   7
BRANCH   1  11
ATOM     11  C   UNL     1       2.418   6.453  19.738  0.00  0.00    +0.000 C 
BRANCH  11  12
ATOM     12  N   UNL     1       1.502   5.620  20.516  0.00  0.00    +0.000 NA
ATOM     13  H   UNL     1       0.643   5.491  19.983  0.00  0.00    +0.000 HD
BRANCH  12  14
ATOM     14  C   UNL     1       2.014   4.306  20.965  0.00  0.00    +0.000 C 
ATOM     15  C   UNL     1       0.968   3.238  20.584  0.00  0.00    +0.000 C 
ATOM     16  C   UNL     1       0.926   2.888  19.095  0.00  0.00    +0.000 C 
ATOM     17  C   UNL     1       1.838   1.722  18.728  0.00  0.00    +0.000 C 
ATOM     18  C   UNL     1       3.332   1.988  18.889  0.00  0.00    +0.000 C 
ATOM     19  C   UNL     1       3.770   2.497  20.263  0.00  0.00    +0.000 C 
ATOM     20  C   UNL     1       3.443   3.980  20.484  0.00  0.00    +0.000 C 
ENDBRANCH  12  14
ENDBRANCH  11  12
ENDBRANCH   1  11
TORSDOF 4
ENDMDL
MODEL 8
REMARK VINA RESULT:      -6.5      2.086      3.732
REMARK  Name = 
REMARK  4 active torsions:
REMARK  status: ('A' for Active; 'I' for Inactive)
REMARK    1  A    between atoms: C_6  and  C_7
REMARK    2  A    between atoms: C_7  and  C_8
REMARK    3  A    between atoms: C_8  and  N_9
REMARK    4  A    between atoms: N_9  and  C_10
REMARK                            x       y       z     vdW  Elec       q    Type
REMARK                         _______ _______ _______ _____ _____    ______ ____
ROOT
ATOM      1  C   UNL     1       5.110   4.074  16.126  0.00  0.00    +0.000 C 
ENDROOT
BRANCH   1   7
ATOM      2  C   UNL     1       6.855   4.492  17.926  0.00  0.00    +0.000 A 
ATOM      3  C   UNL     1       7.707   5.330  18.661  0.00  0.00    +0.000 A 
ATOM      4  C   UNL     1       7.800   6.647  18.275  0.00  0.00    +0.000 A 
ATOM      5  C   UNL     1       7.099   7.129  17.195  0.00  0.00    +0.000 A 
ATOM      6  C   UNL     1       6.262   6.324  16.445  0.00  0.00    +0.000 A 
ATOM      7  C   UNL     1       6.123   4.975  16.813  0.00  0.00    +0.000 A 
ATOM      8  O   UNL     1       7.314   8.458  16.992  0.00  0.00    +0.000 OA
ATOM      9  C   UNL     1       8.180   8.768  18.106  0.00  0.00    +0.000 C 
ATOM     10  O   UNL     1       8.541   7.610  18.886  0.00  0.00    +0.000 OA
ENDBRANCH   1   7
BRANCH   1  11
ATOM     11  C   UNL     1       3.880   3.669  16.967  0.00  0.00    +0.000 C 
BRANCH  11  12
ATOM     12  N   UNL     1       4.124   2.387  17.629  0.00  0.00    +0.000 NA
ATOM     13  H   UNL     1       5.091   2.365  17.952  0.00  0.00    +0.000 HD
BRANCH  12  14
ATOM     14  C   UNL     1       3.216   2.029  18.742  0.00  0.00    +0.000 C 
ATOM     15  C   UNL     1       3.775   2.668  20.030  0.00  0.00    +0.000 C 
ATOM     16  C   UNL     1       3.562   4.180  20.136  0.00  0.00    +0.000 C 
ATOM     17  C   UNL     1       2.265   4.553  20.848  0.00  0.00    +0.000 C 
ATOM     18  C   UNL     1       0.985   4.162  20.115  0.00  0.00    +0.000 C 
ATOM     19  C   UNL     1       0.876   2.692  19.708  0.00  0.00    +0.000 C 
ATOM     20  C   UNL     1       1.730   2.347  18.480  0.00  0.00    +0.000 C 
ENDBRANCH  12  14
ENDBRANCH  11  12
ENDBRANCH   1  11
TORSDOF 4
ENDMDL
MODEL 9
REMARK VINA RESULT:      -6.5      2.290      3.492
REMARK  Name = 
REMARK  4 active torsions:
REMARK  status: ('A' for Active; 'I' for Inactive)
REMARK    1  A    between atoms: C_6  and  C_7
REMARK    2  A    between atoms: C_7  and  C_8
REMARK    3  A    between atoms: C_8  and  N_9
REMARK    4  A    between atoms: N_9  and  C_10
REMARK                            x       y       z     vdW  Elec       q    Type
REMARK                         _______ _______ _______ _____ _____    ______ ____
ROOT
ATOM      1  C   UNL     1       5.478   4.355  18.926  0.00  0.00    +0.000 C 
ENDROOT
BRANCH   1   7
ATOM      2  C   UNL     1       7.010   5.585  17.314  0.00  0.00    +0.000 A 
ATOM      3  C   UNL     1       7.500   5.857  16.028  0.00  0.00    +0.000 A 
ATOM      4  C   UNL     1       7.046   5.077  14.990  0.00  0.00    +0.000 A 
ATOM      5  C   UNL     1       6.154   4.052  15.200  0.00  0.00    +0.000 A 
ATOM      6  C   UNL     1       5.664   3.752  16.457  0.00  0.00    +0.000 A 
ATOM      7  C   UNL     1       6.089   4.533  17.546  0.00  0.00    +0.000 A 
ATOM      8  O   UNL     1       5.817   3.417  14.044  0.00  0.00    +0.000 OA
ATOM      9  C   UNL     1       6.549   4.203  13.078  0.00  0.00    +0.000 C 
ATOM     10  O   UNL     1       7.379   5.217  13.679  0.00  0.00    +0.000 OA
ENDBRANCH   1   7
BRANCH   1  11
ATOM     11  C   UNL     1       4.607   5.521  19.440  0.00  0.00    +0.000 C 
BRANCH  11  12
ATOM     12  N   UNL     1       3.579   5.853  18.453  0.00  0.00    +0.000 NA
ATOM     13  H   UNL     1       3.835   5.434  17.560  0.00  0.00    +0.000 HD
BRANCH  12  14
ATOM     14  C   UNL     1       2.186   5.490  18.795  0.00  0.00    +0.000 C 
ATOM     15  C   UNL     1       1.678   4.506  17.721  0.00  0.00    +0.000 C 
ATOM     16  C   UNL     1       2.242   3.088  17.837  0.00  0.00    +0.000 C 
ATOM     17  C   UNL     1       1.374   2.168  18.690  0.00  0.00    +0.000 C 
ATOM     18  C   UNL     1       1.290   2.535  20.168  0.00  0.00    +0.000 C 
ATOM     19  C   UNL     1       0.866   3.974  20.470  0.00  0.00    +0.000 C 
ATOM     20  C   UNL     1       1.993   4.990  20.242  0.00  0.00    +0.000 C 
ENDBRANCH  12  14
ENDBRANCH  11  12
ENDBRANCH   1  11
TORSDOF 4
ENDMDL
