MODEL 1
REMARK VINA RESULT:      -7.7      0.000      0.000
REMARK  Name = 
REMARK  8 active torsions:
REMARK  status: ('A' for Active; 'I' for Inactive)
REMARK    1  A    between atoms: C_1  and  C_2
REMARK    2  A    between atoms: C_2  and  O_3
REMARK    3  A    between atoms: O_3  and  C_4
REMARK    4  A    between atoms: C_7  and  N_8
REMARK    5  A    between atoms: C_9  and  C_11
REMARK    6  A    between atoms: C_11  and  C_12
REMARK    7  A    between atoms: C_14  and  C_15
REMARK    8  A    between atoms: C_18  and  C_19
REMARK                            x       y       z     vdW  Elec       q    Type
REMARK                         _______ _______ _______ _____ _____    ______ ____
ROOT
ATOM      1  C   UNL     1       2.471   3.368  20.504  0.00  0.00    +0.000 C 
ATOM      2  C   UNL     1       3.564   2.788  19.960  0.00  0.00    +0.000 C 
ENDROOT
BRANCH   2   3
ATOM      3  C   UNL     1       4.361   3.376  18.935  0.00  0.00    +0.000 A 
ATOM      4  C   UNL     1       4.516   3.006  17.606  0.00  0.00    +0.000 A 
ATOM      5  C   UNL     1       5.389   3.939  16.994  0.00  0.00    +0.000 A 
ATOM      6  C   UNL     1       5.736   4.849  17.970  0.00  0.00    +0.000 A 
ATOM      7  O   UNL     1       5.139   4.492  19.147  0.00  0.00    +0.000 OA
BRANCH   6   8
ATOM      8  C   UNL     1       6.551   6.065  17.981  0.00  0.00    +0.000 A 
ATOM      9  C   UNL     1       6.194   7.173  17.192  0.00  0.00    +0.000 A 
ATOM     10  C   UNL     1       6.945   8.354  17.222  0.00  0.00    +0.000 A 
ATOM     11  C   UNL     1       8.066   8.440  18.042  0.00  0.00    +0.000 A 
ATOM     12 CL   UNL     1       8.979   9.896  18.093  0.00  0.00    +0.000 Cl
ATOM     13  C   UNL     1       8.444   7.354  18.825  0.00  0.00    +0.000 A 
ATOM     14  C   UNL     1       7.692   6.173  18.792  0.00  0.00    +0.000 A 
ENDBRANCH   6   8
ENDBRANCH   2   3
BRANCH   1  16
ATOM     15  N   UNL     1       2.585   5.829  20.309  0.00  0.00    +0.000 N 
ATOM     16  C   UNL     1       1.912   4.660  19.982  0.00  0.00    +0.000 C 
ATOM     17  O   UNL     1       0.897   4.636  19.293  0.00  0.00    +0.000 OA
ATOM     18  H   UNL     1       3.494   5.786  20.755  0.00  0.00    +0.000 HD
BRANCH  15  22
ATOM     19  C   UNL     1       1.199   9.626  19.034  0.00  0.00    +0.000 A 
ATOM     20  C   UNL     1       0.966   9.205  20.334  0.00  0.00    +0.000 A 
ATOM     21  C   UNL     1       1.453   7.974  20.772  0.00  0.00    +0.000 A 
ATOM     22  C   UNL     1       2.145   7.120  19.908  0.00  0.00    +0.000 A 
ATOM     23  C   UNL     1       2.397   7.554  18.604  0.00  0.00    +0.000 A 
ATOM     24  C   UNL     1       1.907   8.796  18.162  0.00  0.00    +0.000 A 
BRANCH  19  25
ATOM     25  O   UNL     1       0.675  10.850  18.739  0.00  0.00    +0.000 OA
BRANCH  25  27
ATOM     26  C   UNL     1       2.266  12.529  18.209  0.00  0.00    +0.000 C 
ATOM     27  C   UNL     1       1.354  11.974  19.288  0.00  0.00    +0.000 C 
ENDBRANCH  25  27
ENDBRANCH  19  25
ENDBRANCH  15  22
ENDBRANCH   1  16
BRANCH   1  28
ATOM     28  C   UNL     1       1.793   2.705  21.566  0.00  0.00    +0.000 C 
ATOM     29  N   UNL     1       1.248   2.195  22.450  0.00  0.00    +0.000 NA
ENDBRANCH   1  28
TORSDOF 7
ENDMDL
MODEL 2
REMARK VINA RESULT:      -7.5      2.543      3.275
REMARK  Name = 
REMARK  8 active torsions:
REMARK  status: ('A' for Active; 'I' for Inactive)
REMARK    1  A    between atoms: C_1  and  C_2
REMARK    2  A    between atoms: C_2  and  O_3
REMARK    3  A    between atoms: O_3  and  C_4
REMARK    4  A    between atoms: C_7  and  N_8
REMARK    5  A    between atoms: C_9  and  C_11
REMARK    6  A    between atoms: C_11  and  C_12
REMARK    7  A    between atoms: C_14  and  C_15
REMARK    8  A    between atoms: C_18  and  C_19
REMARK                            x       y       z     vdW  Elec       q    Type
REMARK                         _______ _______ _______ _____ _____    ______ ____
ROOT
ATOM      1  C   UNL     1       3.016   3.886  20.351  0.00  0.00    +0.000 C 
ATOM      2  C   UNL     1       4.251   3.481  19.982  0.00  0.00    +0.000 C 
ENDROOT
BRANCH   2   3
ATOM      3  C   UNL     1       5.099   4.197  19.088  0.00  0.00    +0.000 A 
ATOM      4  C   UNL     1       6.030   5.193  19.349  0.00  0.00    +0.000 A 
ATOM      5  C   UNL     1       6.642   5.550  18.123  0.00  0.00    +0.000 A 
ATOM      6  C   UNL     1       6.064   4.759  17.153  0.00  0.00    +0.000 A 
ATOM      7  O   UNL     1       5.114   3.964  17.731  0.00  0.00    +0.000 OA
BRANCH   6   8
ATOM      8  C   UNL     1       6.279   4.598  15.713  0.00  0.00    +0.000 A 
ATOM      9  C   UNL     1       7.393   5.183  15.086  0.00  0.00    +0.000 A 
ATOM     10  C   UNL     1       7.628   5.006  13.717  0.00  0.00    +0.000 A 
ATOM     11  C   UNL     1       6.749   4.240  12.958  0.00  0.00    +0.000 A 
ATOM     12 CL   UNL     1       7.045   4.006  11.281  0.00  0.00    +0.000 Cl
ATOM     13  C   UNL     1       5.634   3.658  13.555  0.00  0.00    +0.000 A 
ATOM     14  C   UNL     1       5.401   3.838  14.924  0.00  0.00    +0.000 A 
ENDBRANCH   6   8
ENDBRANCH   2   3
BRANCH   1  16
ATOM     15  N   UNL     1       2.646   6.329  20.310  0.00  0.00    +0.000 N 
ATOM     16  C   UNL     1       2.359   5.093  19.747  0.00  0.00    +0.000 C 
ATOM     17  O   UNL     1       1.607   4.946  18.789  0.00  0.00    +0.000 OA
ATOM     18  H   UNL     1       3.382   6.416  21.001  0.00  0.00    +0.000 HD
BRANCH  15  22
ATOM     19  C   UNL     1       0.858   9.893  18.874  0.00  0.00    +0.000 A 
ATOM     20  C   UNL     1       0.630   9.481  20.177  0.00  0.00    +0.000 A 
ATOM     21  C   UNL     1       1.246   8.331  20.668  0.00  0.00    +0.000 A 
ATOM     22  C   UNL     1       2.068   7.546  19.854  0.00  0.00    +0.000 A 
ATOM     23  C   UNL     1       2.313   7.973  18.547  0.00  0.00    +0.000 A 
ATOM     24  C   UNL     1       1.693   9.134  18.051  0.00  0.00    +0.000 A 
BRANCH  19  25
ATOM     25  O   UNL     1       0.201  11.036  18.524  0.00  0.00    +0.000 OA
BRANCH  25  27
ATOM     26  C   UNL     1      -2.037  10.807  17.767  0.00  0.00    +0.000 C 
ATOM     27  C   UNL     1      -1.152  11.141  18.954  0.00  0.00    +0.000 C 
ENDBRANCH  25  27
ENDBRANCH  19  25
ENDBRANCH  15  22
ENDBRANCH   1  16
BRANCH   1  28
ATOM     28  C   UNL     1       2.290   3.112  21.300  0.00  0.00    +0.000 C 
ATOM     29  N   UNL     1       1.724   2.492  22.096  0.00  0.00    +0.000 NA
ENDBRANCH   1  28
TORSDOF 7
ENDMDL
MODEL 3
REMARK VINA RESULT:      -7.5      0.877      1.087
REMARK  Name = 
REMARK  8 active torsions:
REMARK  status: ('A' for Active; 'I' for Inactive)
REMARK    1  A    between atoms: C_1  and  C_2
REMARK    2  A    between atoms: C_2  and  O_3
REMARK    3  A    between atoms: O_3  and  C_4
REMARK    4  A    between atoms: C_7  and  N_8
REMARK    5  A    between atoms: C_9  and  C_11
REMARK    6  A    between atoms: C_11  and  C_12
REMARK    7  A    between atoms: C_14  and  C_15
REMARK    8  A    between atoms: C_18  and  C_19
REMARK                            x       y       z     vdW  Elec       q    Type
REMARK                         _______ _______ _______ _____ _____    ______ ____
ROOT
ATOM      1  C   UNL     1       2.869   3.456  20.273  0.00  0.00    +0.000 C 
ATOM      2  C   UNL     1       4.024   2.981  19.758  0.00  0.00    +0.000 C 
ENDROOT
BRANCH   2   3
ATOM      3  C   UNL     1       4.801   3.652  18.770  0.00  0.00    +0.000 A 
ATOM      4  C   UNL     1       4.964   3.368  17.421  0.00  0.00    +0.000 A 
ATOM      5  C   UNL     1       5.807   4.361  16.865  0.00  0.00    +0.000 A 
ATOM      6  C   UNL     1       6.130   5.221  17.894  0.00  0.00    +0.000 A 
ATOM      7  O   UNL     1       5.546   4.777  19.048  0.00  0.00    +0.000 OA
BRANCH   6   8
ATOM      8  C   UNL     1       6.909   6.458  17.978  0.00  0.00    +0.000 A 
ATOM      9  C   UNL     1       6.597   7.556  17.157  0.00  0.00    +0.000 A 
ATOM     10  C   UNL     1       7.312   8.756  17.252  0.00  0.00    +0.000 A 
ATOM     11  C   UNL     1       8.349   8.872  18.173  0.00  0.00    +0.000 A 
ATOM     12 CL   UNL     1       9.216  10.350  18.305  0.00  0.00    +0.000 Cl
ATOM     13  C   UNL     1       8.681   7.795  18.990  0.00  0.00    +0.000 A 
ATOM     14  C   UNL     1       7.966   6.596  18.891  0.00  0.00    +0.000 A 
ENDBRANCH   6   8
ENDBRANCH   2   3
BRANCH   1  16
ATOM     15  N   UNL     1       2.793   5.920  20.100  0.00  0.00    +0.000 N 
ATOM     16  C   UNL     1       2.218   4.705  19.753  0.00  0.00    +0.000 C 
ATOM     17  O   UNL     1       1.220   4.608  19.047  0.00  0.00    +0.000 OA
ATOM     18  H   UNL     1       3.696   5.944  20.560  0.00  0.00    +0.000 HD
BRANCH  15  22
ATOM     19  C   UNL     1       1.129   9.607  18.837  0.00  0.00    +0.000 A 
ATOM     20  C   UNL     1       0.978   9.195  20.151  0.00  0.00    +0.000 A 
ATOM     21  C   UNL     1       1.556   8.002  20.583  0.00  0.00    +0.000 A 
ATOM     22  C   UNL     1       2.260   7.177  19.700  0.00  0.00    +0.000 A 
ATOM     23  C   UNL     1       2.428   7.604  18.381  0.00  0.00    +0.000 A 
ATOM     24  C   UNL     1       1.847   8.808  17.945  0.00  0.00    +0.000 A 
BRANCH  19  25
ATOM     25  O   UNL     1       0.521  10.794  18.549  0.00  0.00    +0.000 OA
BRANCH  25  27
ATOM     26  C   UNL     1      -1.679  10.078  18.016  0.00  0.00    +0.000 C 
ATOM     27  C   UNL     1      -0.837  10.921  18.957  0.00  0.00    +0.000 C 
ENDBRANCH  25  27
ENDBRANCH  19  25
ENDBRANCH  15  22
ENDBRANCH   1  16
BRANCH   1  28
ATOM     28  C   UNL     1       2.215   2.719  21.302  0.00  0.00    +0.000 C 
ATOM     29  N   UNL     1       1.716   2.116  22.154  0.00  0.00    +0.000 NA
ENDBRANCH   1  28
TORSDOF 7
ENDMDL
MODEL 4
REMARK VINA RESULT:      -7.4      2.492      3.308
REMARK  Name = 
REMARK  8 active torsions:
REMARK  status: ('A' for Active; 'I' for Inactive)
REMARK    1  A    between atoms: C_1  and  C_2
REMARK    2  A    between atoms: C_2  and  O_3
REMARK    3  A    between atoms: O_3  and  C_4
REMARK    4  A    between atoms: C_7  and  N_8
REMARK    5  A    between atoms: C_9  and  C_11
REMARK    6  A    between atoms: C_11  and  C_12
REMARK    7  A    between atoms: C_14  and  C_15
REMARK    8  A    between atoms: C_18  and  C_19
REMARK                            x       y       z     vdW  Elec       q    Type
REMARK                         _______ _______ _______ _____ _____    ______ ____
ROOT
ATOM      1  C   UNL     1       2.948   3.873  20.337  0.00  0.00    +0.000 C 
ATOM      2  C   UNL     1       4.189   3.469  19.990  0.00  0.00    +0.000 C 
ENDROOT
BRANCH   2   3
ATOM      3  C   UNL     1       5.052   4.185  19.111  0.00  0.00    +0.000 A 
ATOM      4  C   UNL     1       5.965   5.194  19.386  0.00  0.00    +0.000 A 
ATOM      5  C   UNL     1       6.605   5.546  18.173  0.00  0.00    +0.000 A 
ATOM      6  C   UNL     1       6.062   4.738  17.196  0.00  0.00    +0.000 A 
ATOM      7  O   UNL     1       5.106   3.938  17.757  0.00  0.00    +0.000 OA
BRANCH   6   8
ATOM      8  C   UNL     1       6.316   4.564  15.764  0.00  0.00    +0.000 A 
ATOM      9  C   UNL     1       5.434   3.813  14.967  0.00  0.00    +0.000 A 
ATOM     10  C   UNL     1       5.647   3.669  13.591  0.00  0.00    +0.000 A 
ATOM     11  C   UNL     1       6.749   4.275  12.995  0.00  0.00    +0.000 A 
ATOM     12 CL   UNL     1       7.003   4.114  11.302  0.00  0.00    +0.000 Cl
ATOM     13  C   UNL     1       7.641   5.015  13.765  0.00  0.00    +0.000 A 
ATOM     14  C   UNL     1       7.425   5.156  15.142  0.00  0.00    +0.000 A 
ENDBRANCH   6   8
ENDBRANCH   2   3
BRANCH   1  16
ATOM     15  N   UNL     1       2.596   6.318  20.273  0.00  0.00    +0.000 N 
ATOM     16  C   UNL     1       2.301   5.080  19.721  0.00  0.00    +0.000 C 
ATOM     17  O   UNL     1       1.550   4.930  18.763  0.00  0.00    +0.000 OA
ATOM     18  H   UNL     1       3.331   6.406  20.965  0.00  0.00    +0.000 HD
BRANCH  15  22
ATOM     19  C   UNL     1       0.968  10.004  18.960  0.00  0.00    +0.000 A 
ATOM     20  C   UNL     1       1.745   9.246  18.099  0.00  0.00    +0.000 A 
ATOM     21  C   UNL     1       2.251   8.014  18.512  0.00  0.00    +0.000 A 
ATOM     22  C   UNL     1       2.027   7.535  19.806  0.00  0.00    +0.000 A 
ATOM     23  C   UNL     1       1.226   8.291  20.666  0.00  0.00    +0.000 A 
ATOM     24  C   UNL     1       0.714   9.534  20.250  0.00  0.00    +0.000 A 
BRANCH  19  25
ATOM     25  O   UNL     1       0.531  11.182  18.429  0.00  0.00    +0.000 OA
BRANCH  25  27
ATOM     26  C   UNL     1      -1.785  10.927  17.979  0.00  0.00    +0.000 C 
ATOM     27  C   UNL     1      -0.756  11.624  18.850  0.00  0.00    +0.000 C 
ENDBRANCH  25  27
ENDBRANCH  19  25
ENDBRANCH  15  22
ENDBRANCH   1  16
BRANCH   1  28
ATOM     28  C   UNL     1       2.205   3.099  21.274  0.00  0.00    +0.000 C 
ATOM     29  N   UNL     1       1.621   2.442  22.025  0.00  0.00    +0.000 NA
ENDBRANCH   1  28
TORSDOF 7
ENDMDL
MODEL 5
REMARK VINA RESULT:      -7.4      0.251      1.003
REMARK  Name = 
REMARK  8 active torsions:
REMARK  status: ('A' for Active; 'I' for Inactive)
REMARK    1  A    between atoms: C_1  and  C_2
REMARK    2  A    between atoms: C_2  and  O_3
REMARK    3  A    between atoms: O_3  and  C_4
REMARK    4  A    between atoms: C_7  and  N_8
REMARK    5  A    between atoms: C_9  and  C_11
REMARK    6  A    between atoms: C_11  and  C_12
REMARK    7  A    between atoms: C_14  and  C_15
REMARK    8  A    between atoms: C_18  and  C_19
REMARK                            x       y       z     vdW  Elec       q    Type
REMARK                         _______ _______ _______ _____ _____    ______ ____
ROOT
ATOM      1  C   UNL     1       2.533   3.349  20.487  0.00  0.00    +0.000 C 
ATOM      2  C   UNL     1       3.634   2.802  19.927  0.00  0.00    +0.000 C 
ENDROOT
BRANCH   2   3
ATOM      3  C   UNL     1       4.413   3.424  18.908  0.00  0.00    +0.000 A 
ATOM      4  C   UNL     1       4.572   3.079  17.573  0.00  0.00    +0.000 A 
ATOM      5  C   UNL     1       5.419   4.042  16.972  0.00  0.00    +0.000 A 
ATOM      6  C   UNL     1       5.749   4.944  17.961  0.00  0.00    +0.000 A 
ATOM      7  O   UNL     1       5.165   4.555  19.135  0.00  0.00    +0.000 OA
BRANCH   6   8
ATOM      8  C   UNL     1       6.535   6.179  17.989  0.00  0.00    +0.000 A 
ATOM      9  C   UNL     1       7.692   6.273  18.783  0.00  0.00    +0.000 A 
ATOM     10  C   UNL     1       8.471   7.436  18.790  0.00  0.00    +0.000 A 
ATOM     11  C   UNL     1       8.101   8.521  18.001  0.00  0.00    +0.000 A 
ATOM     12 CL   UNL     1       9.066   9.944  17.995  0.00  0.00    +0.000 Cl
ATOM     13  C   UNL     1       6.955   8.454  17.214  0.00  0.00    +0.000 A 
ATOM     14  C   UNL     1       6.177   7.290  17.210  0.00  0.00    +0.000 A 
ENDBRANCH   6   8
ENDBRANCH   2   3
BRANCH   1  16
ATOM     15  N   UNL     1       2.673   5.800  20.209  0.00  0.00    +0.000 N 
ATOM     16  C   UNL     1       1.945   4.639  19.993  0.00  0.00    +0.000 C 
ATOM     17  O   UNL     1       0.860   4.618  19.421  0.00  0.00    +0.000 OA
ATOM     18  H   UNL     1       3.625   5.749  20.552  0.00  0.00    +0.000 HD
BRANCH  15  22
ATOM     19  C   UNL     1       1.237   9.591  18.972  0.00  0.00    +0.000 A 
ATOM     20  C   UNL     1       1.009   9.154  20.267  0.00  0.00    +0.000 A 
ATOM     21  C   UNL     1       1.512   7.925  20.692  0.00  0.00    +0.000 A 
ATOM     22  C   UNL     1       2.216   7.090  19.820  0.00  0.00    +0.000 A 
ATOM     23  C   UNL     1       2.463   7.541  18.521  0.00  0.00    +0.000 A 
ATOM     24  C   UNL     1       1.957   8.781  18.092  0.00  0.00    +0.000 A 
BRANCH  19  25
ATOM     25  O   UNL     1       0.698  10.811  18.689  0.00  0.00    +0.000 OA
BRANCH  25  27
ATOM     26  C   UNL     1       1.023  12.850  19.861  0.00  0.00    +0.000 C 
ATOM     27  C   UNL     1       1.576  11.927  18.790  0.00  0.00    +0.000 C 
ENDBRANCH  25  27
ENDBRANCH  19  25
ENDBRANCH  15  22
ENDBRANCH   1  16
BRANCH   1  28
ATOM     28  C   UNL     1       1.875   2.653  21.541  0.00  0.00    +0.000 C 
ATOM     29  N   UNL     1       1.337   2.119  22.415  0.00  0.00    +0.000 NA
ENDBRANCH   1  28
TORSDOF 7
ENDMDL
MODEL 6
REMARK VINA RESULT:      -7.4      2.408      3.077
REMARK  Name = 
REMARK  8 active torsions:
REMARK  status: ('A' for Active; 'I' for Inactive)
REMARK    1  A    between atoms: C_1  and  C_2
REMARK    2  A    between atoms: C_2  and  O_3
REMARK    3  A    between atoms: O_3  and  C_4
REMARK    4  A    between atoms: C_7  and  N_8
REMARK    5  A    between atoms: C_9  and  C_11
REMARK    6  A    between atoms: C_11  and  C_12
REMARK    7  A    between atoms: C_14  and  C_15
REMARK    8  A    between atoms: C_18  and  C_19
REMARK                            x       y       z     vdW  Elec       q    Type
REMARK                         _______ _______ _______ _____ _____    ______ ____
ROOT
ATOM      1  C   UNL     1       3.004   3.903  20.303  0.00  0.00    +0.000 C 
ATOM      2  C   UNL     1       4.240   3.496  19.938  0.00  0.00    +0.000 C 
ENDROOT
BRANCH   2   3
ATOM      3  C   UNL     1       5.096   4.213  19.054  0.00  0.00    +0.000 A 
ATOM      4  C   UNL     1       5.997   5.235  19.321  0.00  0.00    +0.000 A 
ATOM      5  C   UNL     1       6.634   5.583  18.105  0.00  0.00    +0.000 A 
ATOM      6  C   UNL     1       6.100   4.761  17.135  0.00  0.00    +0.000 A 
ATOM      7  O   UNL     1       5.152   3.955  17.703  0.00  0.00    +0.000 OA
BRANCH   6   8
ATOM      8  C   UNL     1       6.357   4.578  15.705  0.00  0.00    +0.000 A 
ATOM      9  C   UNL     1       5.512   3.769  14.924  0.00  0.00    +0.000 A 
ATOM     10  C   UNL     1       5.727   3.614  13.550  0.00  0.00    +0.000 A 
ATOM     11  C   UNL     1       6.793   4.268  12.938  0.00  0.00    +0.000 A 
ATOM     12 CL   UNL     1       7.048   4.093  11.247  0.00  0.00    +0.000 Cl
ATOM     13  C   UNL     1       7.648   5.066  13.692  0.00  0.00    +0.000 A 
ATOM     14  C   UNL     1       7.431   5.218  15.067  0.00  0.00    +0.000 A 
ENDBRANCH   6   8
ENDBRANCH   2   3
BRANCH   1  16
ATOM     15  N   UNL     1       2.676   6.352  20.245  0.00  0.00    +0.000 N 
ATOM     16  C   UNL     1       2.355   5.116  19.701  0.00  0.00    +0.000 C 
ATOM     17  O   UNL     1       1.579   4.973  18.761  0.00  0.00    +0.000 OA
ATOM     18  H   UNL     1       3.429   6.432  20.919  0.00  0.00    +0.000 HD
BRANCH  15  22
ATOM     19  C   UNL     1       0.921   9.933  18.812  0.00  0.00    +0.000 A 
ATOM     20  C   UNL     1       0.690   9.523  20.115  0.00  0.00    +0.000 A 
ATOM     21  C   UNL     1       1.296   8.367  20.605  0.00  0.00    +0.000 A 
ATOM     22  C   UNL     1       2.109   7.574  19.790  0.00  0.00    +0.000 A 
ATOM     23  C   UNL     1       2.357   7.999  18.483  0.00  0.00    +0.000 A 
ATOM     24  C   UNL     1       1.748   9.166  17.988  0.00  0.00    +0.000 A 
BRANCH  19  25
ATOM     25  O   UNL     1       0.275  11.082  18.463  0.00  0.00    +0.000 OA
BRANCH  25  27
ATOM     26  C   UNL     1       1.920  12.793  18.471  0.00  0.00    +0.000 C 
ATOM     27  C   UNL     1       0.672  12.262  19.153  0.00  0.00    +0.000 C 
ENDBRANCH  25  27
ENDBRANCH  19  25
ENDBRANCH  15  22
ENDBRANCH   1  16
BRANCH   1  28
ATOM     28  C   UNL     1       2.269   3.126  21.243  0.00  0.00    +0.000 C 
ATOM     29  N   UNL     1       1.641   2.511  21.995  0.00  0.00    +0.000 NA
ENDBRANCH   1  28
TORSDOF 7
ENDMDL
MODEL 7
REMARK VINA RESULT:      -6.9      4.556      6.910
REMARK  Name = 
REMARK  8 active torsions:
REMARK  status: ('A' for Active; 'I' for Inactive)
REMARK    1  A    between atoms: C_1  and  C_2
REMARK    2  A    between atoms: C_2  and  O_3
REMARK    3  A    between atoms: O_3  and  C_4
REMARK    4  A    between atoms: C_7  and  N_8
REMARK    5  A    between atoms: C_9  and  C_11
REMARK    6  A    between atoms: C_11  and  C_12
REMARK    7  A    between atoms: C_14  and  C_15
REMARK    8  A    between atoms: C_18  and  C_19
REMARK                            x       y       z     vdW  Elec       q    Type
REMARK                         _______ _______ _______ _____ _____    ______ ____
ROOT
ATOM      1  C   UNL     1      -0.012  10.709  20.855  0.00  0.00    +0.000 C 
ATOM      2  C   UNL     1       0.933   9.751  20.974  0.00  0.00    +0.000 C 
ENDROOT
BRANCH   2   3
ATOM      3  C   UNL     1       1.469   9.009  19.882  0.00  0.00    +0.000 A 
ATOM      4  C   UNL     1       1.889   9.443  18.632  0.00  0.00    +0.000 A 
ATOM      5  C   UNL     1       2.380   8.319  17.923  0.00  0.00    +0.000 A 
ATOM      6  C   UNL     1       2.244   7.236  18.765  0.00  0.00    +0.000 A 
ATOM      7  O   UNL     1       1.669   7.648  19.936  0.00  0.00    +0.000 OA
BRANCH   6   8
ATOM      8  C   UNL     1       2.601   5.819  18.664  0.00  0.00    +0.000 A 
ATOM      9  C   UNL     1       2.038   4.875  19.541  0.00  0.00    +0.000 A 
ATOM     10  C   UNL     1       2.344   3.514  19.431  0.00  0.00    +0.000 A 
ATOM     11  C   UNL     1       3.221   3.080  18.441  0.00  0.00    +0.000 A 
ATOM     12 CL   UNL     1       3.585   1.406  18.293  0.00  0.00    +0.000 Cl
ATOM     13  C   UNL     1       3.798   3.997  17.568  0.00  0.00    +0.000 A 
ATOM     14  C   UNL     1       3.491   5.358  17.681  0.00  0.00    +0.000 A 
ENDBRANCH   6   8
ENDBRANCH   2   3
BRANCH   1  16
ATOM     15  N   UNL     1      -1.620  10.085  19.086  0.00  0.00    +0.000 N 
ATOM     16  C   UNL     1      -0.688  11.004  19.547  0.00  0.00    +0.000 C 
ATOM     17  O   UNL     1      -0.399  12.033  18.945  0.00  0.00    +0.000 OA
ATOM     18  H   UNL     1      -1.931   9.330  19.685  0.00  0.00    +0.000 HD
BRANCH  15  22
ATOM     19  C   UNL     1      -3.645  10.626  15.402  0.00  0.00    +0.000 A 
ATOM     20  C   UNL     1      -2.499   9.848  15.454  0.00  0.00    +0.000 A 
ATOM     21  C   UNL     1      -1.850   9.634  16.669  0.00  0.00    +0.000 A 
ATOM     22  C   UNL     1      -2.308  10.227  17.849  0.00  0.00    +0.000 A 
ATOM     23  C   UNL     1      -3.475  10.994  17.799  0.00  0.00    +0.000 A 
ATOM     24  C   UNL     1      -4.131  11.209  16.574  0.00  0.00    +0.000 A 
BRANCH  19  25
ATOM     25  O   UNL     1      -4.183  10.748  14.155  0.00  0.00    +0.000 OA
BRANCH  25  27
ATOM     26  C   UNL     1      -4.709   9.844  12.024  0.00  0.00    +0.000 C 
ATOM     27  C   UNL     1      -3.719   9.825  13.175  0.00  0.00    +0.000 C 
ENDBRANCH  25  27
ENDBRANCH  19  25
ENDBRANCH  15  22
ENDBRANCH   1  16
BRANCH   1  28
ATOM     28  C   UNL     1      -0.423  11.423  22.016  0.00  0.00    +0.000 C 
ATOM     29  N   UNL     1      -0.775  11.974  22.971  0.00  0.00    +0.000 NA
ENDBRANCH   1  28
TORSDOF 7
ENDMDL
MODEL 8
REMARK VINA RESULT:      -6.9      3.131      7.228
REMARK  Name = 
REMARK  8 active torsions:
REMARK  status: ('A' for Active; 'I' for Inactive)
REMARK    1  A    between atoms: C_1  and  C_2
REMARK    2  A    between atoms: C_2  and  O_3
REMARK    3  A    between atoms: O_3  and  C_4
REMARK    4  A    between atoms: C_7  and  N_8
REMARK    5  A    between atoms: C_9  and  C_11
REMARK    6  A    between atoms: C_11  and  C_12
REMARK    7  A    between atoms: C_14  and  C_15
REMARK    8  A    between atoms: C_18  and  C_19
REMARK                            x       y       z     vdW  Elec       q    Type
REMARK                         _______ _______ _______ _____ _____    ______ ____
ROOT
ATOM      1  C   UNL     1       2.246   5.426  20.108  0.00  0.00    +0.000 C 
ATOM      2  C   UNL     1       1.863   6.666  20.480  0.00  0.00    +0.000 C 
ENDROOT
BRANCH   2   3
ATOM      3  C   UNL     1       1.819   7.792  19.607  0.00  0.00    +0.000 A 
ATOM      4  C   UNL     1       2.250   7.917  18.293  0.00  0.00    +0.000 A 
ATOM      5  C   UNL     1       1.945   9.229  17.858  0.00  0.00    +0.000 A 
ATOM      6  C   UNL     1       1.336   9.862  18.920  0.00  0.00    +0.000 A 
ATOM      7  O   UNL     1       1.287   9.004  19.984  0.00  0.00    +0.000 OA
BRANCH   6   8
ATOM      8  C   UNL     1       0.744  11.188  19.109  0.00  0.00    +0.000 A 
ATOM      9  C   UNL     1      -0.573  11.322  19.585  0.00  0.00    +0.000 A 
ATOM     10  C   UNL     1      -1.138  12.584  19.803  0.00  0.00    +0.000 A 
ATOM     11  C   UNL     1      -0.391  13.730  19.546  0.00  0.00    +0.000 A 
ATOM     12 CL   UNL     1      -1.076  15.281  19.830  0.00  0.00    +0.000 Cl
ATOM     13  C   UNL     1       0.911  13.622  19.066  0.00  0.00    +0.000 A 
ATOM     14  C   UNL     1       1.473  12.358  18.848  0.00  0.00    +0.000 A 
ENDBRANCH   6   8
ENDBRANCH   2   3
BRANCH   1  16
ATOM     15  N   UNL     1       4.151   5.327  18.536  0.00  0.00    +0.000 N 
ATOM     16  C   UNL     1       2.791   5.137  18.738  0.00  0.00    +0.000 C 
ATOM     17  O   UNL     1       2.026   4.746  17.863  0.00  0.00    +0.000 OA
ATOM     18  H   UNL     1       4.762   5.508  19.323  0.00  0.00    +0.000 HD
BRANCH  15  22
ATOM     19  C   UNL     1       5.959   4.642  14.765  0.00  0.00    +0.000 A 
ATOM     20  C   UNL     1       5.513   5.911  15.098  0.00  0.00    +0.000 A 
ATOM     21  C   UNL     1       4.953   6.152  16.351  0.00  0.00    +0.000 A 
ATOM     22  C   UNL     1       4.788   5.121  17.281  0.00  0.00    +0.000 A 
ATOM     23  C   UNL     1       5.256   3.847  16.952  0.00  0.00    +0.000 A 
ATOM     24  C   UNL     1       5.823   3.603  15.688  0.00  0.00    +0.000 A 
BRANCH  19  25
ATOM     25  O   UNL     1       6.491   4.545  13.513  0.00  0.00    +0.000 OA
BRANCH  25  27
ATOM     26  C   UNL     1       4.886   3.562  12.067  0.00  0.00    +0.000 C 
ATOM     27  C   UNL     1       6.201   3.350  12.796  0.00  0.00    +0.000 C 
ENDBRANCH  25  27
ENDBRANCH  19  25
ENDBRANCH  15  22
ENDBRANCH   1  16
BRANCH   1  28
ATOM     28  C   UNL     1       2.188   4.369  21.060  0.00  0.00    +0.000 C 
ATOM     29  N   UNL     1       2.177   3.507  21.832  0.00  0.00    +0.000 NA
ENDBRANCH   1  28
TORSDOF 7
ENDMDL
MODEL 9
REMARK VINA RESULT:      -6.8      3.352      6.509
REMARK  Name = 
REMARK  8 active torsions:
REMARK  status: ('A' for Active; 'I' for Inactive)
REMARK    1  A    between atoms: C_1  and  C_2
REMARK    2  A    between atoms: C_2  and  O_3
REMARK    3  A    between atoms: O_3  and  C_4
REMARK    4  A    between atoms: C_7  and  N_8
REMARK    5  A    between atoms: C_9  and  C_11
REMARK    6  A    between atoms: C_11  and  C_12
REMARK    7  A    between atoms: C_14  and  C_15
REMARK    8  A    between atoms: C_18  and  C_19
REMARK                            x       y       z     vdW  Elec       q    Type
REMARK                         _______ _______ _______ _____ _____    ______ ____
ROOT
ATOM      1  C   UNL     1       5.724   4.359  15.493  0.00  0.00    +0.000 C 
ATOM      2  C   UNL     1       4.550   3.947  16.019  0.00  0.00    +0.000 C 
ENDROOT
BRANCH   2   3
ATOM      3  C   UNL     1       4.050   4.356  17.288  0.00  0.00    +0.000 A 
ATOM      4  C   UNL     1       4.130   3.725  18.523  0.00  0.00    +0.000 A 
ATOM      5  C   UNL     1       3.510   4.562  19.481  0.00  0.00    +0.000 A 
ATOM      6  C   UNL     1       3.071   5.678  18.801  0.00  0.00    +0.000 A 
ATOM      7  O   UNL     1       3.372   5.540  17.474  0.00  0.00    +0.000 OA
BRANCH   6   8
ATOM      8  C   UNL     1       2.409   6.920  19.206  0.00  0.00    +0.000 A 
ATOM      9  C   UNL     1       2.257   7.980  18.294  0.00  0.00    +0.000 A 
ATOM     10  C   UNL     1       1.595   9.158  18.658  0.00  0.00    +0.000 A 
ATOM     11  C   UNL     1       1.077   9.291  19.943  0.00  0.00    +0.000 A 
ATOM     12 CL   UNL     1       0.248  10.730  20.387  0.00  0.00    +0.000 Cl
ATOM     13  C   UNL     1       1.223   8.259  20.865  0.00  0.00    +0.000 A 
ATOM     14  C   UNL     1       1.887   7.082  20.498  0.00  0.00    +0.000 A 
ENDBRANCH   6   8
ENDBRANCH   2   3
BRANCH   1  16
ATOM     15  N   UNL     1       6.246   6.450  16.702  0.00  0.00    +0.000 N 
ATOM     16  C   UNL     1       6.690   5.209  16.267  0.00  0.00    +0.000 C 
ATOM     17  O   UNL     1       7.818   4.780  16.487  0.00  0.00    +0.000 OA
ATOM     18  H   UNL     1       5.267   6.697  16.623  0.00  0.00    +0.000 HD
BRANCH  15  22
ATOM     19  C   UNL     1       8.792   9.118  18.790  0.00  0.00    +0.000 A 
ATOM     20  C   UNL     1       7.989   9.589  17.763  0.00  0.00    +0.000 A 
ATOM     21  C   UNL     1       7.121   8.725  17.098  0.00  0.00    +0.000 A 
ATOM     22  C   UNL     1       7.068   7.364  17.417  0.00  0.00    +0.000 A 
ATOM     23  C   UNL     1       7.863   6.895  18.465  0.00  0.00    +0.000 A 
ATOM     24  C   UNL     1       8.738   7.767  19.138  0.00  0.00    +0.000 A 
BRANCH  19  25
ATOM     25  O   UNL     1       9.587  10.068  19.360  0.00  0.00    +0.000 OA
BRANCH  25  27
ATOM     26  C   UNL     1      10.931  11.699  18.279  0.00  0.00    +0.000 C 
ATOM     27  C   UNL     1       9.536  11.366  18.776  0.00  0.00    +0.000 C 
ENDBRANCH  25  27
ENDBRANCH  19  25
ENDBRANCH  15  22
ENDBRANCH   1  16
BRANCH   1  28
ATOM     28  C   UNL     1       6.087   3.926  14.185  0.00  0.00    +0.000 C 
ATOM     29  N   UNL     1       6.403   3.603  13.120  0.00  0.00    +0.000 NA
ENDBRANCH   1  28
TORSDOF 7
ENDMDL
