MODEL 1
REMARK VINA RESULT:      -7.5      0.000      0.000
REMARK  Name = 
REMARK  5 active torsions:
REMARK  status: ('A' for Active; 'I' for Inactive)
REMARK    1  A    between atoms: C_1  and  O_2
REMARK    2  A    between atoms: O_2  and  C_3
REMARK    3  A    between atoms: C_8  and  S_9
REMARK    4  A    between atoms: S_9  and  N_12
REMARK    5  A    between atoms: N_12  and  C_13
REMARK                            x       y       z     vdW  Elec       q    Type
REMARK                         _______ _______ _______ _____ _____    ______ ____
ROOT
ATOM      1  N   UNL     1       3.711   5.103  19.635  0.00  0.00    +0.000 N 
ATOM      2  H   UNL     1       4.644   5.187  20.035  0.00  0.00    +0.000 HD
ENDROOT
BRANCH   1   3
ATOM      3  C   UNL     1       2.944   6.294  19.477  0.00  0.00    +0.000 A 
ATOM      4  C   UNL     1       2.087   6.685  20.558  0.00  0.00    +0.000 A 
ATOM      5  C   UNL     1       1.320   7.871  20.572  0.00  0.00    +0.000 A 
ATOM      6  C   UNL     1       1.500   8.586  19.395  0.00  0.00    +0.000 A 
ATOM      7  C   UNL     1       0.924   9.787  19.094  0.00  0.00    +0.000 A 
ATOM      8  N   UNL     1       1.395  10.092  17.848  0.00  0.00    +0.000 N 
ATOM      9  N   UNL     1       2.239   9.177  17.332  0.00  0.00    +0.000 NA
ATOM     10  C   UNL     1       2.334   8.225  18.276  0.00  0.00    +0.000 A 
ATOM     11  C   UNL     1       3.093   7.044  18.291  0.00  0.00    +0.000 A 
ATOM     12  H   UNL     1       1.185  10.911  17.290  0.00  0.00    +0.000 HD
ENDBRANCH   1   3
BRANCH   1  13
ATOM     13  S   UNL     1       3.627   3.883  18.474  0.00  0.00    +0.000 S 
ATOM     14  O   UNL     1       2.377   4.047  17.758  0.00  0.00    +0.000 OA
ATOM     15  O   UNL     1       3.920   2.637  19.153  0.00  0.00    +0.000 OA
BRANCH  13  21
ATOM     16  C   UNL     1       6.247   4.527  17.780  0.00  0.00    +0.000 A 
ATOM     17  C   UNL     1       7.245   4.765  16.822  0.00  0.00    +0.000 A 
ATOM     18  C   UNL     1       6.979   4.629  15.456  0.00  0.00    +0.000 A 
ATOM     19  C   UNL     1       5.707   4.264  15.028  0.00  0.00    +0.000 A 
ATOM     20  C   UNL     1       4.695   4.056  15.963  0.00  0.00    +0.000 A 
ATOM     21  C   UNL     1       4.957   4.203  17.335  0.00  0.00    +0.000 A 
BRANCH  16  23
ATOM     22  C   UNL     1       7.427   5.649  19.501  0.00  0.00    +0.000 C 
ATOM     23  O   UNL     1       6.472   4.651  19.126  0.00  0.00    +0.000 OA
ENDBRANCH  16  23
ENDBRANCH  13  21
ENDBRANCH   1  13
TORSDOF 4
ENDMDL
MODEL 2
REMARK VINA RESULT:      -7.3      3.177      5.563
REMARK  Name = 
REMARK  5 active torsions:
REMARK  status: ('A' for Active; 'I' for Inactive)
REMARK    1  A    between atoms: C_1  and  O_2
REMARK    2  A    between atoms: O_2  and  C_3
REMARK    3  A    between atoms: C_8  and  S_9
REMARK    4  A    between atoms: S_9  and  N_12
REMARK    5  A    between atoms: N_12  and  C_13
REMARK                            x       y       z     vdW  Elec       q    Type
REMARK                         _______ _______ _______ _____ _____    ______ ____
ROOT
ATOM      1  N   UNL     1       3.450   4.389  16.996  0.00  0.00    +0.000 N 
ATOM      2  H   UNL     1       3.285   4.187  16.011  0.00  0.00    +0.000 HD
ENDROOT
BRANCH   1   3
ATOM      3  C   UNL     1       4.681   5.012  17.353  0.00  0.00    +0.000 A 
ATOM      4  C   UNL     1       5.174   6.055  16.499  0.00  0.00    +0.000 A 
ATOM      5  C   UNL     1       6.342   6.806  16.759  0.00  0.00    +0.000 A 
ATOM      6  C   UNL     1       6.946   6.382  17.936  0.00  0.00    +0.000 A 
ATOM      7  C   UNL     1       8.078   6.911  18.488  0.00  0.00    +0.000 A 
ATOM      8  N   UNL     1       8.280   6.180  19.625  0.00  0.00    +0.000 N 
ATOM      9  N   UNL     1       7.354   5.226  19.846  0.00  0.00    +0.000 NA
ATOM     10  C   UNL     1       6.499   5.329  18.814  0.00  0.00    +0.000 A 
ATOM     11  C   UNL     1       5.330   4.604  18.537  0.00  0.00    +0.000 A 
ATOM     12  H   UNL     1       9.029   6.279  20.300  0.00  0.00    +0.000 HD
ENDBRANCH   1   3
BRANCH   1  13
ATOM     13  S   UNL     1       2.028   4.802  17.803  0.00  0.00    +0.000 S 
ATOM     14  O   UNL     1       0.920   4.256  17.044  0.00  0.00    +0.000 OA
ATOM     15  O   UNL     1       2.096   6.224  18.073  0.00  0.00    +0.000 OA
BRANCH  13  21
ATOM     16  C   UNL     1       2.391   2.585  19.451  0.00  0.00    +0.000 A 
ATOM     17  C   UNL     1       2.426   1.985  20.719  0.00  0.00    +0.000 A 
ATOM     18  C   UNL     1       2.222   2.739  21.878  0.00  0.00    +0.000 A 
ATOM     19  C   UNL     1       1.971   4.104  21.785  0.00  0.00    +0.000 A 
ATOM     20  C   UNL     1       1.900   4.711  20.533  0.00  0.00    +0.000 A 
ATOM     21  C   UNL     1       2.093   3.953  19.367  0.00  0.00    +0.000 A 
BRANCH  16  23
ATOM     22  C   UNL     1       3.820   1.159  18.211  0.00  0.00    +0.000 C 
ATOM     23  O   UNL     1       2.585   1.876  18.294  0.00  0.00    +0.000 OA
ENDBRANCH  16  23
ENDBRANCH  13  21
ENDBRANCH   1  13
TORSDOF 4
ENDMDL
MODEL 3
REMARK VINA RESULT:      -7.2      0.845      1.451
REMARK  Name = 
REMARK  5 active torsions:
REMARK  status: ('A' for Active; 'I' for Inactive)
REMARK    1  A    between atoms: C_1  and  O_2
REMARK    2  A    between atoms: O_2  and  C_3
REMARK    3  A    between atoms: C_8  and  S_9
REMARK    4  A    between atoms: S_9  and  N_12
REMARK    5  A    between atoms: N_12  and  C_13
REMARK                            x       y       z     vdW  Elec       q    Type
REMARK                         _______ _______ _______ _____ _____    ______ ____
ROOT
ATOM      1  N   UNL     1       3.697   5.187  19.707  0.00  0.00    +0.000 N 
ATOM      2  H   UNL     1       4.567   5.222  20.234  0.00  0.00    +0.000 HD
ENDROOT
BRANCH   1   3
ATOM      3  C   UNL     1       3.074   6.422  19.363  0.00  0.00    +0.000 A 
ATOM      4  C   UNL     1       3.353   6.973  18.068  0.00  0.00    +0.000 A 
ATOM      5  C   UNL     1       2.760   8.152  17.564  0.00  0.00    +0.000 A 
ATOM      6  C   UNL     1       1.892   8.703  18.499  0.00  0.00    +0.000 A 
ATOM      7  C   UNL     1       1.140   9.829  18.323  0.00  0.00    +0.000 A 
ATOM      8  N   UNL     1       0.455   9.971  19.497  0.00  0.00    +0.000 N 
ATOM      9  N   UNL     1       0.706   9.011  20.409  0.00  0.00    +0.000 NA
ATOM     10  C   UNL     1       1.595   8.197  19.816  0.00  0.00    +0.000 A 
ATOM     11  C   UNL     1       2.192   7.018  20.289  0.00  0.00    +0.000 A 
ATOM     12  H   UNL     1      -0.206  10.698  19.745  0.00  0.00    +0.000 HD
ENDBRANCH   1   3
BRANCH   1  13
ATOM     13  S   UNL     1       3.665   3.894  18.625  0.00  0.00    +0.000 S 
ATOM     14  O   UNL     1       2.412   3.963  17.899  0.00  0.00    +0.000 OA
ATOM     15  O   UNL     1       4.004   2.705  19.381  0.00  0.00    +0.000 OA
BRANCH  13  21
ATOM     16  C   UNL     1       6.263   4.586  17.896  0.00  0.00    +0.000 A 
ATOM     17  C   UNL     1       7.254   4.803  16.926  0.00  0.00    +0.000 A 
ATOM     18  C   UNL     1       6.995   4.582  15.570  0.00  0.00    +0.000 A 
ATOM     19  C   UNL     1       5.738   4.149  15.163  0.00  0.00    +0.000 A 
ATOM     20  C   UNL     1       4.731   3.960  16.109  0.00  0.00    +0.000 A 
ATOM     21  C   UNL     1       4.986   4.193  17.469  0.00  0.00    +0.000 A 
BRANCH  16  23
ATOM     22  C   UNL     1       7.561   5.677  19.551  0.00  0.00    +0.000 C 
ATOM     23  O   UNL     1       6.481   4.794  19.233  0.00  0.00    +0.000 OA
ENDBRANCH  16  23
ENDBRANCH  13  21
ENDBRANCH   1  13
TORSDOF 4
ENDMDL
MODEL 4
REMARK VINA RESULT:      -7.1      1.027      1.217
REMARK  Name = 
REMARK  5 active torsions:
REMARK  status: ('A' for Active; 'I' for Inactive)
REMARK    1  A    between atoms: C_1  and  O_2
REMARK    2  A    between atoms: O_2  and  C_3
REMARK    3  A    between atoms: C_8  and  S_9
REMARK    4  A    between atoms: S_9  and  N_12
REMARK    5  A    between atoms: N_12  and  C_13
REMARK                            x       y       z     vdW  Elec       q    Type
REMARK                         _______ _______ _______ _____ _____    ______ ____
ROOT
ATOM      1  N   UNL     1       3.097   4.595  18.871  0.00  0.00    +0.000 N 
ATOM      2  H   UNL     1       2.522   3.814  19.181  0.00  0.00    +0.000 HD
ENDROOT
BRANCH   1   3
ATOM      3  C   UNL     1       2.563   5.910  19.003  0.00  0.00    +0.000 A 
ATOM      4  C   UNL     1       1.981   6.271  20.264  0.00  0.00    +0.000 A 
ATOM      5  C   UNL     1       1.473   7.555  20.563  0.00  0.00    +0.000 A 
ATOM      6  C   UNL     1       1.601   8.401  19.469  0.00  0.00    +0.000 A 
ATOM      7  C   UNL     1       1.231   9.715  19.428  0.00  0.00    +0.000 A 
ATOM      8  N   UNL     1       1.550  10.122  18.163  0.00  0.00    +0.000 N 
ATOM      9  N   UNL     1       2.105   9.166  17.393  0.00  0.00    +0.000 NA
ATOM     10  C   UNL     1       2.160   8.078  18.180  0.00  0.00    +0.000 A 
ATOM     11  C   UNL     1       2.666   6.797  17.911  0.00  0.00    +0.000 A 
ATOM     12  H   UNL     1       1.419  11.041  17.757  0.00  0.00    +0.000 HD
ENDBRANCH   1   3
BRANCH   1  13
ATOM     13  S   UNL     1       4.739   4.318  19.139  0.00  0.00    +0.000 S 
ATOM     14  O   UNL     1       4.880   2.958  19.620  0.00  0.00    +0.000 OA
ATOM     15  O   UNL     1       5.228   5.427  19.933  0.00  0.00    +0.000 OA
BRANCH  13  21
ATOM     16  C   UNL     1       6.894   4.637  17.402  0.00  0.00    +0.000 A 
ATOM     17  C   UNL     1       7.435   4.701  16.108  0.00  0.00    +0.000 A 
ATOM     18  C   UNL     1       6.633   4.498  14.981  0.00  0.00    +0.000 A 
ATOM     19  C   UNL     1       5.275   4.237  15.132  0.00  0.00    +0.000 A 
ATOM     20  C   UNL     1       4.714   4.202  16.407  0.00  0.00    +0.000 A 
ATOM     21  C   UNL     1       5.515   4.417  17.539  0.00  0.00    +0.000 A 
BRANCH  16  23
ATOM     22  C   UNL     1       8.012   6.189  18.799  0.00  0.00    +0.000 C 
ATOM     23  O   UNL     1       7.650   4.832  18.528  0.00  0.00    +0.000 OA
ENDBRANCH  16  23
ENDBRANCH  13  21
ENDBRANCH   1  13
TORSDOF 4
ENDMDL
MODEL 5
REMARK VINA RESULT:      -7.0      2.793      5.188
REMARK  Name = 
REMARK  5 active torsions:
REMARK  status: ('A' for Active; 'I' for Inactive)
REMARK    1  A    between atoms: C_1  and  O_2
REMARK    2  A    between atoms: O_2  and  C_3
REMARK    3  A    between atoms: C_8  and  S_9
REMARK    4  A    between atoms: S_9  and  N_12
REMARK    5  A    between atoms: N_12  and  C_13
REMARK                            x       y       z     vdW  Elec       q    Type
REMARK                         _______ _______ _______ _____ _____    ______ ____
ROOT
ATOM      1  N   UNL     1       4.136   2.779  17.855  0.00  0.00    +0.000 N 
ATOM      2  H   UNL     1       4.402   1.963  17.307  0.00  0.00    +0.000 HD
ENDROOT
BRANCH   1   3
ATOM      3  C   UNL     1       5.041   3.880  17.896  0.00  0.00    +0.000 A 
ATOM      4  C   UNL     1       5.440   4.369  19.184  0.00  0.00    +0.000 A 
ATOM      5  C   UNL     1       6.379   5.406  19.381  0.00  0.00    +0.000 A 
ATOM      6  C   UNL     1       6.839   5.890  18.163  0.00  0.00    +0.000 A 
ATOM      7  C   UNL     1       7.769   6.876  17.995  0.00  0.00    +0.000 A 
ATOM      8  N   UNL     1       7.897   7.001  16.641  0.00  0.00    +0.000 N 
ATOM      9  N   UNL     1       7.123   6.160  15.927  0.00  0.00    +0.000 NA
ATOM     10  C   UNL     1       6.454   5.444  16.847  0.00  0.00    +0.000 A 
ATOM     11  C   UNL     1       5.525   4.405  16.679  0.00  0.00    +0.000 A 
ATOM     12  H   UNL     1       8.498   7.639  16.131  0.00  0.00    +0.000 HD
ENDBRANCH   1   3
BRANCH   1  13
ATOM     13  S   UNL     1       2.472   3.054  17.816  0.00  0.00    +0.000 S 
ATOM     14  O   UNL     1       1.833   1.967  18.531  0.00  0.00    +0.000 OA
ATOM     15  O   UNL     1       2.124   3.323  16.436  0.00  0.00    +0.000 OA
BRANCH  13  21
ATOM     16  C   UNL     1       1.822   4.526  20.090  0.00  0.00    +0.000 A 
ATOM     17  C   UNL     1       1.631   5.747  20.754  0.00  0.00    +0.000 A 
ATOM     18  C   UNL     1       1.867   6.963  20.106  0.00  0.00    +0.000 A 
ATOM     19  C   UNL     1       2.289   6.976  18.782  0.00  0.00    +0.000 A 
ATOM     20  C   UNL     1       2.452   5.774  18.096  0.00  0.00    +0.000 A 
ATOM     21  C   UNL     1       2.205   4.552  18.741  0.00  0.00    +0.000 A 
BRANCH  16  23
ATOM     22  C   UNL     1       2.199   3.150  21.982  0.00  0.00    +0.000 C 
ATOM     23  O   UNL     1       1.600   3.315  20.693  0.00  0.00    +0.000 OA
ENDBRANCH  16  23
ENDBRANCH  13  21
ENDBRANCH   1  13
TORSDOF 4
ENDMDL
MODEL 6
REMARK VINA RESULT:      -7.0      2.917      5.466
REMARK  Name = 
REMARK  5 active torsions:
REMARK  status: ('A' for Active; 'I' for Inactive)
REMARK    1  A    between atoms: C_1  and  O_2
REMARK    2  A    between atoms: O_2  and  C_3
REMARK    3  A    between atoms: C_8  and  S_9
REMARK    4  A    between atoms: S_9  and  N_12
REMARK    5  A    between atoms: N_12  and  C_13
REMARK                            x       y       z     vdW  Elec       q    Type
REMARK                         _______ _______ _______ _____ _____    ______ ____
ROOT
ATOM      1  N   UNL     1       3.519   2.739  18.224  0.00  0.00    +0.000 N 
ATOM      2  H   UNL     1       3.605   1.794  17.855  0.00  0.00    +0.000 HD
ENDROOT
BRANCH   1   3
ATOM      3  C   UNL     1       4.648   3.603  18.114  0.00  0.00    +0.000 A 
ATOM      4  C   UNL     1       5.031   4.036  16.801  0.00  0.00    +0.000 A 
ATOM      5  C   UNL     1       6.084   4.943  16.542  0.00  0.00    +0.000 A 
ATOM      6  C   UNL     1       6.698   5.333  17.725  0.00  0.00    +0.000 A 
ATOM      7  C   UNL     1       7.733   6.217  17.833  0.00  0.00    +0.000 A 
ATOM      8  N   UNL     1       7.989   6.283  19.174  0.00  0.00    +0.000 N 
ATOM      9  N   UNL     1       7.186   5.513  19.934  0.00  0.00    +0.000 NA
ATOM     10  C   UNL     1       6.361   4.910  19.062  0.00  0.00    +0.000 A 
ATOM     11  C   UNL     1       5.304   4.016  19.292  0.00  0.00    +0.000 A 
ATOM     12  H   UNL     1       8.696   6.838  19.643  0.00  0.00    +0.000 HD
ENDBRANCH   1   3
BRANCH   1  13
ATOM     13  S   UNL     1       1.961   3.355  18.033  0.00  0.00    +0.000 S 
ATOM     14  O   UNL     1       1.050   2.457  18.715  0.00  0.00    +0.000 OA
ATOM     15  O   UNL     1       1.790   3.635  16.623  0.00  0.00    +0.000 OA
BRANCH  13  21
ATOM     16  C   UNL     1       1.634   4.994  20.263  0.00  0.00    +0.000 A 
ATOM     17  C   UNL     1       1.643   6.256  20.876  0.00  0.00    +0.000 A 
ATOM     18  C   UNL     1       2.004   7.401  20.161  0.00  0.00    +0.000 A 
ATOM     19  C   UNL     1       2.354   7.302  18.819  0.00  0.00    +0.000 A 
ATOM     20  C   UNL     1       2.319   6.062  18.184  0.00  0.00    +0.000 A 
ATOM     21  C   UNL     1       1.945   4.912  18.897  0.00  0.00    +0.000 A 
BRANCH  16  23
ATOM     22  C   UNL     1       2.285   3.316  21.804  0.00  0.00    +0.000 C 
ATOM     23  O   UNL     1       1.284   3.851  20.933  0.00  0.00    +0.000 OA
ENDBRANCH  16  23
ENDBRANCH  13  21
ENDBRANCH   1  13
TORSDOF 4
ENDMDL
MODEL 7
REMARK VINA RESULT:      -6.9      1.471      1.992
REMARK  Name = 
REMARK  5 active torsions:
REMARK  status: ('A' for Active; 'I' for Inactive)
REMARK    1  A    between atoms: C_1  and  O_2
REMARK    2  A    between atoms: O_2  and  C_3
REMARK    3  A    between atoms: C_8  and  S_9
REMARK    4  A    between atoms: S_9  and  N_12
REMARK    5  A    between atoms: N_12  and  C_13
REMARK                            x       y       z     vdW  Elec       q    Type
REMARK                         _______ _______ _______ _____ _____    ______ ____
ROOT
ATOM      1  N   UNL     1       3.141   4.666  18.817  0.00  0.00    +0.000 N 
ATOM      2  H   UNL     1       2.532   3.896  19.085  0.00  0.00    +0.000 HD
ENDROOT
BRANCH   1   3
ATOM      3  C   UNL     1       2.664   5.995  19.014  0.00  0.00    +0.000 A 
ATOM      4  C   UNL     1       2.771   6.913  17.918  0.00  0.00    +0.000 A 
ATOM      5  C   UNL     1       2.282   8.239  17.943  0.00  0.00    +0.000 A 
ATOM      6  C   UNL     1       1.706   8.526  19.174  0.00  0.00    +0.000 A 
ATOM      7  C   UNL     1       1.119   9.707  19.525  0.00  0.00    +0.000 A 
ATOM      8  N   UNL     1       0.702   9.515  20.812  0.00  0.00    +0.000 N 
ATOM      9  N   UNL     1       0.972   8.292  21.309  0.00  0.00    +0.000 NA
ATOM     10  C   UNL     1       1.593   7.644  20.309  0.00  0.00    +0.000 A 
ATOM     11  C   UNL     1       2.079   6.328  20.254  0.00  0.00    +0.000 A 
ATOM     12  H   UNL     1       0.222  10.176  21.413  0.00  0.00    +0.000 HD
ENDBRANCH   1   3
BRANCH   1  13
ATOM     13  S   UNL     1       4.768   4.306  19.074  0.00  0.00    +0.000 S 
ATOM     14  O   UNL     1       4.846   2.925  19.509  0.00  0.00    +0.000 OA
ATOM     15  O   UNL     1       5.306   5.363  19.905  0.00  0.00    +0.000 OA
BRANCH  13  21
ATOM     16  C   UNL     1       6.930   4.641  17.349  0.00  0.00    +0.000 A 
ATOM     17  C   UNL     1       7.476   4.721  16.058  0.00  0.00    +0.000 A 
ATOM     18  C   UNL     1       6.677   4.534  14.926  0.00  0.00    +0.000 A 
ATOM     19  C   UNL     1       5.318   4.274  15.069  0.00  0.00    +0.000 A 
ATOM     20  C   UNL     1       4.752   4.224  16.341  0.00  0.00    +0.000 A 
ATOM     21  C   UNL     1       5.551   4.423  17.479  0.00  0.00    +0.000 A 
BRANCH  16  23
ATOM     22  C   UNL     1       8.047   6.172  18.770  0.00  0.00    +0.000 C 
ATOM     23  O   UNL     1       7.683   4.820  18.480  0.00  0.00    +0.000 OA
ENDBRANCH  16  23
ENDBRANCH  13  21
ENDBRANCH   1  13
TORSDOF 4
ENDMDL
MODEL 8
REMARK VINA RESULT:      -6.8      3.296      6.314
REMARK  Name = 
REMARK  5 active torsions:
REMARK  status: ('A' for Active; 'I' for Inactive)
REMARK    1  A    between atoms: C_1  and  O_2
REMARK    2  A    between atoms: O_2  and  C_3
REMARK    3  A    between atoms: C_8  and  S_9
REMARK    4  A    between atoms: S_9  and  N_12
REMARK    5  A    between atoms: N_12  and  C_13
REMARK                            x       y       z     vdW  Elec       q    Type
REMARK                         _______ _______ _______ _____ _____    ______ ____
ROOT
ATOM      1  N   UNL     1       5.489   3.803  17.712  0.00  0.00    +0.000 N 
ATOM      2  H   UNL     1       4.918   2.962  17.787  0.00  0.00    +0.000 HD
ENDROOT
BRANCH   1   3
ATOM      3  C   UNL     1       6.005   4.147  16.429  0.00  0.00    +0.000 A 
ATOM      4  C   UNL     1       7.056   5.122  16.371  0.00  0.00    +0.000 A 
ATOM      5  C   UNL     1       7.708   5.514  15.181  0.00  0.00    +0.000 A 
ATOM      6  C   UNL     1       7.179   4.841  14.087  0.00  0.00    +0.000 A 
ATOM      7  C   UNL     1       7.597   4.968  12.793  0.00  0.00    +0.000 A 
ATOM      8  N   UNL     1       6.792   4.119  12.087  0.00  0.00    +0.000 N 
ATOM      9  N   UNL     1       5.895   3.449  12.836  0.00  0.00    +0.000 NA
ATOM     10  C   UNL     1       6.113   3.870  14.094  0.00  0.00    +0.000 A 
ATOM     11  C   UNL     1       5.488   3.491  15.292  0.00  0.00    +0.000 A 
ATOM     12  H   UNL     1       6.802   3.942  11.089  0.00  0.00    +0.000 HD
ENDBRANCH   1   3
BRANCH   1  13
ATOM     13  S   UNL     1       4.978   5.011  18.771  0.00  0.00    +0.000 S 
ATOM     14  O   UNL     1       4.503   6.122  17.969  0.00  0.00    +0.000 OA
ATOM     15  O   UNL     1       6.045   5.209  19.730  0.00  0.00    +0.000 OA
BRANCH  13  21
ATOM     16  C   UNL     1       3.596   3.022  20.148  0.00  0.00    +0.000 A 
ATOM     17  C   UNL     1       2.461   2.557  20.830  0.00  0.00    +0.000 A 
ATOM     18  C   UNL     1       1.364   3.393  21.055  0.00  0.00    +0.000 A 
ATOM     19  C   UNL     1       1.382   4.705  20.593  0.00  0.00    +0.000 A 
ATOM     20  C   UNL     1       2.487   5.174  19.885  0.00  0.00    +0.000 A 
ATOM     21  C   UNL     1       3.585   4.333  19.648  0.00  0.00    +0.000 A 
BRANCH  16  23
ATOM     22  C   UNL     1       5.074   1.371  20.985  0.00  0.00    +0.000 C 
ATOM     23  O   UNL     1       4.689   2.230  19.908  0.00  0.00    +0.000 OA
ENDBRANCH  16  23
ENDBRANCH  13  21
ENDBRANCH   1  13
TORSDOF 4
ENDMDL
MODEL 9
REMARK VINA RESULT:      -6.7      3.296      6.346
REMARK  Name = 
REMARK  5 active torsions:
REMARK  status: ('A' for Active; 'I' for Inactive)
REMARK    1  A    between atoms: C_1  and  O_2
REMARK    2  A    between atoms: O_2  and  C_3
REMARK    3  A    between atoms: C_8  and  S_9
REMARK    4  A    between atoms: S_9  and  N_12
REMARK    5  A    between atoms: N_12  and  C_13
REMARK                            x       y       z     vdW  Elec       q    Type
REMARK                         _______ _______ _______ _____ _____    ______ ____
ROOT
ATOM      1  N   UNL     1       5.515   3.837  17.380  0.00  0.00    +0.000 N 
ATOM      2  H   UNL     1       5.162   2.912  17.622  0.00  0.00    +0.000 HD
ENDROOT
BRANCH   1   3
ATOM      3  C   UNL     1       5.964   4.051  16.044  0.00  0.00    +0.000 A 
ATOM      4  C   UNL     1       5.200   3.464  14.981  0.00  0.00    +0.000 A 
ATOM      5  C   UNL     1       5.484   3.645  13.609  0.00  0.00    +0.000 A 
ATOM      6  C   UNL     1       6.605   4.447  13.441  0.00  0.00    +0.000 A 
ATOM      7  C   UNL     1       7.137   4.837  12.245  0.00  0.00    +0.000 A 
ATOM      8  N   UNL     1       8.213   5.608  12.581  0.00  0.00    +0.000 N 
ATOM      9  N   UNL     1       8.405   5.749  13.908  0.00  0.00    +0.000 NA
ATOM     10  C   UNL     1       7.413   5.042  14.476  0.00  0.00    +0.000 A 
ATOM     11  C   UNL     1       7.104   4.854  15.833  0.00  0.00    +0.000 A 
ATOM     12  H   UNL     1       8.861   6.075  11.957  0.00  0.00    +0.000 HD
ENDBRANCH   1   3
BRANCH   1  13
ATOM     13  S   UNL     1       4.702   5.061  18.206  0.00  0.00    +0.000 S 
ATOM     14  O   UNL     1       4.278   6.042  17.226  0.00  0.00    +0.000 OA
ATOM     15  O   UNL     1       5.548   5.456  19.313  0.00  0.00    +0.000 OA
BRANCH  13  21
ATOM     16  C   UNL     1       2.339   5.024  19.682  0.00  0.00    +0.000 A 
ATOM     17  C   UNL     1       1.210   4.357  20.183  0.00  0.00    +0.000 A 
ATOM     18  C   UNL     1       0.958   3.021  19.857  0.00  0.00    +0.000 A 
ATOM     19  C   UNL     1       1.838   2.329  19.032  0.00  0.00    +0.000 A 
ATOM     20  C   UNL     1       2.982   2.964  18.552  0.00  0.00    +0.000 A 
ATOM     21  C   UNL     1       3.242   4.302  18.888  0.00  0.00    +0.000 A 
BRANCH  16  23
ATOM     22  C   UNL     1       1.567   7.051  20.634  0.00  0.00    +0.000 C 
ATOM     23  O   UNL     1       2.617   6.331  19.981  0.00  0.00    +0.000 OA
ENDBRANCH  16  23
ENDBRANCH  13  21
ENDBRANCH   1  13
TORSDOF 4
ENDMDL
