MODEL 1
REMARK VINA RESULT:      -5.9      0.000      0.000
REMARK  Name = 
REMARK  3 active torsions:
REMARK  status: ('A' for Active; 'I' for Inactive)
REMARK    1  A    between atoms: N_1  and  S_2
REMARK    2  A    between atoms: S_2  and  C_5
REMARK    3  A    between atoms: C_9  and  N_10
REMARK                            x       y       z     vdW  Elec       q    Type
REMARK                         _______ _______ _______ _____ _____    ______ ____
ROOT
ATOM      1  C   UNL     1       5.499   5.230  17.340  0.00  0.00    +0.000 A 
ATOM      2  N   UNL     1       4.676   6.271  16.980  0.00  0.00    +0.000 N 
ATOM      3  C   UNL     1       3.678   6.352  17.906  0.00  0.00    +0.000 A 
ATOM      4  N   UNL     1       3.796   5.421  18.821  0.00  0.00    +0.000 NA
ATOM      5  C   UNL     1       4.910   4.708  18.468  0.00  0.00    +0.000 A 
ATOM      6  H   UNL     1       4.802   6.864  16.169  0.00  0.00    +0.000 HD
ENDROOT
BRANCH   5   7
ATOM      7  N   UNL     1       5.360   3.627  19.179  0.00  0.00    +0.000 N 
ATOM      8  C   UNL     1       4.537   2.717  19.770  0.00  0.00    +0.000 C 
ATOM      9  O   UNL     1       4.957   1.750  20.399  0.00  0.00    +0.000 OA
ATOM     10  H   UNL     1       6.360   3.472  19.271  0.00  0.00    +0.000 HD
ENDBRANCH   5   7
BRANCH   1  11
ATOM     11  S   UNL     1       6.924   4.830  16.429  0.00  0.00    +0.000 S 
ATOM     12  O   UNL     1       7.479   6.089  16.002  0.00  0.00    +0.000 OA
ATOM     13  O   UNL     1       6.526   3.778  15.527  0.00  0.00    +0.000 OA
BRANCH  11  14
ATOM     14  N   UNL     1       7.998   4.149  17.524  0.00  0.00    +0.000 NA
ATOM     15  H   UNL     1       8.929   4.128  17.103  0.00  0.00    +0.000 HD
ATOM     16  H   UNL     1       7.702   3.205  17.777  0.00  0.00    +0.000 HD
ENDBRANCH  11  14
ENDBRANCH   1  11
TORSDOF 3
ENDMDL
MODEL 2
REMARK VINA RESULT:      -5.8      1.049      1.340
REMARK  Name = 
REMARK  3 active torsions:
REMARK  status: ('A' for Active; 'I' for Inactive)
REMARK    1  A    between atoms: N_1  and  S_2
REMARK    2  A    between atoms: S_2  and  C_5
REMARK    3  A    between atoms: C_9  and  N_10
REMARK                            x       y       z     vdW  Elec       q    Type
REMARK                         _______ _______ _______ _____ _____    ______ ____
ROOT
ATOM      1  C   UNL     1       5.644   5.550  17.913  0.00  0.00    +0.000 A 
ATOM      2  N   UNL     1       4.728   6.457  17.436  0.00  0.00    +0.000 N 
ATOM      3  C   UNL     1       3.488   6.047  17.831  0.00  0.00    +0.000 A 
ATOM      4  N   UNL     1       3.549   4.928  18.512  0.00  0.00    +0.000 NA
ATOM      5  C   UNL     1       4.878   4.601  18.551  0.00  0.00    +0.000 A 
ATOM      6  H   UNL     1       4.948   7.280  16.888  0.00  0.00    +0.000 HD
ENDROOT
BRANCH   5   7
ATOM      7  N   UNL     1       5.351   3.474  19.168  0.00  0.00    +0.000 N 
ATOM      8  C   UNL     1       4.569   2.625  19.891  0.00  0.00    +0.000 C 
ATOM      9  O   UNL     1       5.008   1.615  20.433  0.00  0.00    +0.000 OA
ATOM     10  H   UNL     1       6.334   3.234  19.082  0.00  0.00    +0.000 HD
ENDBRANCH   5   7
BRANCH   1  11
ATOM     11  S   UNL     1       7.351   5.748  17.656  0.00  0.00    +0.000 S 
ATOM     12  O   UNL     1       7.884   6.198  18.915  0.00  0.00    +0.000 OA
ATOM     13  O   UNL     1       7.475   6.481  16.420  0.00  0.00    +0.000 OA
BRANCH  11  14
ATOM     14  N   UNL     1       7.957   4.209  17.369  0.00  0.00    +0.000 NA
ATOM     15  H   UNL     1       7.822   3.980  16.382  0.00  0.00    +0.000 HD
ATOM     16  H   UNL     1       7.485   3.522  17.960  0.00  0.00    +0.000 HD
ENDBRANCH  11  14
ENDBRANCH   1  11
TORSDOF 3
ENDMDL
MODEL 3
REMARK VINA RESULT:      -5.7      2.852      4.502
REMARK  Name = 
REMARK  3 active torsions:
REMARK  status: ('A' for Active; 'I' for Inactive)
REMARK    1  A    between atoms: N_1  and  S_2
REMARK    2  A    between atoms: S_2  and  C_5
REMARK    3  A    between atoms: C_9  and  N_10
REMARK                            x       y       z     vdW  Elec       q    Type
REMARK                         _______ _______ _______ _____ _____    ______ ____
ROOT
ATOM      1  C   UNL     1       6.020   4.929  17.361  0.00  0.00    +0.000 A 
ATOM      2  N   UNL     1       5.985   3.822  16.546  0.00  0.00    +0.000 N 
ATOM      3  C   UNL     1       6.445   4.195  15.317  0.00  0.00    +0.000 A 
ATOM      4  N   UNL     1       6.752   5.469  15.286  0.00  0.00    +0.000 NA
ATOM      5  C   UNL     1       6.474   5.937  16.543  0.00  0.00    +0.000 A 
ATOM      6  H   UNL     1       5.671   2.900  16.822  0.00  0.00    +0.000 HD
ENDROOT
BRANCH   5   7
ATOM      7  N   UNL     1       6.650   7.246  16.907  0.00  0.00    +0.000 N 
ATOM      8  C   UNL     1       7.760   7.708  17.546  0.00  0.00    +0.000 C 
ATOM      9  O   UNL     1       7.905   8.886  17.860  0.00  0.00    +0.000 OA
ATOM     10  H   UNL     1       5.929   7.926  16.685  0.00  0.00    +0.000 HD
ENDBRANCH   5   7
BRANCH   1  11
ATOM     11  S   UNL     1       5.550   4.852  19.033  0.00  0.00    +0.000 S 
ATOM     12  O   UNL     1       4.264   5.494  19.105  0.00  0.00    +0.000 OA
ATOM     13  O   UNL     1       6.707   5.278  19.780  0.00  0.00    +0.000 OA
BRANCH  11  14
ATOM     14  N   UNL     1       5.324   3.224  19.375  0.00  0.00    +0.000 NA
ATOM     15  H   UNL     1       5.443   2.687  18.513  0.00  0.00    +0.000 HD
ATOM     16  H   UNL     1       4.395   3.066  19.767  0.00  0.00    +0.000 HD
ENDBRANCH  11  14
ENDBRANCH   1  11
TORSDOF 3
ENDMDL
MODEL 4
REMARK VINA RESULT:      -5.7      2.856      3.772
REMARK  Name = 
REMARK  3 active torsions:
REMARK  status: ('A' for Active; 'I' for Inactive)
REMARK    1  A    between atoms: N_1  and  S_2
REMARK    2  A    between atoms: S_2  and  C_5
REMARK    3  A    between atoms: C_9  and  N_10
REMARK                            x       y       z     vdW  Elec       q    Type
REMARK                         _______ _______ _______ _____ _____    ______ ____
ROOT
ATOM      1  C   UNL     1       5.585   4.294  16.894  0.00  0.00    +0.000 A 
ATOM      2  N   UNL     1       5.410   4.450  15.539  0.00  0.00    +0.000 N 
ATOM      3  C   UNL     1       6.628   4.725  14.990  0.00  0.00    +0.000 A 
ATOM      4  N   UNL     1       7.566   4.774  15.905  0.00  0.00    +0.000 NA
ATOM      5  C   UNL     1       6.927   4.528  17.090  0.00  0.00    +0.000 A 
ATOM      6  H   UNL     1       4.527   4.373  15.049  0.00  0.00    +0.000 HD
ENDROOT
BRANCH   5   7
ATOM      7  N   UNL     1       7.574   4.510  18.297  0.00  0.00    +0.000 N 
ATOM      8  C   UNL     1       7.415   5.466  19.253  0.00  0.00    +0.000 C 
ATOM      9  O   UNL     1       7.999   5.432  20.333  0.00  0.00    +0.000 OA
ATOM     10  H   UNL     1       8.202   3.741  18.514  0.00  0.00    +0.000 HD
ENDBRANCH   5   7
BRANCH   1  11
ATOM     11  S   UNL     1       4.265   3.887  17.948  0.00  0.00    +0.000 S 
ATOM     12  O   UNL     1       3.369   3.084  17.157  0.00  0.00    +0.000 OA
ATOM     13  O   UNL     1       3.887   5.121  18.590  0.00  0.00    +0.000 OA
BRANCH  11  14
ATOM     14  N   UNL     1       4.913   2.899  19.140  0.00  0.00    +0.000 NA
ATOM     15  H   UNL     1       5.468   3.474  19.779  0.00  0.00    +0.000 HD
ATOM     16  H   UNL     1       5.493   2.169  18.725  0.00  0.00    +0.000 HD
ENDBRANCH  11  14
ENDBRANCH   1  11
TORSDOF 3
ENDMDL
MODEL 5
REMARK VINA RESULT:      -5.6      1.267      1.425
REMARK  Name = 
REMARK  3 active torsions:
REMARK  status: ('A' for Active; 'I' for Inactive)
REMARK    1  A    between atoms: N_1  and  S_2
REMARK    2  A    between atoms: S_2  and  C_5
REMARK    3  A    between atoms: C_9  and  N_10
REMARK                            x       y       z     vdW  Elec       q    Type
REMARK                         _______ _______ _______ _____ _____    ______ ____
ROOT
ATOM      1  C   UNL     1       5.382   4.761  17.569  0.00  0.00    +0.000 A 
ATOM      2  N   UNL     1       4.388   5.526  17.006  0.00  0.00    +0.000 N 
ATOM      3  C   UNL     1       3.240   5.302  17.708  0.00  0.00    +0.000 A 
ATOM      4  N   UNL     1       3.428   4.430  18.669  0.00  0.00    +0.000 NA
ATOM      5  C   UNL     1       4.747   4.074  18.579  0.00  0.00    +0.000 A 
ATOM      6  H   UNL     1       4.503   6.142  16.210  0.00  0.00    +0.000 HD
ENDROOT
BRANCH   5   7
ATOM      7  N   UNL     1       5.331   3.158  19.414  0.00  0.00    +0.000 N 
ATOM      8  C   UNL     1       4.631   2.364  20.270  0.00  0.00    +0.000 C 
ATOM      9  O   UNL     1       5.170   1.543  21.007  0.00  0.00    +0.000 OA
ATOM     10  H   UNL     1       6.340   3.042  19.398  0.00  0.00    +0.000 HD
ENDBRANCH   5   7
BRANCH   1  11
ATOM     11  S   UNL     1       7.017   4.803  16.982  0.00  0.00    +0.000 S 
ATOM     12  O   UNL     1       6.990   4.128  15.710  0.00  0.00    +0.000 OA
ATOM     13  O   UNL     1       7.839   4.393  18.093  0.00  0.00    +0.000 OA
BRANCH  11  14
ATOM     14  N   UNL     1       7.363   6.419  16.692  0.00  0.00    +0.000 NA
ATOM     15  H   UNL     1       6.569   6.986  16.998  0.00  0.00    +0.000 HD
ATOM     16  H   UNL     1       7.546   6.574  15.699  0.00  0.00    +0.000 HD
ENDBRANCH  11  14
ENDBRANCH   1  11
TORSDOF 3
ENDMDL
MODEL 6
REMARK VINA RESULT:      -5.6      2.240      4.127
REMARK  Name = 
REMARK  3 active torsions:
REMARK  status: ('A' for Active; 'I' for Inactive)
REMARK    1  A    between atoms: N_1  and  S_2
REMARK    2  A    between atoms: S_2  and  C_5
REMARK    3  A    between atoms: C_9  and  N_10
REMARK                            x       y       z     vdW  Elec       q    Type
REMARK                         _______ _______ _______ _____ _____    ______ ____
ROOT
ATOM      1  C   UNL     1       3.883   3.996  18.982  0.00  0.00    +0.000 A 
ATOM      2  N   UNL     1       2.857   4.902  18.852  0.00  0.00    +0.000 N 
ATOM      3  C   UNL     1       3.351   6.002  18.214  0.00  0.00    +0.000 A 
ATOM      4  N   UNL     1       4.627   5.867  17.944  0.00  0.00    +0.000 NA
ATOM      5  C   UNL     1       4.970   4.636  18.434  0.00  0.00    +0.000 A 
ATOM      6  H   UNL     1       1.908   4.765  19.178  0.00  0.00    +0.000 HD
ENDROOT
BRANCH   5   7
ATOM      7  N   UNL     1       6.241   4.131  18.358  0.00  0.00    +0.000 N 
ATOM      8  C   UNL     1       7.201   4.626  17.529  0.00  0.00    +0.000 C 
ATOM      9  O   UNL     1       8.338   4.165  17.478  0.00  0.00    +0.000 OA
ATOM     10  H   UNL     1       6.505   3.352  18.955  0.00  0.00    +0.000 HD
ENDBRANCH   5   7
BRANCH   1  11
ATOM     11  S   UNL     1       3.642   2.436  19.709  0.00  0.00    +0.000 S 
ATOM     12  O   UNL     1       2.452   2.561  20.512  0.00  0.00    +0.000 OA
ATOM     13  O   UNL     1       4.928   2.048  20.231  0.00  0.00    +0.000 OA
BRANCH  11  14
ATOM     14  N   UNL     1       3.293   1.386  18.447  0.00  0.00    +0.000 NA
ATOM     15  H   UNL     1       3.955   0.606  18.475  0.00  0.00    +0.000 HD
ATOM     16  H   UNL     1       3.354   1.870  17.551  0.00  0.00    +0.000 HD
ENDBRANCH  11  14
ENDBRANCH   1  11
TORSDOF 3
ENDMDL
MODEL 7
REMARK VINA RESULT:      -5.6      2.326      3.149
REMARK  Name = 
REMARK  3 active torsions:
REMARK  status: ('A' for Active; 'I' for Inactive)
REMARK    1  A    between atoms: N_1  and  S_2
REMARK    2  A    between atoms: S_2  and  C_5
REMARK    3  A    between atoms: C_9  and  N_10
REMARK                            x       y       z     vdW  Elec       q    Type
REMARK                         _______ _______ _______ _____ _____    ______ ____
ROOT
ATOM      1  C   UNL     1       5.832   4.957  18.441  0.00  0.00    +0.000 A 
ATOM      2  N   UNL     1       4.897   5.357  19.365  0.00  0.00    +0.000 N 
ATOM      3  C   UNL     1       3.702   4.795  19.020  0.00  0.00    +0.000 A 
ATOM      4  N   UNL     1       3.808   4.080  17.927  0.00  0.00    +0.000 NA
ATOM      5  C   UNL     1       5.119   4.189  17.549  0.00  0.00    +0.000 A 
ATOM      6  H   UNL     1       5.076   5.962  20.157  0.00  0.00    +0.000 HD
ENDROOT
BRANCH   5   7
ATOM      7  N   UNL     1       5.626   3.587  16.428  0.00  0.00    +0.000 N 
ATOM      8  C   UNL     1       5.899   4.252  15.272  0.00  0.00    +0.000 C 
ATOM      9  O   UNL     1       6.359   3.697  14.278  0.00  0.00    +0.000 OA
ATOM     10  H   UNL     1       5.826   2.591  16.446  0.00  0.00    +0.000 HD
ENDBRANCH   5   7
BRANCH   1  11
ATOM     11  S   UNL     1       7.501   5.430  18.561  0.00  0.00    +0.000 S 
ATOM     12  O   UNL     1       7.554   6.789  18.088  0.00  0.00    +0.000 OA
ATOM     13  O   UNL     1       8.254   4.345  17.982  0.00  0.00    +0.000 OA
BRANCH  11  14
ATOM     14  N   UNL     1       7.859   5.449  20.200  0.00  0.00    +0.000 NA
ATOM     15  H   UNL     1       8.767   5.000  20.344  0.00  0.00    +0.000 HD
ATOM     16  H   UNL     1       7.136   4.962  20.731  0.00  0.00    +0.000 HD
ENDBRANCH  11  14
ENDBRANCH   1  11
TORSDOF 3
ENDMDL
MODEL 8
REMARK VINA RESULT:      -5.6      2.516      4.310
REMARK  Name = 
REMARK  3 active torsions:
REMARK  status: ('A' for Active; 'I' for Inactive)
REMARK    1  A    between atoms: N_1  and  S_2
REMARK    2  A    between atoms: S_2  and  C_5
REMARK    3  A    between atoms: C_9  and  N_10
REMARK                            x       y       z     vdW  Elec       q    Type
REMARK                         _______ _______ _______ _____ _____    ______ ____
ROOT
ATOM      1  C   UNL     1       5.856   4.429  18.514  0.00  0.00    +0.000 A 
ATOM      2  N   UNL     1       6.524   5.237  19.404  0.00  0.00    +0.000 N 
ATOM      3  C   UNL     1       7.579   5.799  18.747  0.00  0.00    +0.000 A 
ATOM      4  N   UNL     1       7.642   5.389  17.503  0.00  0.00    +0.000 NA
ATOM      5  C   UNL     1       6.591   4.525  17.355  0.00  0.00    +0.000 A 
ATOM      6  H   UNL     1       6.267   5.380  20.373  0.00  0.00    +0.000 HD
ENDROOT
BRANCH   5   7
ATOM      7  N   UNL     1       6.325   3.868  16.183  0.00  0.00    +0.000 N 
ATOM      8  C   UNL     1       6.596   4.382  14.951  0.00  0.00    +0.000 C 
ATOM      9  O   UNL     1       6.357   3.777  13.910  0.00  0.00    +0.000 OA
ATOM     10  H   UNL     1       5.916   2.939  16.214  0.00  0.00    +0.000 HD
ENDBRANCH   5   7
BRANCH   1  11
ATOM     11  S   UNL     1       4.416   3.564  18.962  0.00  0.00    +0.000 S 
ATOM     12  O   UNL     1       3.873   3.051  17.731  0.00  0.00    +0.000 OA
ATOM     13  O   UNL     1       3.700   4.440  19.855  0.00  0.00    +0.000 OA
BRANCH  11  14
ATOM     14  N   UNL     1       4.929   2.253  19.875  0.00  0.00    +0.000 NA
ATOM     15  H   UNL     1       5.925   2.098  19.699  0.00  0.00    +0.000 HD
ATOM     16  H   UNL     1       4.393   1.418  19.636  0.00  0.00    +0.000 HD
ENDBRANCH  11  14
ENDBRANCH   1  11
TORSDOF 3
ENDMDL
MODEL 9
REMARK VINA RESULT:      -5.6      2.129      2.536
REMARK  Name = 
REMARK  3 active torsions:
REMARK  status: ('A' for Active; 'I' for Inactive)
REMARK    1  A    between atoms: N_1  and  S_2
REMARK    2  A    between atoms: S_2  and  C_5
REMARK    3  A    between atoms: C_9  and  N_10
REMARK                            x       y       z     vdW  Elec       q    Type
REMARK                         _______ _______ _______ _____ _____    ______ ____
ROOT
ATOM      1  C   UNL     1       7.050   5.770  16.904  0.00  0.00    +0.000 A 
ATOM      2  N   UNL     1       7.712   6.966  17.053  0.00  0.00    +0.000 N 
ATOM      3  C   UNL     1       8.022   7.110  18.373  0.00  0.00    +0.000 A 
ATOM      4  N   UNL     1       7.586   6.096  19.081  0.00  0.00    +0.000 NA
ATOM      5  C   UNL     1       6.965   5.270  18.183  0.00  0.00    +0.000 A 
ATOM      6  H   UNL     1       7.924   7.616  16.305  0.00  0.00    +0.000 HD
ENDROOT
BRANCH   5   7
ATOM      7  N   UNL     1       6.359   4.096  18.545  0.00  0.00    +0.000 N 
ATOM      8  C   UNL     1       5.103   4.024  19.066  0.00  0.00    +0.000 C 
ATOM      9  O   UNL     1       4.572   2.963  19.379  0.00  0.00    +0.000 OA
ATOM     10  H   UNL     1       6.854   3.219  18.413  0.00  0.00    +0.000 HD
ENDBRANCH   5   7
BRANCH   1  11
ATOM     11  S   UNL     1       6.524   5.200  15.349  0.00  0.00    +0.000 S 
ATOM     12  O   UNL     1       7.696   5.216  14.512  0.00  0.00    +0.000 OA
ATOM     13  O   UNL     1       5.316   5.930  15.056  0.00  0.00    +0.000 OA
BRANCH  11  14
ATOM     14  N   UNL     1       6.080   3.597  15.570  0.00  0.00    +0.000 NA
ATOM     15  H   UNL     1       6.797   3.131  16.132  0.00  0.00    +0.000 HD
ATOM     16  H   UNL     1       5.974   3.126  14.670  0.00  0.00    +0.000 HD
ENDBRANCH  11  14
ENDBRANCH   1  11
TORSDOF 3
ENDMDL
