MODEL 1
REMARK VINA RESULT:      -7.5      0.000      0.000
REMARK  Name = 
REMARK  6 active torsions:
REMARK  status: ('A' for Active; 'I' for Inactive)
REMARK    1  A    between atoms: C_1  and  C_2
REMARK    2  A    between atoms: C_2  and  C_3
REMARK    3  A    between atoms: C_2  and  N_4
REMARK    4  A    between atoms: N_4  and  C_5
REMARK    5  A    between atoms: C_6  and  C_8
REMARK    6  A    between atoms: C_10  and  C_11
REMARK                            x       y       z     vdW  Elec       q    Type
REMARK                         _______ _______ _______ _____ _____    ______ ____
ROOT
ATOM      1  C   UNL     1       4.992   3.988  17.995  0.00  0.00    +0.000 A 
ATOM      2  N   UNL     1       5.758   5.051  18.311  0.00  0.00    +0.000 NA
ATOM      3  C   UNL     1       6.518   5.587  17.322  0.00  0.00    +0.000 A 
ATOM      4  C   UNL     1       6.556   5.031  16.023  0.00  0.00    +0.000 A 
ATOM      5  C   UNL     1       7.377   5.449  14.938  0.00  0.00    +0.000 A 
ATOM      6  C   UNL     1       7.205   4.935  13.658  0.00  0.00    +0.000 A 
ATOM      7 CL   UNL     1       8.109   5.578  12.346  0.00  0.00    +0.000 Cl
ATOM      8  C   UNL     1       6.281   3.928  13.444  0.00  0.00    +0.000 A 
ATOM      9  C   UNL     1       5.549   3.434  14.529  0.00  0.00    +0.000 A 
ATOM     10  C   UNL     1       5.667   3.966  15.807  0.00  0.00    +0.000 A 
ATOM     11  N   UNL     1       4.913   3.442  16.771  0.00  0.00    +0.000 NA
ENDROOT
BRANCH   3  12
ATOM     12  C   UNL     1       7.229   6.836  17.735  0.00  0.00    +0.000 A 
ATOM     13  C   UNL     1       8.168   6.821  18.786  0.00  0.00    +0.000 A 
ATOM     14  C   UNL     1       8.843   7.983  19.189  0.00  0.00    +0.000 A 
ATOM     15  C   UNL     1       8.610   9.185  18.531  0.00  0.00    +0.000 A 
ATOM     16 CL   UNL     1       9.457  10.606  18.996  0.00  0.00    +0.000 Cl
ATOM     17  C   UNL     1       7.678   9.243  17.504  0.00  0.00    +0.000 A 
ATOM     18  C   UNL     1       6.971   8.090  17.144  0.00  0.00    +0.000 A 
ENDBRANCH   3  12
BRANCH   1  21
ATOM     19  N   UNL     1       2.802   3.653  19.279  0.00  0.00    +0.000 N 
ATOM     20  C   UNL     1       2.091   4.600  18.430  0.00  0.00    +0.000 C 
ATOM     21  C   UNL     1       4.161   3.315  19.076  0.00  0.00    +0.000 C 
ATOM     22  O   UNL     1       4.709   2.448  19.764  0.00  0.00    +0.000 OA
BRANCH  19  24
ATOM     23  C   UNL     1       2.087   3.621  21.672  0.00  0.00    +0.000 C 
ATOM     24  C   UNL     1       2.036   2.921  20.313  0.00  0.00    +0.000 C 
ATOM     25  C   UNL     1       0.591   2.665  19.877  0.00  0.00    +0.000 C 
ENDBRANCH  19  24
ENDBRANCH   1  21
TORSDOF 3
ENDMDL
MODEL 2
REMARK VINA RESULT:      -6.9      4.015      6.147
REMARK  Name = 
REMARK  6 active torsions:
REMARK  status: ('A' for Active; 'I' for Inactive)
REMARK    1  A    between atoms: C_1  and  C_2
REMARK    2  A    between atoms: C_2  and  C_3
REMARK    3  A    between atoms: C_2  and  N_4
REMARK    4  A    between atoms: N_4  and  C_5
REMARK    5  A    between atoms: C_6  and  C_8
REMARK    6  A    between atoms: C_10  and  C_11
REMARK                            x       y       z     vdW  Elec       q    Type
REMARK                         _______ _______ _______ _____ _____    ______ ____
ROOT
ATOM      1  C   UNL     1       2.575   7.255  18.596  0.00  0.00    +0.000 A 
ATOM      2  N   UNL     1       3.515   6.966  17.676  0.00  0.00    +0.000 NA
ATOM      3  C   UNL     1       4.145   5.768  17.782  0.00  0.00    +0.000 A 
ATOM      4  C   UNL     1       3.872   4.871  18.840  0.00  0.00    +0.000 A 
ATOM      5  C   UNL     1       4.527   3.635  19.103  0.00  0.00    +0.000 A 
ATOM      6  C   UNL     1       4.060   2.759  20.076  0.00  0.00    +0.000 A 
ATOM      7 CL   UNL     1       4.783   1.211  20.256  0.00  0.00    +0.000 Cl
ATOM      8  C   UNL     1       2.991   3.129  20.872  0.00  0.00    +0.000 A 
ATOM      9  C   UNL     1       2.412   4.390  20.693  0.00  0.00    +0.000 A 
ATOM     10  C   UNL     1       2.830   5.262  19.695  0.00  0.00    +0.000 A 
ATOM     11  N   UNL     1       2.204   6.432  19.591  0.00  0.00    +0.000 NA
ENDROOT
BRANCH   3  12
ATOM     12  C   UNL     1       5.073   5.485  16.644  0.00  0.00    +0.000 A 
ATOM     13  C   UNL     1       4.691   4.627  15.594  0.00  0.00    +0.000 A 
ATOM     14  C   UNL     1       5.549   4.348  14.520  0.00  0.00    +0.000 A 
ATOM     15  C   UNL     1       6.805   4.943  14.461  0.00  0.00    +0.000 A 
ATOM     16 CL   UNL     1       7.849   4.633  13.132  0.00  0.00    +0.000 Cl
ATOM     17  C   UNL     1       7.224   5.778  15.487  0.00  0.00    +0.000 A 
ATOM     18  C   UNL     1       6.382   6.008  16.581  0.00  0.00    +0.000 A 
ENDBRANCH   3  12
BRANCH   1  21
ATOM     19  N   UNL     1       1.235   9.137  19.702  0.00  0.00    +0.000 N 
ATOM     20  C   UNL     1       1.263   8.473  20.999  0.00  0.00    +0.000 C 
ATOM     21  C   UNL     1       1.877   8.605  18.557  0.00  0.00    +0.000 C 
ATOM     22  O   UNL     1       1.903   9.234  17.495  0.00  0.00    +0.000 OA
BRANCH  19  24
ATOM     23  C   UNL     1      -0.856  10.415  19.218  0.00  0.00    +0.000 C 
ATOM     24  C   UNL     1       0.621  10.481  19.611  0.00  0.00    +0.000 C 
ATOM     25  C   UNL     1       0.816  11.283  20.899  0.00  0.00    +0.000 C 
ENDBRANCH  19  24
ENDBRANCH   1  21
TORSDOF 3
ENDMDL
MODEL 3
REMARK VINA RESULT:      -6.9      8.263     10.222
REMARK  Name = 
REMARK  6 active torsions:
REMARK  status: ('A' for Active; 'I' for Inactive)
REMARK    1  A    between atoms: C_1  and  C_2
REMARK    2  A    between atoms: C_2  and  C_3
REMARK    3  A    between atoms: C_2  and  N_4
REMARK    4  A    between atoms: N_4  and  C_5
REMARK    5  A    between atoms: C_6  and  C_8
REMARK    6  A    between atoms: C_10  and  C_11
REMARK                            x       y       z     vdW  Elec       q    Type
REMARK                         _______ _______ _______ _____ _____    ______ ____
ROOT
ATOM      1  C   UNL     1      -1.896  11.617  18.052  0.00  0.00    +0.000 A 
ATOM      2  N   UNL     1      -1.065  10.564  18.185  0.00  0.00    +0.000 NA
ATOM      3  C   UNL     1       0.189  10.813  18.640  0.00  0.00    +0.000 A 
ATOM      4  C   UNL     1       0.637  12.125  18.919  0.00  0.00    +0.000 A 
ATOM      5  C   UNL     1       1.948  12.514  19.313  0.00  0.00    +0.000 A 
ATOM      6  C   UNL     1       2.227  13.813  19.722  0.00  0.00    +0.000 A 
ATOM      7 CL   UNL     1       3.783  14.203  20.338  0.00  0.00    +0.000 Cl
ATOM      8  C   UNL     1       1.237  14.777  19.659  0.00  0.00    +0.000 A 
ATOM      9  C   UNL     1      -0.024  14.426  19.166  0.00  0.00    +0.000 A 
ATOM     10  C   UNL     1      -0.341  13.124  18.799  0.00  0.00    +0.000 A 
ATOM     11  N   UNL     1      -1.574  12.884  18.360  0.00  0.00    +0.000 NA
ENDROOT
BRANCH   3  12
ATOM     12  C   UNL     1       0.988   9.572  18.877  0.00  0.00    +0.000 A 
ATOM     13  C   UNL     1       1.029   8.969  20.150  0.00  0.00    +0.000 A 
ATOM     14  C   UNL     1       1.775   7.806  20.393  0.00  0.00    +0.000 A 
ATOM     15  C   UNL     1       2.481   7.204  19.356  0.00  0.00    +0.000 A 
ATOM     16 CL   UNL     1       3.370   5.761  19.636  0.00  0.00    +0.000 Cl
ATOM     17  C   UNL     1       2.481   7.781  18.094  0.00  0.00    +0.000 A 
ATOM     18  C   UNL     1       1.777   8.970  17.874  0.00  0.00    +0.000 A 
ENDBRANCH   3  12
BRANCH   1  21
ATOM     19  N   UNL     1      -4.446  11.706  18.259  0.00  0.00    +0.000 N 
ATOM     20  C   UNL     1      -4.376  12.306  19.585  0.00  0.00    +0.000 C 
ATOM     21  C   UNL     1      -3.294  11.404  17.494  0.00  0.00    +0.000 C 
ATOM     22  O   UNL     1      -3.393  10.972  16.342  0.00  0.00    +0.000 OA
BRANCH  19  24
ATOM     23  C   UNL     1      -6.743  10.769  18.549  0.00  0.00    +0.000 C 
ATOM     24  C   UNL     1      -5.778  11.526  17.636  0.00  0.00    +0.000 C 
ATOM     25  C   UNL     1      -6.377  12.859  17.180  0.00  0.00    +0.000 C 
ENDBRANCH  19  24
ENDBRANCH   1  21
TORSDOF 3
ENDMDL
MODEL 4
REMARK VINA RESULT:      -6.8      8.254     10.143
REMARK  Name = 
REMARK  6 active torsions:
REMARK  status: ('A' for Active; 'I' for Inactive)
REMARK    1  A    between atoms: C_1  and  C_2
REMARK    2  A    between atoms: C_2  and  C_3
REMARK    3  A    between atoms: C_2  and  N_4
REMARK    4  A    between atoms: N_4  and  C_5
REMARK    5  A    between atoms: C_6  and  C_8
REMARK    6  A    between atoms: C_10  and  C_11
REMARK                            x       y       z     vdW  Elec       q    Type
REMARK                         _______ _______ _______ _____ _____    ______ ____
ROOT
ATOM      1  C   UNL     1      -1.773  12.282  19.223  0.00  0.00    +0.000 A 
ATOM      2  N   UNL     1      -1.072  11.134  19.157  0.00  0.00    +0.000 NA
ATOM      3  C   UNL     1       0.265  11.231  18.940  0.00  0.00    +0.000 A 
ATOM      4  C   UNL     1       0.901  12.478  18.737  0.00  0.00    +0.000 A 
ATOM      5  C   UNL     1       2.270  12.697  18.415  0.00  0.00    +0.000 A 
ATOM      6  C   UNL     1       2.817  13.974  18.405  0.00  0.00    +0.000 A 
ATOM      7 CL   UNL     1       4.506  14.182  18.165  0.00  0.00    +0.000 Cl
ATOM      8  C   UNL     1       2.001  15.070  18.621  0.00  0.00    +0.000 A 
ATOM      9  C   UNL     1       0.632  14.868  18.828  0.00  0.00    +0.000 A 
ATOM     10  C   UNL     1       0.071  13.599  18.892  0.00  0.00    +0.000 A 
ATOM     11  N   UNL     1      -1.239  13.509  19.113  0.00  0.00    +0.000 NA
ENDROOT
BRANCH   3  12
ATOM     12  C   UNL     1       0.973   9.917  19.013  0.00  0.00    +0.000 A 
ATOM     13  C   UNL     1       1.068   9.212  20.229  0.00  0.00    +0.000 A 
ATOM     14  C   UNL     1       1.730   7.978  20.318  0.00  0.00    +0.000 A 
ATOM     15  C   UNL     1       2.294   7.409  19.182  0.00  0.00    +0.000 A 
ATOM     16 CL   UNL     1       3.077   5.883  19.275  0.00  0.00    +0.000 Cl
ATOM     17  C   UNL     1       2.239   8.083  17.970  0.00  0.00    +0.000 A 
ATOM     18  C   UNL     1       1.622   9.338  17.902  0.00  0.00    +0.000 A 
ENDBRANCH   3  12
BRANCH   1  21
ATOM     19  N   UNL     1      -4.142  11.840  18.356  0.00  0.00    +0.000 N 
ATOM     20  C   UNL     1      -3.647  11.395  17.060  0.00  0.00    +0.000 C 
ATOM     21  C   UNL     1      -3.281  12.230  19.410  0.00  0.00    +0.000 C 
ATOM     22  O   UNL     1      -3.732  12.523  20.522  0.00  0.00    +0.000 OA
BRANCH  19  24
ATOM     23  C   UNL     1      -6.411  12.591  17.629  0.00  0.00    +0.000 C 
ATOM     24  C   UNL     1      -5.597  11.759  18.621  0.00  0.00    +0.000 C 
ATOM     25  C   UNL     1      -6.087  10.310  18.661  0.00  0.00    +0.000 C 
ENDBRANCH  19  24
ENDBRANCH   1  21
TORSDOF 3
ENDMDL
MODEL 5
REMARK VINA RESULT:      -6.8      8.394     10.292
REMARK  Name = 
REMARK  6 active torsions:
REMARK  status: ('A' for Active; 'I' for Inactive)
REMARK    1  A    between atoms: C_1  and  C_2
REMARK    2  A    between atoms: C_2  and  C_3
REMARK    3  A    between atoms: C_2  and  N_4
REMARK    4  A    between atoms: N_4  and  C_5
REMARK    5  A    between atoms: C_6  and  C_8
REMARK    6  A    between atoms: C_10  and  C_11
REMARK                            x       y       z     vdW  Elec       q    Type
REMARK                         _______ _______ _______ _____ _____    ______ ____
ROOT
ATOM      1  C   UNL     1      -1.824  12.370  19.556  0.00  0.00    +0.000 A 
ATOM      2  N   UNL     1      -1.130  11.221  19.444  0.00  0.00    +0.000 NA
ATOM      3  C   UNL     1       0.189  11.317  19.135  0.00  0.00    +0.000 A 
ATOM      4  C   UNL     1       0.811  12.562  18.887  0.00  0.00    +0.000 A 
ATOM      5  C   UNL     1       2.154  12.778  18.470  0.00  0.00    +0.000 A 
ATOM      6  C   UNL     1       2.701  14.055  18.420  0.00  0.00    +0.000 A 
ATOM      7 CL   UNL     1       4.370  14.260  18.064  0.00  0.00    +0.000 Cl
ATOM      8  C   UNL     1       1.903  15.152  18.689  0.00  0.00    +0.000 A 
ATOM      9  C   UNL     1       0.552  14.953  18.990  0.00  0.00    +0.000 A 
ATOM     10  C   UNL     1      -0.005  13.684  19.095  0.00  0.00    +0.000 A 
ATOM     11  N   UNL     1      -1.297  13.597  19.406  0.00  0.00    +0.000 NA
ENDROOT
BRANCH   3  12
ATOM     12  C   UNL     1       0.899  10.001  19.163  0.00  0.00    +0.000 A 
ATOM     13  C   UNL     1       1.477   9.466  17.994  0.00  0.00    +0.000 A 
ATOM     14  C   UNL     1       2.144   8.232  18.000  0.00  0.00    +0.000 A 
ATOM     15  C   UNL     1       2.270   7.515  19.184  0.00  0.00    +0.000 A 
ATOM     16 CL   UNL     1       3.115   6.020  19.207  0.00  0.00    +0.000 Cl
ATOM     17  C   UNL     1       1.696   8.001  20.351  0.00  0.00    +0.000 A 
ATOM     18  C   UNL     1       0.987   9.206  20.325  0.00  0.00    +0.000 A 
ENDBRANCH   3  12
BRANCH   1  21
ATOM     19  N   UNL     1      -4.249  11.957  18.846  0.00  0.00    +0.000 N 
ATOM     20  C   UNL     1      -3.848  11.537  17.510  0.00  0.00    +0.000 C 
ATOM     21  C   UNL     1      -3.315  12.321  19.846  0.00  0.00    +0.000 C 
ATOM     22  O   UNL     1      -3.686  12.592  20.992  0.00  0.00    +0.000 OA
BRANCH  19  24
ATOM     23  C   UNL     1      -6.442  13.154  18.850  0.00  0.00    +0.000 C 
ATOM     24  C   UNL     1      -5.682  11.876  19.210  0.00  0.00    +0.000 C 
ATOM     25  C   UNL     1      -6.355  10.643  18.602  0.00  0.00    +0.000 C 
ENDBRANCH  19  24
ENDBRANCH   1  21
TORSDOF 3
ENDMDL
MODEL 6
REMARK VINA RESULT:      -6.6      3.924      6.172
REMARK  Name = 
REMARK  6 active torsions:
REMARK  status: ('A' for Active; 'I' for Inactive)
REMARK    1  A    between atoms: C_1  and  C_2
REMARK    2  A    between atoms: C_2  and  C_3
REMARK    3  A    between atoms: C_2  and  N_4
REMARK    4  A    between atoms: N_4  and  C_5
REMARK    5  A    between atoms: C_6  and  C_8
REMARK    6  A    between atoms: C_10  and  C_11
REMARK                            x       y       z     vdW  Elec       q    Type
REMARK                         _______ _______ _______ _____ _____    ______ ____
ROOT
ATOM      1  C   UNL     1       2.324   6.840  19.754  0.00  0.00    +0.000 A 
ATOM      2  N   UNL     1       3.247   6.730  18.779  0.00  0.00    +0.000 NA
ATOM      3  C   UNL     1       3.925   5.557  18.692  0.00  0.00    +0.000 A 
ATOM      4  C   UNL     1       3.719   4.504  19.613  0.00  0.00    +0.000 A 
ATOM      5  C   UNL     1       4.430   3.273  19.676  0.00  0.00    +0.000 A 
ATOM      6  C   UNL     1       4.026   2.244  20.519  0.00  0.00    +0.000 A 
ATOM      7 CL   UNL     1       4.814   0.719  20.451  0.00  0.00    +0.000 Cl
ATOM      8  C   UNL     1       2.968   2.447  21.386  0.00  0.00    +0.000 A 
ATOM      9  C   UNL     1       2.336   3.695  21.409  0.00  0.00    +0.000 A 
ATOM     10  C   UNL     1       2.689   4.721  20.541  0.00  0.00    +0.000 A 
ATOM     11  N   UNL     1       2.015   5.865  20.625  0.00  0.00    +0.000 NA
ENDROOT
BRANCH   3  12
ATOM     12  C   UNL     1       4.830   5.484  17.504  0.00  0.00    +0.000 A 
ATOM     13  C   UNL     1       4.511   4.668  16.400  0.00  0.00    +0.000 A 
ATOM     14  C   UNL     1       5.349   4.585  15.278  0.00  0.00    +0.000 A 
ATOM     15  C   UNL     1       6.516   5.338  15.224  0.00  0.00    +0.000 A 
ATOM     16 CL   UNL     1       7.530   5.268  13.839  0.00  0.00    +0.000 Cl
ATOM     17  C   UNL     1       6.874   6.137  16.301  0.00  0.00    +0.000 A 
ATOM     18  C   UNL     1       6.059   6.173  17.439  0.00  0.00    +0.000 A 
ENDBRANCH   3  12
BRANCH   1  21
ATOM     19  N   UNL     1       1.482   9.096  18.881  0.00  0.00    +0.000 N 
ATOM     20  C   UNL     1       2.027   8.850  17.552  0.00  0.00    +0.000 C 
ATOM     21  C   UNL     1       1.573   8.150  19.931  0.00  0.00    +0.000 C 
ATOM     22  O   UNL     1       1.029   8.357  21.020  0.00  0.00    +0.000 OA
BRANCH  19  24
ATOM     23  C   UNL     1       1.480  11.591  18.758  0.00  0.00    +0.000 C 
ATOM     24  C   UNL     1       0.690  10.327  19.103  0.00  0.00    +0.000 C 
ATOM     25  C   UNL     1      -0.645  10.288  18.354  0.00  0.00    +0.000 C 
ENDBRANCH  19  24
ENDBRANCH   1  21
TORSDOF 3
ENDMDL
MODEL 7
REMARK VINA RESULT:      -6.6      4.177      6.826
REMARK  Name = 
REMARK  6 active torsions:
REMARK  status: ('A' for Active; 'I' for Inactive)
REMARK    1  A    between atoms: C_1  and  C_2
REMARK    2  A    between atoms: C_2  and  C_3
REMARK    3  A    between atoms: C_2  and  N_4
REMARK    4  A    between atoms: N_4  and  C_5
REMARK    5  A    between atoms: C_6  and  C_8
REMARK    6  A    between atoms: C_10  and  C_11
REMARK                            x       y       z     vdW  Elec       q    Type
REMARK                         _______ _______ _______ _____ _____    ______ ____
ROOT
ATOM      1  C   UNL     1       4.506   5.518  16.772  0.00  0.00    +0.000 A 
ATOM      2  N   UNL     1       3.725   6.504  17.255  0.00  0.00    +0.000 NA
ATOM      3  C   UNL     1       2.993   6.233  18.366  0.00  0.00    +0.000 A 
ATOM      4  C   UNL     1       3.001   4.956  18.973  0.00  0.00    +0.000 A 
ATOM      5  C   UNL     1       2.213   4.531  20.080  0.00  0.00    +0.000 A 
ATOM      6  C   UNL     1       2.429   3.304  20.695  0.00  0.00    +0.000 A 
ATOM      7 CL   UNL     1       1.565   2.896  22.123  0.00  0.00    +0.000 Cl
ATOM      8  C   UNL     1       3.365   2.431  20.170  0.00  0.00    +0.000 A 
ATOM      9  C   UNL     1       4.064   2.797  19.015  0.00  0.00    +0.000 A 
ATOM     10  C   UNL     1       3.902   4.038  18.412  0.00  0.00    +0.000 A 
ATOM     11  N   UNL     1       4.627   4.301  17.327  0.00  0.00    +0.000 NA
ENDROOT
BRANCH   3  12
ATOM     12  C   UNL     1       2.263   7.424  18.898  0.00  0.00    +0.000 A 
ATOM     13  C   UNL     1       1.925   8.502  18.055  0.00  0.00    +0.000 A 
ATOM     14  C   UNL     1       1.243   9.630  18.536  0.00  0.00    +0.000 A 
ATOM     15  C   UNL     1       0.860   9.693  19.872  0.00  0.00    +0.000 A 
ATOM     16 CL   UNL     1      -0.006  11.054  20.462  0.00  0.00    +0.000 Cl
ATOM     17  C   UNL     1       1.193   8.659  20.736  0.00  0.00    +0.000 A 
ATOM     18  C   UNL     1       1.920   7.563  20.259  0.00  0.00    +0.000 A 
ENDBRANCH   3  12
BRANCH   1  21
ATOM     19  N   UNL     1       5.983   4.688  14.852  0.00  0.00    +0.000 N 
ATOM     20  C   UNL     1       5.902   3.308  15.310  0.00  0.00    +0.000 C 
ATOM     21  C   UNL     1       5.304   5.749  15.499  0.00  0.00    +0.000 C 
ATOM     22  O   UNL     1       5.328   6.894  15.036  0.00  0.00    +0.000 OA
BRANCH  19  24
ATOM     23  C   UNL     1       8.172   5.306  13.819  0.00  0.00    +0.000 C 
ATOM     24  C   UNL     1       6.697   4.972  13.586  0.00  0.00    +0.000 C 
ATOM     25  C   UNL     1       6.541   3.831  12.578  0.00  0.00    +0.000 C 
ENDBRANCH  19  24
ENDBRANCH   1  21
TORSDOF 3
ENDMDL
MODEL 8
REMARK VINA RESULT:      -6.5      0.945      1.168
REMARK  Name = 
REMARK  6 active torsions:
REMARK  status: ('A' for Active; 'I' for Inactive)
REMARK    1  A    between atoms: C_1  and  C_2
REMARK    2  A    between atoms: C_2  and  C_3
REMARK    3  A    between atoms: C_2  and  N_4
REMARK    4  A    between atoms: N_4  and  C_5
REMARK    5  A    between atoms: C_6  and  C_8
REMARK    6  A    between atoms: C_10  and  C_11
REMARK                            x       y       z     vdW  Elec       q    Type
REMARK                         _______ _______ _______ _____ _____    ______ ____
ROOT
ATOM      1  C   UNL     1       4.153   4.571  17.721  0.00  0.00    +0.000 A 
ATOM      2  N   UNL     1       5.063   5.486  18.106  0.00  0.00    +0.000 NA
ATOM      3  C   UNL     1       6.042   5.804  17.220  0.00  0.00    +0.000 A 
ATOM      4  C   UNL     1       6.144   5.170  15.960  0.00  0.00    +0.000 A 
ATOM      5  C   UNL     1       7.171   5.355  14.992  0.00  0.00    +0.000 A 
ATOM      6  C   UNL     1       7.076   4.804  13.720  0.00  0.00    +0.000 A 
ATOM      7 CL   UNL     1       8.258   5.179  12.531  0.00  0.00    +0.000 Cl
ATOM      8  C   UNL     1       6.009   3.979  13.410  0.00  0.00    +0.000 A 
ATOM      9  C   UNL     1       5.054   3.703  14.394  0.00  0.00    +0.000 A 
ATOM     10  C   UNL     1       5.101   4.283  15.656  0.00  0.00    +0.000 A 
ATOM     11  N   UNL     1       4.135   3.974  16.518  0.00  0.00    +0.000 NA
ENDROOT
BRANCH   3  12
ATOM     12  C   UNL     1       6.922   6.918  17.687  0.00  0.00    +0.000 A 
ATOM     13  C   UNL     1       7.884   6.707  18.696  0.00  0.00    +0.000 A 
ATOM     14  C   UNL     1       8.717   7.741  19.149  0.00  0.00    +0.000 A 
ATOM     15  C   UNL     1       8.623   9.008  18.584  0.00  0.00    +0.000 A 
ATOM     16 CL   UNL     1       9.663  10.270  19.109  0.00  0.00    +0.000 Cl
ATOM     17  C   UNL     1       7.674   9.259  17.602  0.00  0.00    +0.000 A 
ATOM     18  C   UNL     1       6.811   8.235  17.194  0.00  0.00    +0.000 A 
ENDBRANCH   3  12
BRANCH   1  21
ATOM     19  N   UNL     1       3.230   2.999  19.520  0.00  0.00    +0.000 N 
ATOM     20  C   UNL     1       4.461   2.221  19.553  0.00  0.00    +0.000 C 
ATOM     21  C   UNL     1       3.067   4.137  18.693  0.00  0.00    +0.000 C 
ATOM     22  O   UNL     1       2.041   4.821  18.750  0.00  0.00    +0.000 OA
BRANCH  19  24
ATOM     23  C   UNL     1       2.168   3.586  21.703  0.00  0.00    +0.000 C 
ATOM     24  C   UNL     1       2.156   2.664  20.483  0.00  0.00    +0.000 C 
ATOM     25  C   UNL     1       0.779   2.647  19.815  0.00  0.00    +0.000 C 
ENDBRANCH  19  24
ENDBRANCH   1  21
TORSDOF 3
ENDMDL
MODEL 9
REMARK VINA RESULT:      -6.4      7.883     10.166
REMARK  Name = 
REMARK  6 active torsions:
REMARK  status: ('A' for Active; 'I' for Inactive)
REMARK    1  A    between atoms: C_1  and  C_2
REMARK    2  A    between atoms: C_2  and  C_3
REMARK    3  A    between atoms: C_2  and  N_4
REMARK    4  A    between atoms: N_4  and  C_5
REMARK    5  A    between atoms: C_6  and  C_8
REMARK    6  A    between atoms: C_10  and  C_11
REMARK                            x       y       z     vdW  Elec       q    Type
REMARK                         _______ _______ _______ _____ _____    ______ ____
ROOT
ATOM      1  C   UNL     1       1.273  10.031  18.350  0.00  0.00    +0.000 A 
ATOM      2  N   UNL     1      -0.065  10.194  18.326  0.00  0.00    +0.000 NA
ATOM      3  C   UNL     1      -0.542  11.459  18.451  0.00  0.00    +0.000 A 
ATOM      4  C   UNL     1       0.316  12.565  18.649  0.00  0.00    +0.000 A 
ATOM      5  C   UNL     1      -0.071  13.915  18.880  0.00  0.00    +0.000 A 
ATOM      6  C   UNL     1       0.862  14.945  18.895  0.00  0.00    +0.000 A 
ATOM      7 CL   UNL     1       0.339  16.577  19.020  0.00  0.00    +0.000 Cl
ATOM      8  C   UNL     1       2.208  14.649  18.775  0.00  0.00    +0.000 A 
ATOM      9  C   UNL     1       2.604  13.312  18.660  0.00  0.00    +0.000 A 
ATOM     10  C   UNL     1       1.687  12.271  18.593  0.00  0.00    +0.000 A 
ATOM     11  N   UNL     1       2.160  11.033  18.464  0.00  0.00    +0.000 NA
ENDROOT
BRANCH   3  12
ATOM     12  C   UNL     1      -2.024  11.550  18.282  0.00  0.00    +0.000 A 
ATOM     13  C   UNL     1      -2.636  11.214  17.058  0.00  0.00    +0.000 A 
ATOM     14  C   UNL     1      -4.025  11.296  16.880  0.00  0.00    +0.000 A 
ATOM     15  C   UNL     1      -4.839  11.695  17.934  0.00  0.00    +0.000 A 
ATOM     16 CL   UNL     1      -6.544  11.765  17.735  0.00  0.00    +0.000 Cl
ATOM     17  C   UNL     1      -4.271  12.053  19.149  0.00  0.00    +0.000 A 
ATOM     18  C   UNL     1      -2.880  12.020  19.301  0.00  0.00    +0.000 A 
ENDBRANCH   3  12
BRANCH   1  21
ATOM     19  N   UNL     1       1.959   7.807  19.416  0.00  0.00    +0.000 N 
ATOM     20  C   UNL     1       1.442   8.206  20.719  0.00  0.00    +0.000 C 
ATOM     21  C   UNL     1       1.860   8.631  18.270  0.00  0.00    +0.000 C 
ATOM     22  O   UNL     1       2.234   8.228  17.164  0.00  0.00    +0.000 OA
BRANCH  19  24
ATOM     23  C   UNL     1       4.020   6.411  19.205  0.00  0.00    +0.000 C 
ATOM     24  C   UNL     1       2.491   6.434  19.258  0.00  0.00    +0.000 C 
ATOM     25  C   UNL     1       1.961   5.491  20.341  0.00  0.00    +0.000 C 
ENDBRANCH  19  24
ENDBRANCH   1  21
TORSDOF 3
ENDMDL
