MODEL 1
REMARK VINA RESULT:      -7.6      0.000      0.000
REMARK  Name = 
REMARK  11 active torsions:
REMARK  status: ('A' for Active; 'I' for Inactive)
REMARK    1  A    between atoms: C_1  and  C_2
REMARK    2  A    between atoms: N_4  and  C_5
REMARK    3  A    between atoms: C_8  and  C_9
REMARK    4  A    between atoms: C_9  and  O_11
REMARK    5  A    between atoms: C_22  and  N_23
REMARK    6  A    between atoms: N_23  and  C_24
REMARK    7  A    between atoms: C_24  and  C_25
REMARK    8  A    between atoms: C_25  and  C_26
REMARK    9  A    between atoms: C_26  and  N_27
REMARK   10  A    between atoms: N_27  and  C_28
REMARK   11  A    between atoms: N_27  and  C_29
REMARK                            x       y       z     vdW  Elec       q    Type
REMARK                         _______ _______ _______ _____ _____    ______ ____
ROOT
ATOM      1  C   UNL     1       4.949   7.210  16.358  0.00  0.00    +0.000 C 
ATOM      2  C   UNL     1       3.939   6.884  17.396  0.00  0.00    +0.000 A 
ATOM      3  N   UNL     1       2.926   7.768  17.400  0.00  0.00    +0.000 NA
ATOM      4  N   UNL     1       2.292   7.503  18.548  0.00  0.00    +0.000 N 
ATOM      5  C   UNL     1       2.494   6.194  18.914  0.00  0.00    +0.000 A 
ATOM      6  N   UNL     1       1.689   5.498  19.726  0.00  0.00    +0.000 NA
ATOM      7  C   UNL     1       2.157   4.343  20.137  0.00  0.00    +0.000 A 
ATOM      8  C   UNL     1       1.282   3.624  20.940  0.00  0.00    +0.000 A 
ATOM      9  C   UNL     1       1.649   2.428  21.545  0.00  0.00    +0.000 A 
ATOM     10  C   UNL     1       2.935   1.953  21.340  0.00  0.00    +0.000 A 
ATOM     11  C   UNL     1       3.820   2.659  20.508  0.00  0.00    +0.000 A 
ATOM     12  C   UNL     1       3.456   3.870  19.850  0.00  0.00    +0.000 A 
ATOM     13  C   UNL     1       4.309   4.639  18.931  0.00  0.00    +0.000 A 
ATOM     14  C   UNL     1       3.737   5.835  18.382  0.00  0.00    +0.000 A 
ENDROOT
BRANCH   4  15
ATOM     15  C   UNL     1       1.754   8.565  19.320  0.00  0.00    +0.000 A 
ATOM     16  C   UNL     1       1.461   8.335  20.671  0.00  0.00    +0.000 A 
ATOM     17  C   UNL     1       0.771   9.293  21.398  0.00  0.00    +0.000 A 
ATOM     18  C   UNL     1       0.352  10.483  20.791  0.00  0.00    +0.000 A 
ATOM     19  C   UNL     1       0.665  10.727  19.447  0.00  0.00    +0.000 A 
ATOM     20  C   UNL     1       1.361   9.766  18.711  0.00  0.00    +0.000 A 
BRANCH  18  21
ATOM     21  C   UNL     1      -0.388  11.474  21.613  0.00  0.00    +0.000 C 
ATOM     22  O   UNL     1      -0.261  11.527  22.823  0.00  0.00    +0.000 OA
BRANCH  21  23
ATOM     23  O   UNL     1      -1.247  12.247  20.917  0.00  0.00    +0.000 OA
ATOM     24  H   UNL     1      -1.113  12.252  19.950  0.00  0.00    +0.000 HD
ENDBRANCH  21  23
ENDBRANCH  18  21
ENDBRANCH   4  15
BRANCH  13  25
ATOM     25  N   UNL     1       5.593   4.130  18.703  0.00  0.00    +0.000 N 
ATOM     26  H   UNL     1       5.693   3.127  18.800  0.00  0.00    +0.000 HD
BRANCH  25  27
ATOM     27  C   UNL     1       6.821   4.858  18.434  0.00  0.00    +0.000 C 
BRANCH  27  28
ATOM     28  C   UNL     1       7.315   4.669  16.996  0.00  0.00    +0.000 C 
BRANCH  28  29
ATOM     29  C   UNL     1       6.304   3.893  16.124  0.00  0.00    +0.000 C 
BRANCH  29  30
ATOM     30  N   UNL     1       6.542   3.987  14.673  0.00  0.00    +0.000 NA
ATOM     31  C   UNL     1       5.292   4.100  13.917  0.00  0.00    +0.000 C 
ATOM     32  C   UNL     1       7.405   5.134  14.369  0.00  0.00    +0.000 C 
ENDBRANCH  29  30
ENDBRANCH  28  29
ENDBRANCH  27  28
ENDBRANCH  25  27
ENDBRANCH  13  25
TORSDOF 8
ENDMDL
MODEL 2
REMARK VINA RESULT:      -7.6      0.633      1.042
REMARK  Name = 
REMARK  11 active torsions:
REMARK  status: ('A' for Active; 'I' for Inactive)
REMARK    1  A    between atoms: C_1  and  C_2
REMARK    2  A    between atoms: N_4  and  C_5
REMARK    3  A    between atoms: C_8  and  C_9
REMARK    4  A    between atoms: C_9  and  O_11
REMARK    5  A    between atoms: C_22  and  N_23
REMARK    6  A    between atoms: N_23  and  C_24
REMARK    7  A    between atoms: C_24  and  C_25
REMARK    8  A    between atoms: C_25  and  C_26
REMARK    9  A    between atoms: C_26  and  N_27
REMARK   10  A    between atoms: N_27  and  C_28
REMARK   11  A    between atoms: N_27  and  C_29
REMARK                            x       y       z     vdW  Elec       q    Type
REMARK                         _______ _______ _______ _____ _____    ______ ____
ROOT
ATOM      1  C   UNL     1       5.134   7.451  16.639  0.00  0.00    +0.000 C 
ATOM      2  C   UNL     1       4.030   7.112  17.571  0.00  0.00    +0.000 A 
ATOM      3  N   UNL     1       2.998   7.965  17.453  0.00  0.00    +0.000 NA
ATOM      4  N   UNL     1       2.255   7.700  18.534  0.00  0.00    +0.000 N 
ATOM      5  C   UNL     1       2.453   6.403  18.943  0.00  0.00    +0.000 A 
ATOM      6  N   UNL     1       1.587   5.696  19.679  0.00  0.00    +0.000 NA
ATOM      7  C   UNL     1       2.041   4.562  20.158  0.00  0.00    +0.000 A 
ATOM      8  C   UNL     1       1.106   3.830  20.878  0.00  0.00    +0.000 A 
ATOM      9  C   UNL     1       1.440   2.654  21.539  0.00  0.00    +0.000 A 
ATOM     10  C   UNL     1       2.753   2.214  21.478  0.00  0.00    +0.000 A 
ATOM     11  C   UNL     1       3.700   2.933  20.730  0.00  0.00    +0.000 A 
ATOM     12  C   UNL     1       3.375   4.123  20.016  0.00  0.00    +0.000 A 
ATOM     13  C   UNL     1       4.298   4.902  19.178  0.00  0.00    +0.000 A 
ATOM     14  C   UNL     1       3.754   6.072  18.550  0.00  0.00    +0.000 A 
ENDROOT
BRANCH   4  15
ATOM     15  C   UNL     1       1.611   8.757  19.226  0.00  0.00    +0.000 A 
ATOM     16  C   UNL     1       1.285   8.579  20.577  0.00  0.00    +0.000 A 
ATOM     17  C   UNL     1       0.497   9.518  21.225  0.00  0.00    +0.000 A 
ATOM     18  C   UNL     1       0.014  10.639  20.538  0.00  0.00    +0.000 A 
ATOM     19  C   UNL     1       0.358  10.833  19.194  0.00  0.00    +0.000 A 
ATOM     20  C   UNL     1       1.152   9.890  18.537  0.00  0.00    +0.000 A 
BRANCH  18  21
ATOM     21  C   UNL     1      -0.828  11.612  21.278  0.00  0.00    +0.000 C 
ATOM     22  O   UNL     1      -1.940  11.924  20.892  0.00  0.00    +0.000 OA
BRANCH  21  23
ATOM     23  O   UNL     1      -0.231  12.160  22.358  0.00  0.00    +0.000 OA
ATOM     24  H   UNL     1       0.742  12.094  22.373  0.00  0.00    +0.000 HD
ENDBRANCH  21  23
ENDBRANCH  18  21
ENDBRANCH   4  15
BRANCH  13  25
ATOM     25  N   UNL     1       5.612   4.427  19.094  0.00  0.00    +0.000 N 
ATOM     26  H   UNL     1       5.713   3.443  18.876  0.00  0.00    +0.000 HD
BRANCH  25  27
ATOM     27  C   UNL     1       6.851   5.136  19.366  0.00  0.00    +0.000 C 
BRANCH  27  28
ATOM     28  C   UNL     1       7.600   5.525  18.087  0.00  0.00    +0.000 C 
BRANCH  28  29
ATOM     29  C   UNL     1       7.494   4.442  16.991  0.00  0.00    +0.000 C 
BRANCH  29  30
ATOM     30  N   UNL     1       6.495   4.722  15.944  0.00  0.00    +0.000 NA
ATOM     31  C   UNL     1       7.115   4.923  14.633  0.00  0.00    +0.000 C 
ATOM     32  C   UNL     1       5.518   3.629  15.864  0.00  0.00    +0.000 C 
ENDBRANCH  29  30
ENDBRANCH  28  29
ENDBRANCH  27  28
ENDBRANCH  25  27
ENDBRANCH  13  25
TORSDOF 8
ENDMDL
MODEL 3
REMARK VINA RESULT:      -7.5      0.604      1.232
REMARK  Name = 
REMARK  11 active torsions:
REMARK  status: ('A' for Active; 'I' for Inactive)
REMARK    1  A    between atoms: C_1  and  C_2
REMARK    2  A    between atoms: N_4  and  C_5
REMARK    3  A    between atoms: C_8  and  C_9
REMARK    4  A    between atoms: C_9  and  O_11
REMARK    5  A    between atoms: C_22  and  N_23
REMARK    6  A    between atoms: N_23  and  C_24
REMARK    7  A    between atoms: C_24  and  C_25
REMARK    8  A    between atoms: C_25  and  C_26
REMARK    9  A    between atoms: C_26  and  N_27
REMARK   10  A    between atoms: N_27  and  C_28
REMARK   11  A    between atoms: N_27  and  C_29
REMARK                            x       y       z     vdW  Elec       q    Type
REMARK                         _______ _______ _______ _____ _____    ______ ____
ROOT
ATOM      1  C   UNL     1       5.168   7.471  16.681  0.00  0.00    +0.000 C 
ATOM      2  C   UNL     1       4.057   7.102  17.595  0.00  0.00    +0.000 A 
ATOM      3  N   UNL     1       3.007   7.930  17.461  0.00  0.00    +0.000 NA
ATOM      4  N   UNL     1       2.254   7.644  18.529  0.00  0.00    +0.000 N 
ATOM      5  C   UNL     1       2.477   6.352  18.939  0.00  0.00    +0.000 A 
ATOM      6  N   UNL     1       1.617   5.622  19.660  0.00  0.00    +0.000 NA
ATOM      7  C   UNL     1       2.091   4.499  20.144  0.00  0.00    +0.000 A 
ATOM      8  C   UNL     1       1.162   3.742  20.848  0.00  0.00    +0.000 A 
ATOM      9  C   UNL     1       1.515   2.574  21.513  0.00  0.00    +0.000 A 
ATOM     10  C   UNL     1       2.840   2.167  21.473  0.00  0.00    +0.000 A 
ATOM     11  C   UNL     1       3.781   2.910  20.742  0.00  0.00    +0.000 A 
ATOM     12  C   UNL     1       3.437   4.093  20.024  0.00  0.00    +0.000 A 
ATOM     13  C   UNL     1       4.355   4.896  19.202  0.00  0.00    +0.000 A 
ATOM     14  C   UNL     1       3.792   6.054  18.567  0.00  0.00    +0.000 A 
ENDROOT
BRANCH   4  15
ATOM     15  C   UNL     1       1.571   8.684  19.212  0.00  0.00    +0.000 A 
ATOM     16  C   UNL     1       1.322   9.885  18.534  0.00  0.00    +0.000 A 
ATOM     17  C   UNL     1       0.822  10.976  19.228  0.00  0.00    +0.000 A 
ATOM     18  C   UNL     1       0.576  10.893  20.604  0.00  0.00    +0.000 A 
ATOM     19  C   UNL     1       0.801   9.687  21.280  0.00  0.00    +0.000 A 
ATOM     20  C   UNL     1       1.303   8.584  20.586  0.00  0.00    +0.000 A 
BRANCH  18  21
ATOM     21  C   UNL     1       0.045  12.092  21.300  0.00  0.00    +0.000 C 
ATOM     22  O   UNL     1      -0.151  13.141  20.715  0.00  0.00    +0.000 OA
BRANCH  21  23
ATOM     23  O   UNL     1      -0.131  11.934  22.630  0.00  0.00    +0.000 OA
ATOM     24  H   UNL     1      -0.183  11.009  22.935  0.00  0.00    +0.000 HD
ENDBRANCH  21  23
ENDBRANCH  18  21
ENDBRANCH   4  15
BRANCH  13  25
ATOM     25  N   UNL     1       5.681   4.455  19.139  0.00  0.00    +0.000 N 
ATOM     26  H   UNL     1       5.852   3.518  19.486  0.00  0.00    +0.000 HD
BRANCH  25  27
ATOM     27  C   UNL     1       6.863   5.193  18.727  0.00  0.00    +0.000 C 
BRANCH  27  28
ATOM     28  C   UNL     1       7.637   4.488  17.608  0.00  0.00    +0.000 C 
BRANCH  28  29
ATOM     29  C   UNL     1       7.251   5.011  16.207  0.00  0.00    +0.000 C 
BRANCH  29  30
ATOM     30  N   UNL     1       6.545   4.035  15.358  0.00  0.00    +0.000 NA
ATOM     31  C   UNL     1       5.134   3.904  15.729  0.00  0.00    +0.000 C 
ATOM     32  C   UNL     1       6.649   4.416  13.945  0.00  0.00    +0.000 C 
ENDBRANCH  29  30
ENDBRANCH  28  29
ENDBRANCH  27  28
ENDBRANCH  25  27
ENDBRANCH  13  25
TORSDOF 8
ENDMDL
MODEL 4
REMARK VINA RESULT:      -7.3      1.359      1.737
REMARK  Name = 
REMARK  11 active torsions:
REMARK  status: ('A' for Active; 'I' for Inactive)
REMARK    1  A    between atoms: C_1  and  C_2
REMARK    2  A    between atoms: N_4  and  C_5
REMARK    3  A    between atoms: C_8  and  C_9
REMARK    4  A    between atoms: C_9  and  O_11
REMARK    5  A    between atoms: C_22  and  N_23
REMARK    6  A    between atoms: N_23  and  C_24
REMARK    7  A    between atoms: C_24  and  C_25
REMARK    8  A    between atoms: C_25  and  C_26
REMARK    9  A    between atoms: C_26  and  N_27
REMARK   10  A    between atoms: N_27  and  C_28
REMARK   11  A    between atoms: N_27  and  C_29
REMARK                            x       y       z     vdW  Elec       q    Type
REMARK                         _______ _______ _______ _____ _____    ______ ____
ROOT
ATOM      1  C   UNL     1       5.626   7.797  16.829  0.00  0.00    +0.000 C 
ATOM      2  C   UNL     1       4.397   7.193  17.403  0.00  0.00    +0.000 A 
ATOM      3  N   UNL     1       3.407   8.094  17.520  0.00  0.00    +0.000 NA
ATOM      4  N   UNL     1       2.517   7.472  18.303  0.00  0.00    +0.000 N 
ATOM      5  C   UNL     1       2.633   6.109  18.168  0.00  0.00    +0.000 A 
ATOM      6  N   UNL     1       1.662   5.231  18.444  0.00  0.00    +0.000 NA
ATOM      7  C   UNL     1       2.026   3.971  18.470  0.00  0.00    +0.000 A 
ATOM      8  C   UNL     1       0.987   3.081  18.713  0.00  0.00    +0.000 A 
ATOM      9  C   UNL     1       1.206   1.718  18.873  0.00  0.00    +0.000 A 
ATOM     10  C   UNL     1       2.507   1.246  18.797  0.00  0.00    +0.000 A 
ATOM     11  C   UNL     1       3.561   2.134  18.525  0.00  0.00    +0.000 A 
ATOM     12  C   UNL     1       3.358   3.531  18.323  0.00  0.00    +0.000 A 
ATOM     13  C   UNL     1       4.402   4.512  17.991  0.00  0.00    +0.000 A 
ATOM     14  C   UNL     1       3.971   5.871  17.834  0.00  0.00    +0.000 A 
ENDROOT
BRANCH   4  15
ATOM     15  C   UNL     1       1.801   8.207  19.282  0.00  0.00    +0.000 A 
ATOM     16  C   UNL     1       1.286   9.464  18.938  0.00  0.00    +0.000 A 
ATOM     17  C   UNL     1       0.743  10.278  19.921  0.00  0.00    +0.000 A 
ATOM     18  C   UNL     1       0.715   9.860  21.257  0.00  0.00    +0.000 A 
ATOM     19  C   UNL     1       1.207   8.594  21.600  0.00  0.00    +0.000 A 
ATOM     20  C   UNL     1       1.754   7.770  20.614  0.00  0.00    +0.000 A 
BRANCH  18  21
ATOM     21  C   UNL     1       0.126  10.771  22.270  0.00  0.00    +0.000 C 
ATOM     22  O   UNL     1      -0.255  10.366  23.353  0.00  0.00    +0.000 OA
BRANCH  21  23
ATOM     23  O   UNL     1      -0.008  12.050  21.860  0.00  0.00    +0.000 OA
ATOM     24  H   UNL     1      -0.661  12.579  22.356  0.00  0.00    +0.000 HD
ENDBRANCH  21  23
ENDBRANCH  18  21
ENDBRANCH   4  15
BRANCH  13  25
ATOM     25  N   UNL     1       5.707   4.017  17.880  0.00  0.00    +0.000 N 
ATOM     26  H   UNL     1       6.066   3.532  18.694  0.00  0.00    +0.000 HD
BRANCH  25  27
ATOM     27  C   UNL     1       6.648   4.184  16.785  0.00  0.00    +0.000 C 
BRANCH  27  28
ATOM     28  C   UNL     1       6.110   3.640  15.458  0.00  0.00    +0.000 C 
BRANCH  28  29
ATOM     29  C   UNL     1       6.544   4.500  14.251  0.00  0.00    +0.000 C 
BRANCH  29  30
ATOM     30  N   UNL     1       6.575   3.783  12.964  0.00  0.00    +0.000 NA
ATOM     31  C   UNL     1       5.229   3.507  12.457  0.00  0.00    +0.000 C 
ATOM     32  C   UNL     1       7.328   4.553  11.967  0.00  0.00    +0.000 C 
ENDBRANCH  29  30
ENDBRANCH  28  29
ENDBRANCH  27  28
ENDBRANCH  25  27
ENDBRANCH  13  25
TORSDOF 8
ENDMDL
MODEL 5
REMARK VINA RESULT:      -7.2      1.462      2.259
REMARK  Name = 
REMARK  11 active torsions:
REMARK  status: ('A' for Active; 'I' for Inactive)
REMARK    1  A    between atoms: C_1  and  C_2
REMARK    2  A    between atoms: N_4  and  C_5
REMARK    3  A    between atoms: C_8  and  C_9
REMARK    4  A    between atoms: C_9  and  O_11
REMARK    5  A    between atoms: C_22  and  N_23
REMARK    6  A    between atoms: N_23  and  C_24
REMARK    7  A    between atoms: C_24  and  C_25
REMARK    8  A    between atoms: C_25  and  C_26
REMARK    9  A    between atoms: C_26  and  N_27
REMARK   10  A    between atoms: N_27  and  C_28
REMARK   11  A    between atoms: N_27  and  C_29
REMARK                            x       y       z     vdW  Elec       q    Type
REMARK                         _______ _______ _______ _____ _____    ______ ____
ROOT
ATOM      1  C   UNL     1       5.147   7.619  16.363  0.00  0.00    +0.000 C 
ATOM      2  C   UNL     1       4.004   7.085  17.147  0.00  0.00    +0.000 A 
ATOM      3  N   UNL     1       3.093   8.038  17.411  0.00  0.00    +0.000 NA
ATOM      4  N   UNL     1       2.319   7.471  18.344  0.00  0.00    +0.000 N 
ATOM      5  C   UNL     1       2.344   6.103  18.219  0.00  0.00    +0.000 A 
ATOM      6  N   UNL     1       1.391   5.280  18.671  0.00  0.00    +0.000 NA
ATOM      7  C   UNL     1       1.691   4.003  18.661  0.00  0.00    +0.000 A 
ATOM      8  C   UNL     1       0.666   3.170  19.092  0.00  0.00    +0.000 A 
ATOM      9  C   UNL     1       0.841   1.800  19.240  0.00  0.00    +0.000 A 
ATOM     10  C   UNL     1       2.086   1.260  18.954  0.00  0.00    +0.000 A 
ATOM     11  C   UNL     1       3.121   2.089  18.492  0.00  0.00    +0.000 A 
ATOM     12  C   UNL     1       2.956   3.492  18.300  0.00  0.00    +0.000 A 
ATOM     13  C   UNL     1       3.976   4.414  17.778  0.00  0.00    +0.000 A 
ATOM     14  C   UNL     1       3.592   5.792  17.669  0.00  0.00    +0.000 A 
ENDROOT
BRANCH   4  15
ATOM     15  C   UNL     1       1.815   8.253  19.415  0.00  0.00    +0.000 A 
ATOM     16  C   UNL     1       1.816   7.708  20.706  0.00  0.00    +0.000 A 
ATOM     17  C   UNL     1       1.168   8.374  21.735  0.00  0.00    +0.000 A 
ATOM     18  C   UNL     1       0.502   9.582  21.494  0.00  0.00    +0.000 A 
ATOM     19  C   UNL     1       0.519  10.142  20.210  0.00  0.00    +0.000 A 
ATOM     20  C   UNL     1       1.172   9.476  19.170  0.00  0.00    +0.000 A 
BRANCH  18  21
ATOM     21  C   UNL     1      -0.180  10.252  22.630  0.00  0.00    +0.000 C 
ATOM     22  O   UNL     1      -0.829  11.271  22.479  0.00  0.00    +0.000 OA
BRANCH  21  23
ATOM     23  O   UNL     1       0.040   9.677  23.831  0.00  0.00    +0.000 OA
ATOM     24  H   UNL     1      -0.252  10.199  24.602  0.00  0.00    +0.000 HD
ENDBRANCH  21  23
ENDBRANCH  18  21
ENDBRANCH   4  15
BRANCH  13  25
ATOM     25  N   UNL     1       5.218   3.851  17.459  0.00  0.00    +0.000 N 
ATOM     26  H   UNL     1       5.704   3.394  18.221  0.00  0.00    +0.000 HD
BRANCH  25  27
ATOM     27  C   UNL     1       5.943   3.912  16.201  0.00  0.00    +0.000 C 
BRANCH  27  28
ATOM     28  C   UNL     1       7.288   4.635  16.332  0.00  0.00    +0.000 C 
BRANCH  28  29
ATOM     29  C   UNL     1       7.839   4.594  17.774  0.00  0.00    +0.000 C 
BRANCH  29  30
ATOM     30  N   UNL     1       7.406   5.711  18.631  0.00  0.00    +0.000 NA
ATOM     31  C   UNL     1       7.879   5.562  20.009  0.00  0.00    +0.000 C 
ATOM     32  C   UNL     1       7.877   6.989  18.085  0.00  0.00    +0.000 C 
ENDBRANCH  29  30
ENDBRANCH  28  29
ENDBRANCH  27  28
ENDBRANCH  25  27
ENDBRANCH  13  25
TORSDOF 8
ENDMDL
MODEL 6
REMARK VINA RESULT:      -7.0      1.182      1.859
REMARK  Name = 
REMARK  11 active torsions:
REMARK  status: ('A' for Active; 'I' for Inactive)
REMARK    1  A    between atoms: C_1  and  C_2
REMARK    2  A    between atoms: N_4  and  C_5
REMARK    3  A    between atoms: C_8  and  C_9
REMARK    4  A    between atoms: C_9  and  O_11
REMARK    5  A    between atoms: C_22  and  N_23
REMARK    6  A    between atoms: N_23  and  C_24
REMARK    7  A    between atoms: C_24  and  C_25
REMARK    8  A    between atoms: C_25  and  C_26
REMARK    9  A    between atoms: C_26  and  N_27
REMARK   10  A    between atoms: N_27  and  C_28
REMARK   11  A    between atoms: N_27  and  C_29
REMARK                            x       y       z     vdW  Elec       q    Type
REMARK                         _______ _______ _______ _____ _____    ______ ____
ROOT
ATOM      1  C   UNL     1       4.438   7.311  16.353  0.00  0.00    +0.000 C 
ATOM      2  C   UNL     1       3.529   6.972  17.477  0.00  0.00    +0.000 A 
ATOM      3  N   UNL     1       2.551   7.883  17.620  0.00  0.00    +0.000 NA
ATOM      4  N   UNL     1       2.031   7.590  18.818  0.00  0.00    +0.000 N 
ATOM      5  C   UNL     1       2.226   6.262  19.111  0.00  0.00    +0.000 A 
ATOM      6  N   UNL     1       1.488   5.556  19.975  0.00  0.00    +0.000 NA
ATOM      7  C   UNL     1       1.958   4.373  20.291  0.00  0.00    +0.000 A 
ATOM      8  C   UNL     1       1.146   3.647  21.154  0.00  0.00    +0.000 A 
ATOM      9  C   UNL     1       1.534   2.417  21.671  0.00  0.00    +0.000 A 
ATOM     10  C   UNL     1       2.777   1.914  21.316  0.00  0.00    +0.000 A 
ATOM     11  C   UNL     1       3.593   2.628  20.423  0.00  0.00    +0.000 A 
ATOM     12  C   UNL     1       3.204   3.876  19.853  0.00  0.00    +0.000 A 
ATOM     13  C   UNL     1       3.982   4.656  18.880  0.00  0.00    +0.000 A 
ATOM     14  C   UNL     1       3.396   5.889  18.439  0.00  0.00    +0.000 A 
ENDROOT
BRANCH   4  15
ATOM     15  C   UNL     1       1.611   8.635  19.680  0.00  0.00    +0.000 A 
ATOM     16  C   UNL     1       1.453   8.359  21.045  0.00  0.00    +0.000 A 
ATOM     17  C   UNL     1       0.873   9.305  21.876  0.00  0.00    +0.000 A 
ATOM     18  C   UNL     1       0.431  10.530  21.361  0.00  0.00    +0.000 A 
ATOM     19  C   UNL     1       0.608  10.818  20.002  0.00  0.00    +0.000 A 
ATOM     20  C   UNL     1       1.194   9.870  19.161  0.00  0.00    +0.000 A 
BRANCH  18  21
ATOM     21  C   UNL     1      -0.188  11.506  22.293  0.00  0.00    +0.000 C 
ATOM     22  O   UNL     1      -0.002  12.705  22.184  0.00  0.00    +0.000 OA
BRANCH  21  23
ATOM     23  O   UNL     1      -0.903  10.948  23.293  0.00  0.00    +0.000 OA
ATOM     24  H   UNL     1      -1.298  10.080  23.087  0.00  0.00    +0.000 HD
ENDBRANCH  21  23
ENDBRANCH  18  21
ENDBRANCH   4  15
BRANCH  13  25
ATOM     25  N   UNL     1       5.218   4.121  18.500  0.00  0.00    +0.000 N 
ATOM     26  H   UNL     1       5.949   4.155  19.202  0.00  0.00    +0.000 HD
BRANCH  25  27
ATOM     27  C   UNL     1       5.622   3.603  17.204  0.00  0.00    +0.000 C 
BRANCH  27  28
ATOM     28  C   UNL     1       6.684   4.476  16.527  0.00  0.00    +0.000 C 
BRANCH  28  29
ATOM     29  C   UNL     1       7.795   4.915  17.505  0.00  0.00    +0.000 C 
BRANCH  29  30
ATOM     30  N   UNL     1       7.413   6.003  18.422  0.00  0.00    +0.000 NA
ATOM     31  C   UNL     1       8.010   5.839  19.749  0.00  0.00    +0.000 C 
ATOM     32  C   UNL     1       7.803   7.303  17.864  0.00  0.00    +0.000 C 
ENDBRANCH  29  30
ENDBRANCH  28  29
ENDBRANCH  27  28
ENDBRANCH  25  27
ENDBRANCH  13  25
TORSDOF 8
ENDMDL
MODEL 7
REMARK VINA RESULT:      -7.0      2.650      5.208
REMARK  Name = 
REMARK  11 active torsions:
REMARK  status: ('A' for Active; 'I' for Inactive)
REMARK    1  A    between atoms: C_1  and  C_2
REMARK    2  A    between atoms: N_4  and  C_5
REMARK    3  A    between atoms: C_8  and  C_9
REMARK    4  A    between atoms: C_9  and  O_11
REMARK    5  A    between atoms: C_22  and  N_23
REMARK    6  A    between atoms: N_23  and  C_24
REMARK    7  A    between atoms: C_24  and  C_25
REMARK    8  A    between atoms: C_25  and  C_26
REMARK    9  A    between atoms: C_26  and  N_27
REMARK   10  A    between atoms: N_27  and  C_28
REMARK   11  A    between atoms: N_27  and  C_29
REMARK                            x       y       z     vdW  Elec       q    Type
REMARK                         _______ _______ _______ _____ _____    ______ ____
ROOT
ATOM      1  C   UNL     1       0.881   8.376  22.483  0.00  0.00    +0.000 C 
ATOM      2  C   UNL     1       1.202   8.552  21.044  0.00  0.00    +0.000 A 
ATOM      3  N   UNL     1       0.720   9.711  20.564  0.00  0.00    +0.000 NA
ATOM      4  N   UNL     1       0.835   9.566  19.239  0.00  0.00    +0.000 N 
ATOM      5  C   UNL     1       1.855   8.694  18.941  0.00  0.00    +0.000 A 
ATOM      6  N   UNL     1       2.510   8.659  17.775  0.00  0.00    +0.000 NA
ATOM      7  C   UNL     1       3.293   7.622  17.594  0.00  0.00    +0.000 A 
ATOM      8  C   UNL     1       3.994   7.637  16.395  0.00  0.00    +0.000 A 
ATOM      9  C   UNL     1       4.793   6.573  15.994  0.00  0.00    +0.000 A 
ATOM     10  C   UNL     1       4.875   5.462  16.820  0.00  0.00    +0.000 A 
ATOM     11  C   UNL     1       4.191   5.448  18.047  0.00  0.00    +0.000 A 
ATOM     12  C   UNL     1       3.394   6.541  18.496  0.00  0.00    +0.000 A 
ATOM     13  C   UNL     1       2.687   6.618  19.783  0.00  0.00    +0.000 A 
ATOM     14  C   UNL     1       1.939   7.817  20.028  0.00  0.00    +0.000 A 
ENDROOT
BRANCH   4  15
ATOM     15  C   UNL     1      -0.175  10.072  18.382  0.00  0.00    +0.000 A 
ATOM     16  C   UNL     1      -0.698  11.347  18.636  0.00  0.00    +0.000 A 
ATOM     17  C   UNL     1      -1.806  11.790  17.930  0.00  0.00    +0.000 A 
ATOM     18  C   UNL     1      -2.414  10.971  16.971  0.00  0.00    +0.000 A 
ATOM     19  C   UNL     1      -1.879   9.706  16.697  0.00  0.00    +0.000 A 
ATOM     20  C   UNL     1      -0.763   9.254  17.405  0.00  0.00    +0.000 A 
BRANCH  18  21
ATOM     21  C   UNL     1      -3.600  11.492  16.246  0.00  0.00    +0.000 C 
ATOM     22  O   UNL     1      -4.588  11.892  16.833  0.00  0.00    +0.000 OA
BRANCH  21  23
ATOM     23  O   UNL     1      -3.509  11.418  14.900  0.00  0.00    +0.000 OA
ATOM     24  H   UNL     1      -2.943  10.699  14.562  0.00  0.00    +0.000 HD
ENDBRANCH  21  23
ENDBRANCH  18  21
ENDBRANCH   4  15
BRANCH  13  25
ATOM     25  N   UNL     1       2.808   5.506  20.625  0.00  0.00    +0.000 N 
ATOM     26  H   UNL     1       3.750   5.162  20.770  0.00  0.00    +0.000 HD
BRANCH  25  27
ATOM     27  C   UNL     1       1.755   4.723  21.248  0.00  0.00    +0.000 C 
BRANCH  27  28
ATOM     28  C   UNL     1       2.131   3.246  21.401  0.00  0.00    +0.000 C 
BRANCH  28  29
ATOM     29  C   UNL     1       2.933   2.715  20.193  0.00  0.00    +0.000 C 
BRANCH  29  30
ATOM     30  N   UNL     1       2.215   2.768  18.907  0.00  0.00    +0.000 NA
ATOM     31  C   UNL     1       2.911   2.019  17.858  0.00  0.00    +0.000 C 
ATOM     32  C   UNL     1       0.852   2.247  19.060  0.00  0.00    +0.000 C 
ENDBRANCH  29  30
ENDBRANCH  28  29
ENDBRANCH  27  28
ENDBRANCH  25  27
ENDBRANCH  13  25
TORSDOF 8
ENDMDL
MODEL 8
REMARK VINA RESULT:      -6.9      2.802      5.289
REMARK  Name = 
REMARK  11 active torsions:
REMARK  status: ('A' for Active; 'I' for Inactive)
REMARK    1  A    between atoms: C_1  and  C_2
REMARK    2  A    between atoms: N_4  and  C_5
REMARK    3  A    between atoms: C_8  and  C_9
REMARK    4  A    between atoms: C_9  and  O_11
REMARK    5  A    between atoms: C_22  and  N_23
REMARK    6  A    between atoms: N_23  and  C_24
REMARK    7  A    between atoms: C_24  and  C_25
REMARK    8  A    between atoms: C_25  and  C_26
REMARK    9  A    between atoms: C_26  and  N_27
REMARK   10  A    between atoms: N_27  and  C_28
REMARK   11  A    between atoms: N_27  and  C_29
REMARK                            x       y       z     vdW  Elec       q    Type
REMARK                         _______ _______ _______ _____ _____    ______ ____
ROOT
ATOM      1  C   UNL     1       0.435   8.633  22.586  0.00  0.00    +0.000 C 
ATOM      2  C   UNL     1       0.815   8.750  21.156  0.00  0.00    +0.000 A 
ATOM      3  N   UNL     1       0.324   9.871  20.599  0.00  0.00    +0.000 NA
ATOM      4  N   UNL     1       0.502   9.666  19.289  0.00  0.00    +0.000 N 
ATOM      5  C   UNL     1       1.557   8.812  19.078  0.00  0.00    +0.000 A 
ATOM      6  N   UNL     1       2.265   8.741  17.945  0.00  0.00    +0.000 NA
ATOM      7  C   UNL     1       3.082   7.719  17.848  0.00  0.00    +0.000 A 
ATOM      8  C   UNL     1       3.836   7.698  16.681  0.00  0.00    +0.000 A 
ATOM      9  C   UNL     1       4.679   6.639  16.367  0.00  0.00    +0.000 A 
ATOM     10  C   UNL     1       4.755   5.572  17.249  0.00  0.00    +0.000 A 
ATOM     11  C   UNL     1       4.017   5.596  18.444  0.00  0.00    +0.000 A 
ATOM     12  C   UNL     1       3.172   6.686  18.805  0.00  0.00    +0.000 A 
ATOM     13  C   UNL     1       2.407   6.802  20.055  0.00  0.00    +0.000 A 
ATOM     14  C   UNL     1       1.616   7.990  20.209  0.00  0.00    +0.000 A 
ENDROOT
BRANCH   4  15
ATOM     15  C   UNL     1      -0.482  10.102  18.365  0.00  0.00    +0.000 A 
ATOM     16  C   UNL     1      -1.233  11.245  18.670  0.00  0.00    +0.000 A 
ATOM     17  C   UNL     1      -2.318  11.588  17.877  0.00  0.00    +0.000 A 
ATOM     18  C   UNL     1      -2.678  10.795  16.781  0.00  0.00    +0.000 A 
ATOM     19  C   UNL     1      -1.915   9.665  16.460  0.00  0.00    +0.000 A 
ATOM     20  C   UNL     1      -0.821   9.316  17.254  0.00  0.00    +0.000 A 
BRANCH  18  21
ATOM     21  C   UNL     1      -3.851  11.204  15.968  0.00  0.00    +0.000 C 
ATOM     22  O   UNL     1      -3.803  11.256  14.753  0.00  0.00    +0.000 OA
BRANCH  21  23
ATOM     23  O   UNL     1      -4.931  11.571  16.690  0.00  0.00    +0.000 OA
ATOM     24  H   UNL     1      -4.939  11.258  17.614  0.00  0.00    +0.000 HD
ENDBRANCH  21  23
ENDBRANCH  18  21
ENDBRANCH   4  15
BRANCH  13  25
ATOM     25  N   UNL     1       2.520   5.736  20.955  0.00  0.00    +0.000 N 
ATOM     26  H   UNL     1       3.353   5.731  21.531  0.00  0.00    +0.000 HD
BRANCH  25  27
ATOM     27  C   UNL     1       1.646   4.585  21.110  0.00  0.00    +0.000 C 
BRANCH  27  28
ATOM     28  C   UNL     1       1.172   4.020  19.767  0.00  0.00    +0.000 C 
BRANCH  28  29
ATOM     29  C   UNL     1       1.256   2.480  19.715  0.00  0.00    +0.000 C 
BRANCH  29  30
ATOM     30  N   UNL     1       2.390   1.951  18.938  0.00  0.00    +0.000 NA
ATOM     31  C   UNL     1       2.455   2.531  17.595  0.00  0.00    +0.000 C 
ATOM     32  C   UNL     1       3.654   2.199  19.642  0.00  0.00    +0.000 C 
ENDBRANCH  29  30
ENDBRANCH  28  29
ENDBRANCH  27  28
ENDBRANCH  25  27
ENDBRANCH  13  25
TORSDOF 8
ENDMDL
MODEL 9
REMARK VINA RESULT:      -6.9      4.360      8.469
REMARK  Name = 
REMARK  11 active torsions:
REMARK  status: ('A' for Active; 'I' for Inactive)
REMARK    1  A    between atoms: C_1  and  C_2
REMARK    2  A    between atoms: N_4  and  C_5
REMARK    3  A    between atoms: C_8  and  C_9
REMARK    4  A    between atoms: C_9  and  O_11
REMARK    5  A    between atoms: C_22  and  N_23
REMARK    6  A    between atoms: N_23  and  C_24
REMARK    7  A    between atoms: C_24  and  C_25
REMARK    8  A    between atoms: C_25  and  C_26
REMARK    9  A    between atoms: C_26  and  N_27
REMARK   10  A    between atoms: N_27  and  C_28
REMARK   11  A    between atoms: N_27  and  C_29
REMARK                            x       y       z     vdW  Elec       q    Type
REMARK                         _______ _______ _______ _____ _____    ______ ____
ROOT
ATOM      1  C   UNL     1      -0.186   8.916  21.936  0.00  0.00    +0.000 C 
ATOM      2  C   UNL     1      -0.466  10.374  21.977  0.00  0.00    +0.000 A 
ATOM      3  N   UNL     1      -1.248  10.702  23.019  0.00  0.00    +0.000 NA
ATOM      4  N   UNL     1      -1.629  11.953  22.734  0.00  0.00    +0.000 N 
ATOM      5  C   UNL     1      -0.692  12.569  21.940  0.00  0.00    +0.000 A 
ATOM      6  N   UNL     1      -0.533  13.893  21.836  0.00  0.00    +0.000 NA
ATOM      7  C   UNL     1       0.255  14.298  20.868  0.00  0.00    +0.000 A 
ATOM      8  C   UNL     1       0.436  15.674  20.815  0.00  0.00    +0.000 A 
ATOM      9  C   UNL     1       1.157  16.284  19.795  0.00  0.00    +0.000 A 
ATOM     10  C   UNL     1       1.699  15.484  18.801  0.00  0.00    +0.000 A 
ATOM     11  C   UNL     1       1.544  14.089  18.861  0.00  0.00    +0.000 A 
ATOM     12  C   UNL     1       0.838  13.437  19.914  0.00  0.00    +0.000 A 
ATOM     13  C   UNL     1       0.674  11.984  20.067  0.00  0.00    +0.000 A 
ATOM     14  C   UNL     1      -0.080  11.546  21.207  0.00  0.00    +0.000 A 
ENDROOT
BRANCH   4  15
ATOM     15  C   UNL     1      -2.949  12.376  23.036  0.00  0.00    +0.000 A 
ATOM     16  C   UNL     1      -3.366  12.378  24.374  0.00  0.00    +0.000 A 
ATOM     17  C   UNL     1      -4.699  12.611  24.678  0.00  0.00    +0.000 A 
ATOM     18  C   UNL     1      -5.634  12.834  23.660  0.00  0.00    +0.000 A 
ATOM     19  C   UNL     1      -5.215  12.856  22.324  0.00  0.00    +0.000 A 
ATOM     20  C   UNL     1      -3.875  12.623  22.011  0.00  0.00    +0.000 A 
BRANCH  18  21
ATOM     21  C   UNL     1      -7.049  13.074  24.041  0.00  0.00    +0.000 C 
ATOM     22  O   UNL     1      -7.917  12.242  23.848  0.00  0.00    +0.000 OA
BRANCH  21  23
ATOM     23  O   UNL     1      -7.290  14.303  24.545  0.00  0.00    +0.000 OA
ATOM     24  H   UNL     1      -6.622  14.980  24.329  0.00  0.00    +0.000 HD
ENDBRANCH  21  23
ENDBRANCH  18  21
ENDBRANCH   4  15
BRANCH  13  25
ATOM     25  N   UNL     1       1.257  11.184  19.078  0.00  0.00    +0.000 N 
ATOM     26  H   UNL     1       2.130  11.526  18.692  0.00  0.00    +0.000 HD
BRANCH  25  27
ATOM     27  C   UNL     1       0.734   9.975  18.465  0.00  0.00    +0.000 C 
BRANCH  27  28
ATOM     28  C   UNL     1       1.842   9.031  17.987  0.00  0.00    +0.000 C 
BRANCH  28  29
ATOM     29  C   UNL     1       2.137   7.907  19.004  0.00  0.00    +0.000 C 
BRANCH  29  30
ATOM     30  N   UNL     1       2.769   6.707  18.430  0.00  0.00    +0.000 NA
ATOM     31  C   UNL     1       3.852   7.045  17.504  0.00  0.00    +0.000 C 
ATOM     32  C   UNL     1       3.286   5.840  19.496  0.00  0.00    +0.000 C 
ENDBRANCH  29  30
ENDBRANCH  28  29
ENDBRANCH  27  28
ENDBRANCH  25  27
ENDBRANCH  13  25
TORSDOF 8
ENDMDL
