MODEL 1
REMARK VINA RESULT:      -8.4      0.000      0.000
REMARK  Name = 
REMARK  5 active torsions:
REMARK  status: ('A' for Active; 'I' for Inactive)
REMARK    1  A    between atoms: C_1  and  C_2
REMARK    2  A    between atoms: C_13  and  C_14
REMARK    3  A    between atoms: C_18  and  O_19
REMARK    4  A    between atoms: O_19  and  C_20
REMARK    5  A    between atoms: C_30  and  C_31
REMARK                            x       y       z     vdW  Elec       q    Type
REMARK                         _______ _______ _______ _____ _____    ______ ____
ROOT
ATOM      1  C   UNL     1       6.983   4.314  18.034  0.00  0.00    +0.000 C 
ATOM      2  C   UNL     1       6.769   4.562  16.545  0.00  0.00    +0.000 C 
ATOM      3  C   UNL     1       5.291   4.739  16.156  0.00  0.00    +0.000 C 
ATOM      4  N   UNL     1       4.836   6.098  16.421  0.00  0.00    +0.000 N 
ATOM      5  C   UNL     1       3.975   6.374  17.455  0.00  0.00    +0.000 A 
ATOM      6  N   UNL     1       3.572   5.377  18.240  0.00  0.00    +0.000 NA
ATOM      7  C   UNL     1       2.661   5.589  19.208  0.00  0.00    +0.000 A 
ATOM      8  N   UNL     1       2.342   4.449  19.933  0.00  0.00    +0.000 N 
ATOM      9  C   UNL     1       2.008   4.526  21.362  0.00  0.00    +0.000 C 
ATOM     10  C   UNL     1       2.263   3.180  22.045  0.00  0.00    +0.000 C 
ATOM     11  O   UNL     1       1.484   2.150  21.420  0.00  0.00    +0.000 OA
ATOM     12  C   UNL     1       1.858   2.026  20.039  0.00  0.00    +0.000 C 
ATOM     13  C   UNL     1       1.622   3.337  19.241  0.00  0.00    +0.000 C 
ATOM     14  C   UNL     1       2.023   3.073  17.790  0.00  0.00    +0.000 C 
ATOM     15  C   UNL     1       2.140   6.881  19.412  0.00  0.00    +0.000 A 
ATOM     16  C   UNL     1       1.178   7.301  20.376  0.00  0.00    +0.000 A 
ATOM     17  C   UNL     1       0.743   8.612  20.434  0.00  0.00    +0.000 A 
ATOM     18  C   UNL     1       1.273   9.478  19.515  0.00  0.00    +0.000 A 
ATOM     19  N   UNL     1       2.173   9.117  18.578  0.00  0.00    +0.000 NA
ATOM     20  C   UNL     1       2.616   7.859  18.533  0.00  0.00    +0.000 A 
ATOM     21  N   UNL     1       3.519   7.612  17.602  0.00  0.00    +0.000 NA
ATOM     22  C   UNL     1       5.649   7.143  15.817  0.00  0.00    +0.000 C 
ATOM     23  C   UNL     1       7.146   6.951  16.167  0.00  0.00    +0.000 C 
ATOM     24  C   UNL     1       7.530   7.551  17.514  0.00  0.00    +0.000 C 
ATOM     25  O   UNL     1       7.621   5.600  16.029  0.00  0.00    +0.000 OA
ENDROOT
BRANCH  18  26
ATOM     26  O   UNL     1       0.782  10.772  19.554  0.00  0.00    +0.000 OA
BRANCH  26  27
ATOM     27  C   UNL     1      -0.519  10.984  19.160  0.00  0.00    +0.000 A 
ATOM     28  C   UNL     1      -1.244  11.904  19.917  0.00  0.00    +0.000 A 
ATOM     29  C   UNL     1      -2.559  12.209  19.568  0.00  0.00    +0.000 A 
ATOM     30  C   UNL     1      -3.142  11.599  18.456  0.00  0.00    +0.000 A 
ATOM     31  C   UNL     1      -2.409  10.698  17.686  0.00  0.00    +0.000 A 
ATOM     32  C   UNL     1      -1.090  10.404  18.027  0.00  0.00    +0.000 A 
ENDBRANCH  26  27
ENDBRANCH  18  26
TORSDOF 2
ENDMDL
MODEL 2
REMARK VINA RESULT:      -7.7      3.952      9.205
REMARK  Name = 
REMARK  5 active torsions:
REMARK  status: ('A' for Active; 'I' for Inactive)
REMARK    1  A    between atoms: C_1  and  C_2
REMARK    2  A    between atoms: C_13  and  C_14
REMARK    3  A    between atoms: C_18  and  O_19
REMARK    4  A    between atoms: O_19  and  C_20
REMARK    5  A    between atoms: C_30  and  C_31
REMARK                            x       y       z     vdW  Elec       q    Type
REMARK                         _______ _______ _______ _____ _____    ______ ____
ROOT
ATOM      1  C   UNL     1       0.289  17.359  19.537  0.00  0.00    +0.000 C 
ATOM      2  C   UNL     1       1.569  17.373  20.364  0.00  0.00    +0.000 C 
ATOM      3  C   UNL     1       1.806  16.075  21.154  0.00  0.00    +0.000 C 
ATOM      4  N   UNL     1       2.394  15.044  20.308  0.00  0.00    +0.000 N 
ATOM      5  C   UNL     1       1.666  13.953  19.899  0.00  0.00    +0.000 A 
ATOM      6  N   UNL     1       0.390  13.857  20.267  0.00  0.00    +0.000 NA
ATOM      7  C   UNL     1      -0.333  12.764  19.962  0.00  0.00    +0.000 A 
ATOM      8  N   UNL     1      -1.642  12.815  20.422  0.00  0.00    +0.000 N 
ATOM      9  C   UNL     1      -2.739  12.193  19.667  0.00  0.00    +0.000 C 
ATOM     10  C   UNL     1      -4.075  12.846  20.026  0.00  0.00    +0.000 C 
ATOM     11  O   UNL     1      -4.326  12.723  21.433  0.00  0.00    +0.000 OA
ATOM     12  C   UNL     1      -3.291  13.391  22.173  0.00  0.00    +0.000 C 
ATOM     13  C   UNL     1      -1.886  12.793  21.897  0.00  0.00    +0.000 C 
ATOM     14  C   UNL     1      -0.881  13.558  22.759  0.00  0.00    +0.000 C 
ATOM     15  C   UNL     1       0.252  11.716  19.228  0.00  0.00    +0.000 A 
ATOM     16  C   UNL     1      -0.344  10.491  18.811  0.00  0.00    +0.000 A 
ATOM     17  C   UNL     1       0.378   9.541  18.112  0.00  0.00    +0.000 A 
ATOM     18  C   UNL     1       1.690   9.832  17.853  0.00  0.00    +0.000 A 
ATOM     19  N   UNL     1       2.295  10.972  18.242  0.00  0.00    +0.000 NA
ATOM     20  C   UNL     1       1.598  11.904  18.895  0.00  0.00    +0.000 A 
ATOM     21  N   UNL     1       2.270  12.997  19.204  0.00  0.00    +0.000 NA
ATOM     22  C   UNL     1       3.609  15.444  19.612  0.00  0.00    +0.000 C 
ATOM     23  C   UNL     1       3.395  16.774  18.847  0.00  0.00    +0.000 C 
ATOM     24  C   UNL     1       2.772  16.581  17.470  0.00  0.00    +0.000 C 
ATOM     25  O   UNL     1       2.715  17.792  19.603  0.00  0.00    +0.000 OA
ENDROOT
BRANCH  18  26
ATOM     26  O   UNL     1       2.408   8.843  17.201  0.00  0.00    +0.000 OA
BRANCH  26  27
ATOM     27  C   UNL     1       2.816   7.751  17.931  0.00  0.00    +0.000 A 
ATOM     28  C   UNL     1       3.901   7.042  17.415  0.00  0.00    +0.000 A 
ATOM     29  C   UNL     1       4.406   5.942  18.107  0.00  0.00    +0.000 A 
ATOM     30  C   UNL     1       3.829   5.559  19.320  0.00  0.00    +0.000 A 
ATOM     31  C   UNL     1       2.761   6.283  19.847  0.00  0.00    +0.000 A 
ATOM     32  C   UNL     1       2.266   7.391  19.161  0.00  0.00    +0.000 A 
ENDBRANCH  26  27
ENDBRANCH  18  26
TORSDOF 2
ENDMDL
MODEL 3
REMARK VINA RESULT:      -7.5      1.233      4.984
REMARK  Name = 
REMARK  5 active torsions:
REMARK  status: ('A' for Active; 'I' for Inactive)
REMARK    1  A    between atoms: C_1  and  C_2
REMARK    2  A    between atoms: C_13  and  C_14
REMARK    3  A    between atoms: C_18  and  O_19
REMARK    4  A    between atoms: O_19  and  C_20
REMARK    5  A    between atoms: C_30  and  C_31
REMARK                            x       y       z     vdW  Elec       q    Type
REMARK                         _______ _______ _______ _____ _____    ______ ____
ROOT
ATOM      1  C   UNL     1       3.095   1.742  18.626  0.00  0.00    +0.000 C 
ATOM      2  C   UNL     1       3.281   1.795  20.137  0.00  0.00    +0.000 C 
ATOM      3  C   UNL     1       3.990   3.070  20.627  0.00  0.00    +0.000 C 
ATOM      4  N   UNL     1       3.057   4.185  20.728  0.00  0.00    +0.000 N 
ATOM      5  C   UNL     1       3.092   5.230  19.836  0.00  0.00    +0.000 A 
ATOM      6  N   UNL     1       3.984   5.201  18.848  0.00  0.00    +0.000 NA
ATOM      7  C   UNL     1       4.111   6.244  18.006  0.00  0.00    +0.000 A 
ATOM      8  N   UNL     1       5.087   6.063  17.036  0.00  0.00    +0.000 N 
ATOM      9  C   UNL     1       4.934   6.626  15.688  0.00  0.00    +0.000 C 
ATOM     10  C   UNL     1       5.785   5.848  14.682  0.00  0.00    +0.000 C 
ATOM     11  O   UNL     1       7.166   5.883  15.067  0.00  0.00    +0.000 OA
ATOM     12  C   UNL     1       7.329   5.269  16.356  0.00  0.00    +0.000 C 
ATOM     13  C   UNL     1       6.518   5.994  17.463  0.00  0.00    +0.000 C 
ATOM     14  C   UNL     1       6.795   5.276  18.784  0.00  0.00    +0.000 C 
ATOM     15  C   UNL     1       3.280   7.371  18.153  0.00  0.00    +0.000 A 
ATOM     16  C   UNL     1       3.262   8.561  17.370  0.00  0.00    +0.000 A 
ATOM     17  C   UNL     1       2.396   9.600  17.659  0.00  0.00    +0.000 A 
ATOM     18  C   UNL     1       1.571   9.431  18.738  0.00  0.00    +0.000 A 
ATOM     19  N   UNL     1       1.568   8.328  19.514  0.00  0.00    +0.000 NA
ATOM     20  C   UNL     1       2.383   7.311  19.224  0.00  0.00    +0.000 A 
ATOM     21  N   UNL     1       2.282   6.264  20.022  0.00  0.00    +0.000 NA
ATOM     22  C   UNL     1       1.875   3.921  21.534  0.00  0.00    +0.000 C 
ATOM     23  C   UNL     1       1.175   2.616  21.079  0.00  0.00    +0.000 C 
ATOM     24  C   UNL     1       0.224   2.821  19.906  0.00  0.00    +0.000 C 
ATOM     25  O   UNL     1       2.068   1.510  20.855  0.00  0.00    +0.000 OA
ENDROOT
BRANCH  18  26
ATOM     26  O   UNL     1       0.753  10.506  19.044  0.00  0.00    +0.000 OA
BRANCH  26  27
ATOM     27  C   UNL     1      -0.525  10.514  18.536  0.00  0.00    +0.000 A 
ATOM     28  C   UNL     1      -1.397  11.451  19.090  0.00  0.00    +0.000 A 
ATOM     29  C   UNL     1      -2.702  11.554  18.611  0.00  0.00    +0.000 A 
ATOM     30  C   UNL     1      -3.130  10.725  17.573  0.00  0.00    +0.000 A 
ATOM     31  C   UNL     1      -2.251   9.805  17.004  0.00  0.00    +0.000 A 
ATOM     32  C   UNL     1      -0.942   9.712  17.473  0.00  0.00    +0.000 A 
ENDBRANCH  26  27
ENDBRANCH  18  26
TORSDOF 2
ENDMDL
MODEL 4
REMARK VINA RESULT:      -7.5      1.723      2.326
REMARK  Name = 
REMARK  5 active torsions:
REMARK  status: ('A' for Active; 'I' for Inactive)
REMARK    1  A    between atoms: C_1  and  C_2
REMARK    2  A    between atoms: C_13  and  C_14
REMARK    3  A    between atoms: C_18  and  O_19
REMARK    4  A    between atoms: O_19  and  C_20
REMARK    5  A    between atoms: C_30  and  C_31
REMARK                            x       y       z     vdW  Elec       q    Type
REMARK                         _______ _______ _______ _____ _____    ______ ____
ROOT
ATOM      1  C   UNL     1       6.959   4.386  18.214  0.00  0.00    +0.000 C 
ATOM      2  C   UNL     1       6.820   4.516  16.702  0.00  0.00    +0.000 C 
ATOM      3  C   UNL     1       5.365   4.674  16.228  0.00  0.00    +0.000 C 
ATOM      4  N   UNL     1       4.914   6.054  16.362  0.00  0.00    +0.000 N 
ATOM      5  C   UNL     1       4.008   6.419  17.328  0.00  0.00    +0.000 A 
ATOM      6  N   UNL     1       3.555   5.491  18.169  0.00  0.00    +0.000 NA
ATOM      7  C   UNL     1       2.602   5.787  19.070  0.00  0.00    +0.000 A 
ATOM      8  N   UNL     1       2.234   4.711  19.868  0.00  0.00    +0.000 N 
ATOM      9  C   UNL     1       1.833   4.904  21.268  0.00  0.00    +0.000 C 
ATOM     10  C   UNL     1       2.038   3.615  22.066  0.00  0.00    +0.000 C 
ATOM     11  O   UNL     1       1.277   2.545  21.488  0.00  0.00    +0.000 OA
ATOM     12  C   UNL     1       1.716   2.308  20.141  0.00  0.00    +0.000 C 
ATOM     13  C   UNL     1       1.535   3.553  19.231  0.00  0.00    +0.000 C 
ATOM     14  C   UNL     1       2.001   3.171  17.827  0.00  0.00    +0.000 C 
ATOM     15  C   UNL     1       2.087   7.095  19.146  0.00  0.00    +0.000 A 
ATOM     16  C   UNL     1       1.085   7.599  20.025  0.00  0.00    +0.000 A 
ATOM     17  C   UNL     1       0.664   8.914  19.958  0.00  0.00    +0.000 A 
ATOM     18  C   UNL     1       1.249   9.699  19.000  0.00  0.00    +0.000 A 
ATOM     19  N   UNL     1       2.188   9.257  18.139  0.00  0.00    +0.000 NA
ATOM     20  C   UNL     1       2.617   7.996  18.217  0.00  0.00    +0.000 A 
ATOM     21  N   UNL     1       3.560   7.668  17.353  0.00  0.00    +0.000 NA
ATOM     22  C   UNL     1       5.769   7.041  15.718  0.00  0.00    +0.000 C 
ATOM     23  C   UNL     1       7.244   6.865  16.155  0.00  0.00    +0.000 C 
ATOM     24  C   UNL     1       7.570   7.566  17.468  0.00  0.00    +0.000 C 
ATOM     25  O   UNL     1       7.708   5.503  16.148  0.00  0.00    +0.000 OA
ENDROOT
BRANCH  18  26
ATOM     26  O   UNL     1       0.772  10.997  18.913  0.00  0.00    +0.000 OA
BRANCH  26  27
ATOM     27  C   UNL     1       1.621  12.024  19.251  0.00  0.00    +0.000 A 
ATOM     28  C   UNL     1       2.295  12.633  18.192  0.00  0.00    +0.000 A 
ATOM     29  C   UNL     1       3.149  13.708  18.438  0.00  0.00    +0.000 A 
ATOM     30  C   UNL     1       3.320  14.176  19.742  0.00  0.00    +0.000 A 
ATOM     31  C   UNL     1       2.628  13.582  20.796  0.00  0.00    +0.000 A 
ATOM     32  C   UNL     1       1.764  12.517  20.548  0.00  0.00    +0.000 A 
ENDBRANCH  26  27
ENDBRANCH  18  26
TORSDOF 2
ENDMDL
MODEL 5
REMARK VINA RESULT:      -7.4      3.563      9.236
REMARK  Name = 
REMARK  5 active torsions:
REMARK  status: ('A' for Active; 'I' for Inactive)
REMARK    1  A    between atoms: C_1  and  C_2
REMARK    2  A    between atoms: C_13  and  C_14
REMARK    3  A    between atoms: C_18  and  O_19
REMARK    4  A    between atoms: O_19  and  C_20
REMARK    5  A    between atoms: C_30  and  C_31
REMARK                            x       y       z     vdW  Elec       q    Type
REMARK                         _______ _______ _______ _____ _____    ______ ____
ROOT
ATOM      1  C   UNL     1      -0.916  16.803  18.586  0.00  0.00    +0.000 C 
ATOM      2  C   UNL     1      -0.247  16.925  19.950  0.00  0.00    +0.000 C 
ATOM      3  C   UNL     1      -0.362  15.653  20.808  0.00  0.00    +0.000 C 
ATOM      4  N   UNL     1       0.646  14.670  20.431  0.00  0.00    +0.000 N 
ATOM      5  C   UNL     1       0.308  13.522  19.756  0.00  0.00    +0.000 A 
ATOM      6  N   UNL     1      -0.966  13.324  19.423  0.00  0.00    +0.000 NA
ATOM      7  C   UNL     1      -1.354  12.174  18.841  0.00  0.00    +0.000 A 
ATOM      8  N   UNL     1      -2.713  12.120  18.563  0.00  0.00    +0.000 N 
ATOM      9  C   UNL     1      -3.220  11.407  17.382  0.00  0.00    +0.000 C 
ATOM     10  C   UNL     1      -4.592  11.951  16.977  0.00  0.00    +0.000 C 
ATOM     11  O   UNL     1      -5.521  11.813  18.061  0.00  0.00    +0.000 OA
ATOM     12  C   UNL     1      -5.062  12.566  19.195  0.00  0.00    +0.000 C 
ATOM     13  C   UNL     1      -3.677  12.084  19.705  0.00  0.00    +0.000 C 
ATOM     14  C   UNL     1      -3.313  12.931  20.923  0.00  0.00    +0.000 C 
ATOM     15  C   UNL     1      -0.404  11.175  18.558  0.00  0.00    +0.000 A 
ATOM     16  C   UNL     1      -0.616   9.903  17.951  0.00  0.00    +0.000 A 
ATOM     17  C   UNL     1       0.425   9.012  17.764  0.00  0.00    +0.000 A 
ATOM     18  C   UNL     1       1.660   9.409  18.200  0.00  0.00    +0.000 A 
ATOM     19  N   UNL     1       1.900  10.596  18.792  0.00  0.00    +0.000 NA
ATOM     20  C   UNL     1       0.905  11.471  18.953  0.00  0.00    +0.000 A 
ATOM     21  N   UNL     1       1.246  12.616  19.513  0.00  0.00    +0.000 NA
ATOM     22  C   UNL     1       2.015  15.166  20.437  0.00  0.00    +0.000 C 
ATOM     23  C   UNL     1       2.135  16.470  19.611  0.00  0.00    +0.000 C 
ATOM     24  C   UNL     1       2.323  16.222  18.119  0.00  0.00    +0.000 C 
ATOM     25  O   UNL     1       1.096  17.433  19.865  0.00  0.00    +0.000 OA
ENDROOT
BRANCH  18  26
ATOM     26  O   UNL     1       2.677   8.479  18.053  0.00  0.00    +0.000 OA
BRANCH  26  27
ATOM     27  C   UNL     1       2.491   7.226  18.589  0.00  0.00    +0.000 A 
ATOM     28  C   UNL     1       2.192   7.182  19.950  0.00  0.00    +0.000 A 
ATOM     29  C   UNL     1       1.951   5.956  20.569  0.00  0.00    +0.000 A 
ATOM     30  C   UNL     1       2.002   4.778  19.823  0.00  0.00    +0.000 A 
ATOM     31  C   UNL     1       2.277   4.825  18.458  0.00  0.00    +0.000 A 
ATOM     32  C   UNL     1       2.503   6.052  17.836  0.00  0.00    +0.000 A 
ENDBRANCH  26  27
ENDBRANCH  18  26
TORSDOF 2
ENDMDL
MODEL 6
REMARK VINA RESULT:      -7.3      1.000      1.519
REMARK  Name = 
REMARK  5 active torsions:
REMARK  status: ('A' for Active; 'I' for Inactive)
REMARK    1  A    between atoms: C_1  and  C_2
REMARK    2  A    between atoms: C_13  and  C_14
REMARK    3  A    between atoms: C_18  and  O_19
REMARK    4  A    between atoms: O_19  and  C_20
REMARK    5  A    between atoms: C_30  and  C_31
REMARK                            x       y       z     vdW  Elec       q    Type
REMARK                         _______ _______ _______ _____ _____    ______ ____
ROOT
ATOM      1  C   UNL     1       6.929   4.319  18.007  0.00  0.00    +0.000 C 
ATOM      2  C   UNL     1       6.709   4.605  16.527  0.00  0.00    +0.000 C 
ATOM      3  C   UNL     1       5.230   4.806  16.152  0.00  0.00    +0.000 C 
ATOM      4  N   UNL     1       4.791   6.163  16.451  0.00  0.00    +0.000 N 
ATOM      5  C   UNL     1       3.939   6.423  17.498  0.00  0.00    +0.000 A 
ATOM      6  N   UNL     1       3.531   5.412  18.262  0.00  0.00    +0.000 NA
ATOM      7  C   UNL     1       2.629   5.611  19.240  0.00  0.00    +0.000 A 
ATOM      8  N   UNL     1       2.303   4.458  19.941  0.00  0.00    +0.000 N 
ATOM      9  C   UNL     1       1.979   4.504  21.374  0.00  0.00    +0.000 C 
ATOM     10  C   UNL     1       2.225   3.140  22.022  0.00  0.00    +0.000 C 
ATOM     11  O   UNL     1       1.431   2.133  21.380  0.00  0.00    +0.000 OA
ATOM     12  C   UNL     1       1.795   2.037  19.993  0.00  0.00    +0.000 C 
ATOM     13  C   UNL     1       1.567   3.369  19.228  0.00  0.00    +0.000 C 
ATOM     14  C   UNL     1       1.955   3.135  17.768  0.00  0.00    +0.000 C 
ATOM     15  C   UNL     1       2.122   6.902  19.478  0.00  0.00    +0.000 A 
ATOM     16  C   UNL     1       1.171   7.310  20.458  0.00  0.00    +0.000 A 
ATOM     17  C   UNL     1       0.751   8.624  20.549  0.00  0.00    +0.000 A 
ATOM     18  C   UNL     1       1.284   9.505  19.647  0.00  0.00    +0.000 A 
ATOM     19  N   UNL     1       2.173   9.157  18.696  0.00  0.00    +0.000 NA
ATOM     20  C   UNL     1       2.603   7.896  18.619  0.00  0.00    +0.000 A 
ATOM     21  N   UNL     1       3.497   7.662  17.676  0.00  0.00    +0.000 NA
ATOM     22  C   UNL     1       5.611   7.214  15.867  0.00  0.00    +0.000 C 
ATOM     23  C   UNL     1       7.108   6.998  16.201  0.00  0.00    +0.000 C 
ATOM     24  C   UNL     1       7.507   7.562  17.560  0.00  0.00    +0.000 C 
ATOM     25  O   UNL     1       7.567   5.646  16.029  0.00  0.00    +0.000 OA
ENDROOT
BRANCH  18  26
ATOM     26  O   UNL     1       0.806  10.803  19.720  0.00  0.00    +0.000 OA
BRANCH  26  27
ATOM     27  C   UNL     1      -0.061  11.119  20.741  0.00  0.00    +0.000 A 
ATOM     28  C   UNL     1      -1.149  11.919  20.393  0.00  0.00    +0.000 A 
ATOM     29  C   UNL     1      -2.099  12.258  21.356  0.00  0.00    +0.000 A 
ATOM     30  C   UNL     1      -1.962  11.788  22.663  0.00  0.00    +0.000 A 
ATOM     31  C   UNL     1      -0.887  10.969  23.004  0.00  0.00    +0.000 A 
ATOM     32  C   UNL     1       0.054  10.619  22.038  0.00  0.00    +0.000 A 
ENDBRANCH  26  27
ENDBRANCH  18  26
TORSDOF 2
ENDMDL
MODEL 7
REMARK VINA RESULT:      -7.2      4.307     10.651
REMARK  Name = 
REMARK  5 active torsions:
REMARK  status: ('A' for Active; 'I' for Inactive)
REMARK    1  A    between atoms: C_1  and  C_2
REMARK    2  A    between atoms: C_13  and  C_14
REMARK    3  A    between atoms: C_18  and  O_19
REMARK    4  A    between atoms: O_19  and  C_20
REMARK    5  A    between atoms: C_30  and  C_31
REMARK                            x       y       z     vdW  Elec       q    Type
REMARK                         _______ _______ _______ _____ _____    ______ ____
ROOT
ATOM      1  C   UNL     1      -2.078  15.329  23.315  0.00  0.00    +0.000 C 
ATOM      2  C   UNL     1      -3.382  15.083  22.565  0.00  0.00    +0.000 C 
ATOM      3  C   UNL     1      -3.218  15.056  21.036  0.00  0.00    +0.000 C 
ATOM      4  N   UNL     1      -2.741  13.756  20.580  0.00  0.00    +0.000 N 
ATOM      5  C   UNL     1      -1.457  13.586  20.120  0.00  0.00    +0.000 A 
ATOM      6  N   UNL     1      -0.632  14.631  20.116  0.00  0.00    +0.000 NA
ATOM      7  C   UNL     1       0.603  14.530  19.592  0.00  0.00    +0.000 A 
ATOM      8  N   UNL     1       1.336  15.707  19.659  0.00  0.00    +0.000 N 
ATOM      9  C   UNL     1       2.793  15.687  19.848  0.00  0.00    +0.000 C 
ATOM     10  C   UNL     1       3.273  17.008  20.452  0.00  0.00    +0.000 C 
ATOM     11  O   UNL     1       2.911  18.105  19.601  0.00  0.00    +0.000 OA
ATOM     12  C   UNL     1       1.481  18.169  19.471  0.00  0.00    +0.000 C 
ATOM     13  C   UNL     1       0.885  16.879  18.847  0.00  0.00    +0.000 C 
ATOM     14  C   UNL     1      -0.625  17.078  18.729  0.00  0.00    +0.000 C 
ATOM     15  C   UNL     1       1.042  13.303  19.060  0.00  0.00    +0.000 A 
ATOM     16  C   UNL     1       2.302  12.999  18.468  0.00  0.00    +0.000 A 
ATOM     17  C   UNL     1       2.576  11.742  17.963  0.00  0.00    +0.000 A 
ATOM     18  C   UNL     1       1.574  10.813  18.050  0.00  0.00    +0.000 A 
ATOM     19  N   UNL     1       0.364  11.064  18.588  0.00  0.00    +0.000 NA
ATOM     20  C   UNL     1       0.103  12.268  19.100  0.00  0.00    +0.000 A 
ATOM     21  N   UNL     1      -1.097  12.405  19.633  0.00  0.00    +0.000 NA
ATOM     22  C   UNL     1      -3.538  12.623  21.025  0.00  0.00    +0.000 C 
ATOM     23  C   UNL     1      -3.747  12.662  22.560  0.00  0.00    +0.000 C 
ATOM     24  C   UNL     1      -2.592  12.045  23.340  0.00  0.00    +0.000 C 
ATOM     25  O   UNL     1      -4.111  13.954  23.078  0.00  0.00    +0.000 OA
ENDROOT
BRANCH  18  26
ATOM     26  O   UNL     1       1.849   9.577  17.486  0.00  0.00    +0.000 OA
BRANCH  26  27
ATOM     27  C   UNL     1       2.047   8.509  18.330  0.00  0.00    +0.000 A 
ATOM     28  C   UNL     1       2.833   7.472  17.829  0.00  0.00    +0.000 A 
ATOM     29  C   UNL     1       3.116   6.365  18.629  0.00  0.00    +0.000 A 
ATOM     30  C   UNL     1       2.620   6.304  19.931  0.00  0.00    +0.000 A 
ATOM     31  C   UNL     1       1.855   7.351  20.440  0.00  0.00    +0.000 A 
ATOM     32  C   UNL     1       1.583   8.464  19.645  0.00  0.00    +0.000 A 
ENDBRANCH  26  27
ENDBRANCH  18  26
TORSDOF 2
ENDMDL
MODEL 8
REMARK VINA RESULT:      -7.2      3.876      9.218
REMARK  Name = 
REMARK  5 active torsions:
REMARK  status: ('A' for Active; 'I' for Inactive)
REMARK    1  A    between atoms: C_1  and  C_2
REMARK    2  A    between atoms: C_13  and  C_14
REMARK    3  A    between atoms: C_18  and  O_19
REMARK    4  A    between atoms: O_19  and  C_20
REMARK    5  A    between atoms: C_30  and  C_31
REMARK                            x       y       z     vdW  Elec       q    Type
REMARK                         _______ _______ _______ _____ _____    ______ ____
ROOT
ATOM      1  C   UNL     1       0.120  17.138  20.814  0.00  0.00    +0.000 C 
ATOM      2  C   UNL     1       1.301  16.937  21.756  0.00  0.00    +0.000 C 
ATOM      3  C   UNL     1       1.398  15.512  22.327  0.00  0.00    +0.000 C 
ATOM      4  N   UNL     1       2.034  14.606  21.379  0.00  0.00    +0.000 N 
ATOM      5  C   UNL     1       1.312  13.645  20.713  0.00  0.00    +0.000 A 
ATOM      6  N   UNL     1       0.001  13.563  20.928  0.00  0.00    +0.000 NA
ATOM      7  C   UNL     1      -0.727  12.581  20.365  0.00  0.00    +0.000 A 
ATOM      8  N   UNL     1      -2.076  12.629  20.692  0.00  0.00    +0.000 N 
ATOM      9  C   UNL     1      -3.106  12.209  19.732  0.00  0.00    +0.000 C 
ATOM     10  C   UNL     1      -4.447  12.868  20.063  0.00  0.00    +0.000 C 
ATOM     11  O   UNL     1      -4.856  12.524  21.394  0.00  0.00    +0.000 OA
ATOM     12  C   UNL     1      -3.883  12.995  22.340  0.00  0.00    +0.000 C 
ATOM     13  C   UNL     1      -2.481  12.372  22.108  0.00  0.00    +0.000 C 
ATOM     14  C   UNL     1      -1.547  12.920  23.187  0.00  0.00    +0.000 C 
ATOM     15  C   UNL     1      -0.107  11.640  19.522  0.00  0.00    +0.000 A 
ATOM     16  C   UNL     1      -0.701  10.540  18.840  0.00  0.00    +0.000 A 
ATOM     17  C   UNL     1       0.054   9.682  18.062  0.00  0.00    +0.000 A 
ATOM     18  C   UNL     1       1.397   9.936  17.992  0.00  0.00    +0.000 A 
ATOM     19  N   UNL     1       2.001  10.957  18.635  0.00  0.00    +0.000 NA
ATOM     20  C   UNL     1       1.273  11.803  19.366  0.00  0.00    +0.000 A 
ATOM     21  N   UNL     1       1.951  12.787  19.928  0.00  0.00    +0.000 NA
ATOM     22  C   UNL     1       3.332  15.047  20.890  0.00  0.00    +0.000 C 
ATOM     23  C   UNL     1       3.257  16.498  20.352  0.00  0.00    +0.000 C 
ATOM     24  C   UNL     1       2.783  16.578  18.906  0.00  0.00    +0.000 C 
ATOM     25  O   UNL     1       2.539  17.411  21.200  0.00  0.00    +0.000 OA
ENDROOT
BRANCH  18  26
ATOM     26  O   UNL     1       2.143   9.031  17.255  0.00  0.00    +0.000 OA
BRANCH  26  27
ATOM     27  C   UNL     1       2.701   7.961  17.914  0.00  0.00    +0.000 A 
ATOM     28  C   UNL     1       2.090   7.596  19.113  0.00  0.00    +0.000 A 
ATOM     29  C   UNL     1       2.566   6.500  19.831  0.00  0.00    +0.000 A 
ATOM     30  C   UNL     1       3.648   5.766  19.342  0.00  0.00    +0.000 A 
ATOM     31  C   UNL     1       4.243   6.117  18.132  0.00  0.00    +0.000 A 
ATOM     32  C   UNL     1       3.758   7.204  17.408  0.00  0.00    +0.000 A 
ENDBRANCH  26  27
ENDBRANCH  18  26
TORSDOF 2
ENDMDL
MODEL 9
REMARK VINA RESULT:      -7.0      4.256     10.735
REMARK  Name = 
REMARK  5 active torsions:
REMARK  status: ('A' for Active; 'I' for Inactive)
REMARK    1  A    between atoms: C_1  and  C_2
REMARK    2  A    between atoms: C_13  and  C_14
REMARK    3  A    between atoms: C_18  and  O_19
REMARK    4  A    between atoms: O_19  and  C_20
REMARK    5  A    between atoms: C_30  and  C_31
REMARK                            x       y       z     vdW  Elec       q    Type
REMARK                         _______ _______ _______ _____ _____    ______ ____
ROOT
ATOM      1  C   UNL     1      -7.008  12.238  21.463  0.00  0.00    +0.000 C 
ATOM      2  C   UNL     1      -7.359  12.626  20.031  0.00  0.00    +0.000 C 
ATOM      3  C   UNL     1      -6.255  13.427  19.321  0.00  0.00    +0.000 C 
ATOM      4  N   UNL     1      -5.217  12.546  18.800  0.00  0.00    +0.000 N 
ATOM      5  C   UNL     1      -3.972  12.488  19.377  0.00  0.00    +0.000 A 
ATOM      6  N   UNL     1      -3.725  13.239  20.449  0.00  0.00    +0.000 NA
ATOM      7  C   UNL     1      -2.494  13.279  20.991  0.00  0.00    +0.000 A 
ATOM      8  N   UNL     1      -2.398  14.112  22.098  0.00  0.00    +0.000 N 
ATOM      9  C   UNL     1      -1.496  13.794  23.213  0.00  0.00    +0.000 C 
ATOM     10  C   UNL     1      -1.967  14.482  24.496  0.00  0.00    +0.000 C 
ATOM     11  O   UNL     1      -2.022  15.903  24.307  0.00  0.00    +0.000 OA
ATOM     12  C   UNL     1      -2.957  16.220  23.263  0.00  0.00    +0.000 C 
ATOM     13  C   UNL     1      -2.563  15.585  21.903  0.00  0.00    +0.000 C 
ATOM     14  C   UNL     1      -3.606  16.017  20.872  0.00  0.00    +0.000 C 
ATOM     15  C   UNL     1      -1.456  12.505  20.438  0.00  0.00    +0.000 A 
ATOM     16  C   UNL     1      -0.100  12.413  20.865  0.00  0.00    +0.000 A 
ATOM     17  C   UNL     1       0.814  11.622  20.195  0.00  0.00    +0.000 A 
ATOM     18  C   UNL     1       0.353  10.944  19.098  0.00  0.00    +0.000 A 
ATOM     19  N   UNL     1      -0.917  11.016  18.652  0.00  0.00    +0.000 NA
ATOM     20  C   UNL     1      -1.810  11.758  19.310  0.00  0.00    +0.000 A 
ATOM     21  N   UNL     1      -3.033  11.738  18.814  0.00  0.00    +0.000 NA
ATOM     22  C   UNL     1      -5.700  11.475  17.941  0.00  0.00    +0.000 C 
ATOM     23  C   UNL     1      -6.843  10.687  18.628  0.00  0.00    +0.000 C 
ATOM     24  C   UNL     1      -6.341   9.593  19.563  0.00  0.00    +0.000 C 
ATOM     25  O   UNL     1      -7.839  11.512  19.258  0.00  0.00    +0.000 OA
ENDROOT
BRANCH  18  26
ATOM     26  O   UNL     1       1.299  10.203  18.408  0.00  0.00    +0.000 OA
BRANCH  26  27
ATOM     27  C   UNL     1       1.605   8.946  18.876  0.00  0.00    +0.000 A 
ATOM     28  C   UNL     1       2.253   8.101  17.976  0.00  0.00    +0.000 A 
ATOM     29  C   UNL     1       2.634   6.820  18.376  0.00  0.00    +0.000 A 
ATOM     30  C   UNL     1       2.373   6.392  19.679  0.00  0.00    +0.000 A 
ATOM     31  C   UNL     1       1.747   7.246  20.584  0.00  0.00    +0.000 A 
ATOM     32  C   UNL     1       1.379   8.531  20.189  0.00  0.00    +0.000 A 
ENDBRANCH  26  27
ENDBRANCH  18  26
TORSDOF 2
ENDMDL
