MODEL 1
REMARK VINA RESULT:      -8.0      0.000      0.000
REMARK  Name = 
REMARK  7 active torsions:
REMARK  status: ('A' for Active; 'I' for Inactive)
REMARK    1  A    between atoms: C_2  and  C_3
REMARK    2  A    between atoms: C_3  and  O_4
REMARK    3  A    between atoms: O_4  and  C_5
REMARK    4  A    between atoms: C_5  and  C_7
REMARK    5  A    between atoms: C_7  and  C_8
REMARK    6  A    between atoms: N_16  and  C_17
REMARK    7  A    between atoms: C_22  and  C_23
REMARK                            x       y       z     vdW  Elec       q    Type
REMARK                         _______ _______ _______ _____ _____    ______ ____
ROOT
ATOM      1  O   UNL     1       1.712   6.101  17.793  0.00  0.00    +0.000 OA
ATOM      2  C   UNL     1       2.566   6.753  18.395  0.00  0.00    +0.000 C 
ATOM      3  N   UNL     1       3.269   6.303  19.506  0.00  0.00    +0.000 N 
ATOM      4  H   UNL     1       4.148   6.770  19.698  0.00  0.00    +0.000 HD
ENDROOT
BRANCH   3   5
ATOM      5  C   UNL     1       3.129   4.967  19.978  0.00  0.00    +0.000 A 
ATOM      6  C   UNL     1       2.246   4.721  21.048  0.00  0.00    +0.000 A 
ATOM      7  C   UNL     1       2.112   3.450  21.601  0.00  0.00    +0.000 A 
ATOM      8  C   UNL     1       2.834   2.393  21.066  0.00  0.00    +0.000 A 
ATOM      9  C   UNL     1       3.704   2.617  20.004  0.00  0.00    +0.000 A 
ATOM     10  C   UNL     1       3.918   3.907  19.451  0.00  0.00    +0.000 A 
BRANCH  10  11
ATOM     11  C   UNL     1       4.922   4.070  18.363  0.00  0.00    +0.000 A 
ATOM     12  C   UNL     1       4.647   3.753  17.021  0.00  0.00    +0.000 A 
ATOM     13  C   UNL     1       5.550   4.055  15.997  0.00  0.00    +0.000 A 
ATOM     14  C   UNL     1       6.790   4.603  16.301  0.00  0.00    +0.000 A 
ATOM     15  C   UNL     1       7.132   4.834  17.627  0.00  0.00    +0.000 A 
ATOM     16  C   UNL     1       6.206   4.578  18.643  0.00  0.00    +0.000 A 
ENDBRANCH  10  11
ENDBRANCH   3   5
BRANCH   2  17
ATOM     17  C   UNL     1       3.041   8.094  17.823  0.00  0.00    +0.000 C 
BRANCH  17  18
ATOM     18  O   UNL     1       2.074   8.957  17.230  0.00  0.00    +0.000 OA
BRANCH  18  19
ATOM     19  C   UNL     1       1.606   9.954  18.029  0.00  0.00    +0.000 C 
ATOM     20  O   UNL     1       2.222  10.983  18.280  0.00  0.00    +0.000 OA
BRANCH  19  21
ATOM     21  C   UNL     1       0.209   9.648  18.527  0.00  0.00    +0.000 C 
BRANCH  21  22
ATOM     22  C   UNL     1      -0.140  10.370  19.806  0.00  0.00    +0.000 A 
ATOM     23  C   UNL     1       0.107   9.791  21.066  0.00  0.00    +0.000 A 
ATOM     24 CL   UNL     1       0.900   8.263  21.237  0.00  0.00    +0.000 Cl
ATOM     25  C   UNL     1      -0.270  10.439  22.247  0.00  0.00    +0.000 A 
ATOM     26  C   UNL     1      -0.908  11.675  22.197  0.00  0.00    +0.000 A 
ATOM     27  C   UNL     1      -1.150  12.272  20.964  0.00  0.00    +0.000 A 
ATOM     28  C   UNL     1      -0.766  11.630  19.781  0.00  0.00    +0.000 A 
ATOM     29 CL   UNL     1      -1.082  12.471  18.303  0.00  0.00    +0.000 Cl
ENDBRANCH  21  22
ENDBRANCH  19  21
ENDBRANCH  18  19
ENDBRANCH  17  18
ENDBRANCH   2  17
TORSDOF 7
ENDMDL
MODEL 2
REMARK VINA RESULT:      -8.0      1.588      2.522
REMARK  Name = 
REMARK  7 active torsions:
REMARK  status: ('A' for Active; 'I' for Inactive)
REMARK    1  A    between atoms: C_2  and  C_3
REMARK    2  A    between atoms: C_3  and  O_4
REMARK    3  A    between atoms: O_4  and  C_5
REMARK    4  A    between atoms: C_5  and  C_7
REMARK    5  A    between atoms: C_7  and  C_8
REMARK    6  A    between atoms: N_16  and  C_17
REMARK    7  A    between atoms: C_22  and  C_23
REMARK                            x       y       z     vdW  Elec       q    Type
REMARK                         _______ _______ _______ _____ _____    ______ ____
ROOT
ATOM      1  O   UNL     1       3.589   6.530  19.503  0.00  0.00    +0.000 OA
ATOM      2  C   UNL     1       2.984   6.797  18.464  0.00  0.00    +0.000 C 
ATOM      3  N   UNL     1       2.438   5.854  17.601  0.00  0.00    +0.000 N 
ATOM      4  H   UNL     1       1.701   6.184  16.988  0.00  0.00    +0.000 HD
ENDROOT
BRANCH   3   5
ATOM      5  C   UNL     1       2.441   4.467  17.922  0.00  0.00    +0.000 A 
ATOM      6  C   UNL     1       1.323   3.930  18.592  0.00  0.00    +0.000 A 
ATOM      7  C   UNL     1       1.290   2.598  18.994  0.00  0.00    +0.000 A 
ATOM      8  C   UNL     1       2.362   1.768  18.699  0.00  0.00    +0.000 A 
ATOM      9  C   UNL     1       3.470   2.280  18.030  0.00  0.00    +0.000 A 
ATOM     10  C   UNL     1       3.571   3.646  17.657  0.00  0.00    +0.000 A 
BRANCH  10  11
ATOM     11  C   UNL     1       4.824   4.127  17.009  0.00  0.00    +0.000 A 
ATOM     12  C   UNL     1       5.973   4.473  17.742  0.00  0.00    +0.000 A 
ATOM     13  C   UNL     1       7.182   4.776  17.108  0.00  0.00    +0.000 A 
ATOM     14  C   UNL     1       7.248   4.826  15.721  0.00  0.00    +0.000 A 
ATOM     15  C   UNL     1       6.104   4.588  14.970  0.00  0.00    +0.000 A 
ATOM     16  C   UNL     1       4.910   4.235  15.607  0.00  0.00    +0.000 A 
ENDBRANCH  10  11
ENDBRANCH   3   5
BRANCH   2  17
ATOM     17  C   UNL     1       2.638   8.255  18.138  0.00  0.00    +0.000 C 
BRANCH  17  18
ATOM     18  O   UNL     1       1.342   8.543  17.621  0.00  0.00    +0.000 OA
BRANCH  18  19
ATOM     19  C   UNL     1       0.672   9.552  18.242  0.00  0.00    +0.000 C 
ATOM     20  O   UNL     1      -0.426   9.969  17.892  0.00  0.00    +0.000 OA
BRANCH  19  21
ATOM     21  C   UNL     1       1.437  10.058  19.447  0.00  0.00    +0.000 C 
BRANCH  21  22
ATOM     22  C   UNL     1       0.570  10.245  20.668  0.00  0.00    +0.000 A 
ATOM     23  C   UNL     1      -0.016  11.490  20.968  0.00  0.00    +0.000 A 
ATOM     24 CL   UNL     1       0.142  12.858  19.922  0.00  0.00    +0.000 Cl
ATOM     25  C   UNL     1      -0.772  11.672  22.131  0.00  0.00    +0.000 A 
ATOM     26  C   UNL     1      -0.953  10.620  23.024  0.00  0.00    +0.000 A 
ATOM     27  C   UNL     1      -0.394   9.378  22.742  0.00  0.00    +0.000 A 
ATOM     28  C   UNL     1       0.355   9.189  21.575  0.00  0.00    +0.000 A 
ATOM     29 CL   UNL     1       0.979   7.600  21.300  0.00  0.00    +0.000 Cl
ENDBRANCH  21  22
ENDBRANCH  19  21
ENDBRANCH  18  19
ENDBRANCH  17  18
ENDBRANCH   2  17
TORSDOF 7
ENDMDL
MODEL 3
REMARK VINA RESULT:      -7.9      1.192      1.740
REMARK  Name = 
REMARK  7 active torsions:
REMARK  status: ('A' for Active; 'I' for Inactive)
REMARK    1  A    between atoms: C_2  and  C_3
REMARK    2  A    between atoms: C_3  and  O_4
REMARK    3  A    between atoms: O_4  and  C_5
REMARK    4  A    between atoms: C_5  and  C_7
REMARK    5  A    between atoms: C_7  and  C_8
REMARK    6  A    between atoms: N_16  and  C_17
REMARK    7  A    between atoms: C_22  and  C_23
REMARK                            x       y       z     vdW  Elec       q    Type
REMARK                         _______ _______ _______ _____ _____    ______ ____
ROOT
ATOM      1  O   UNL     1       1.865   6.029  17.653  0.00  0.00    +0.000 OA
ATOM      2  C   UNL     1       2.522   6.774  18.382  0.00  0.00    +0.000 C 
ATOM      3  N   UNL     1       3.090   6.398  19.593  0.00  0.00    +0.000 N 
ATOM      4  H   UNL     1       3.860   6.969  19.921  0.00  0.00    +0.000 HD
ENDROOT
BRANCH   3   5
ATOM      5  C   UNL     1       3.048   5.047  20.042  0.00  0.00    +0.000 A 
ATOM      6  C   UNL     1       2.128   4.703  21.053  0.00  0.00    +0.000 A 
ATOM      7  C   UNL     1       2.081   3.416  21.582  0.00  0.00    +0.000 A 
ATOM      8  C   UNL     1       2.932   2.440  21.083  0.00  0.00    +0.000 A 
ATOM      9  C   UNL     1       3.840   2.761  20.079  0.00  0.00    +0.000 A 
ATOM     10  C   UNL     1       3.964   4.074  19.554  0.00  0.00    +0.000 A 
BRANCH  10  11
ATOM     11  C   UNL     1       5.013   4.348  18.531  0.00  0.00    +0.000 A 
ATOM     12  C   UNL     1       6.241   4.954  18.848  0.00  0.00    +0.000 A 
ATOM     13  C   UNL     1       7.268   5.064  17.905  0.00  0.00    +0.000 A 
ATOM     14  C   UNL     1       7.059   4.647  16.596  0.00  0.00    +0.000 A 
ATOM     15  C   UNL     1       5.821   4.136  16.227  0.00  0.00    +0.000 A 
ATOM     16  C   UNL     1       4.815   3.981  17.185  0.00  0.00    +0.000 A 
ENDBRANCH  10  11
ENDBRANCH   3   5
BRANCH   2  17
ATOM     17  C   UNL     1       2.907   8.173  17.889  0.00  0.00    +0.000 C 
BRANCH  17  18
ATOM     18  O   UNL     1       1.872   9.033  17.419  0.00  0.00    +0.000 OA
BRANCH  18  19
ATOM     19  C   UNL     1       1.487  10.014  18.279  0.00  0.00    +0.000 C 
ATOM     20  O   UNL     1       1.973  11.138  18.306  0.00  0.00    +0.000 OA
BRANCH  19  21
ATOM     21  C   UNL     1       0.348   9.553  19.164  0.00  0.00    +0.000 C 
BRANCH  21  22
ATOM     22  C   UNL     1      -0.765  10.565  19.281  0.00  0.00    +0.000 A 
ATOM     23  C   UNL     1      -0.865  11.418  20.398  0.00  0.00    +0.000 A 
ATOM     24 CL   UNL     1       0.317  11.425  21.660  0.00  0.00    +0.000 Cl
ATOM     25  C   UNL     1      -1.931  12.316  20.529  0.00  0.00    +0.000 A 
ATOM     26  C   UNL     1      -2.922  12.377  19.555  0.00  0.00    +0.000 A 
ATOM     27  C   UNL     1      -2.836  11.554  18.437  0.00  0.00    +0.000 A 
ATOM     28  C   UNL     1      -1.768  10.661  18.298  0.00  0.00    +0.000 A 
ATOM     29 CL   UNL     1      -1.735   9.706  16.856  0.00  0.00    +0.000 Cl
ENDBRANCH  21  22
ENDBRANCH  19  21
ENDBRANCH  18  19
ENDBRANCH  17  18
ENDBRANCH   2  17
TORSDOF 7
ENDMDL
MODEL 4
REMARK VINA RESULT:      -7.8      1.624      2.381
REMARK  Name = 
REMARK  7 active torsions:
REMARK  status: ('A' for Active; 'I' for Inactive)
REMARK    1  A    between atoms: C_2  and  C_3
REMARK    2  A    between atoms: C_3  and  O_4
REMARK    3  A    between atoms: O_4  and  C_5
REMARK    4  A    between atoms: C_5  and  C_7
REMARK    5  A    between atoms: C_7  and  C_8
REMARK    6  A    between atoms: N_16  and  C_17
REMARK    7  A    between atoms: C_22  and  C_23
REMARK                            x       y       z     vdW  Elec       q    Type
REMARK                         _______ _______ _______ _____ _____    ______ ____
ROOT
ATOM      1  O   UNL     1       2.520   6.885  19.876  0.00  0.00    +0.000 OA
ATOM      2  C   UNL     1       2.569   7.115  18.667  0.00  0.00    +0.000 C 
ATOM      3  N   UNL     1       2.654   6.141  17.679  0.00  0.00    +0.000 N 
ATOM      4  H   UNL     1       2.355   6.420  16.751  0.00  0.00    +0.000 HD
ENDROOT
BRANCH   3   5
ATOM      5  C   UNL     1       2.572   4.756  17.996  0.00  0.00    +0.000 A 
ATOM      6  C   UNL     1       1.298   4.176  18.154  0.00  0.00    +0.000 A 
ATOM      7  C   UNL     1       1.149   2.843  18.528  0.00  0.00    +0.000 A 
ATOM      8  C   UNL     1       2.276   2.056  18.717  0.00  0.00    +0.000 A 
ATOM      9  C   UNL     1       3.542   2.611  18.557  0.00  0.00    +0.000 A 
ATOM     10  C   UNL     1       3.740   3.979  18.236  0.00  0.00    +0.000 A 
BRANCH  10  11
ATOM     11  C   UNL     1       5.130   4.509  18.156  0.00  0.00    +0.000 A 
ATOM     12  C   UNL     1       5.876   4.507  16.964  0.00  0.00    +0.000 A 
ATOM     13  C   UNL     1       7.118   5.145  16.876  0.00  0.00    +0.000 A 
ATOM     14  C   UNL     1       7.684   5.725  18.004  0.00  0.00    +0.000 A 
ATOM     15  C   UNL     1       7.018   5.654  19.221  0.00  0.00    +0.000 A 
ATOM     16  C   UNL     1       5.754   5.061  19.292  0.00  0.00    +0.000 A 
ENDBRANCH  10  11
ENDBRANCH   3   5
BRANCH   2  17
ATOM     17  C   UNL     1       2.363   8.546  18.156  0.00  0.00    +0.000 C 
BRANCH  17  18
ATOM     18  O   UNL     1       1.074   8.909  17.667  0.00  0.00    +0.000 OA
BRANCH  18  19
ATOM     19  C   UNL     1       0.412   9.848  18.395  0.00  0.00    +0.000 C 
ATOM     20  O   UNL     1      -0.720  10.244  18.144  0.00  0.00    +0.000 OA
BRANCH  19  21
ATOM     21  C   UNL     1       1.234  10.301  19.583  0.00  0.00    +0.000 C 
BRANCH  21  22
ATOM     22  C   UNL     1       0.406  10.928  20.678  0.00  0.00    +0.000 A 
ATOM     23  C   UNL     1       0.265  12.326  20.781  0.00  0.00    +0.000 A 
ATOM     24 CL   UNL     1       0.954  13.409  19.621  0.00  0.00    +0.000 Cl
ATOM     25  C   UNL     1      -0.456  12.905  21.831  0.00  0.00    +0.000 A 
ATOM     26  C   UNL     1      -1.047  12.104  22.803  0.00  0.00    +0.000 A 
ATOM     27  C   UNL     1      -0.932  10.720  22.714  0.00  0.00    +0.000 A 
ATOM     28  C   UNL     1      -0.218  10.137  21.661  0.00  0.00    +0.000 A 
ATOM     29 CL   UNL     1      -0.163   8.409  21.622  0.00  0.00    +0.000 Cl
ENDBRANCH  21  22
ENDBRANCH  19  21
ENDBRANCH  18  19
ENDBRANCH  17  18
ENDBRANCH   2  17
TORSDOF 7
ENDMDL
MODEL 5
REMARK VINA RESULT:      -7.8      0.748      2.096
REMARK  Name = 
REMARK  7 active torsions:
REMARK  status: ('A' for Active; 'I' for Inactive)
REMARK    1  A    between atoms: C_2  and  C_3
REMARK    2  A    between atoms: C_3  and  O_4
REMARK    3  A    between atoms: O_4  and  C_5
REMARK    4  A    between atoms: C_5  and  C_7
REMARK    5  A    between atoms: C_7  and  C_8
REMARK    6  A    between atoms: N_16  and  C_17
REMARK    7  A    between atoms: C_22  and  C_23
REMARK                            x       y       z     vdW  Elec       q    Type
REMARK                         _______ _______ _______ _____ _____    ______ ____
ROOT
ATOM      1  O   UNL     1       1.812   6.050  17.730  0.00  0.00    +0.000 OA
ATOM      2  C   UNL     1       2.478   6.785  18.460  0.00  0.00    +0.000 C 
ATOM      3  N   UNL     1       3.071   6.391  19.652  0.00  0.00    +0.000 N 
ATOM      4  H   UNL     1       3.844   6.960  19.977  0.00  0.00    +0.000 HD
ENDROOT
BRANCH   3   5
ATOM      5  C   UNL     1       3.045   5.032  20.077  0.00  0.00    +0.000 A 
ATOM      6  C   UNL     1       2.114   4.654  21.066  0.00  0.00    +0.000 A 
ATOM      7  C   UNL     1       2.081   3.357  21.572  0.00  0.00    +0.000 A 
ATOM      8  C   UNL     1       2.956   2.405  21.070  0.00  0.00    +0.000 A 
ATOM      9  C   UNL     1       3.875   2.759  20.088  0.00  0.00    +0.000 A 
ATOM     10  C   UNL     1       3.985   4.083  19.588  0.00  0.00    +0.000 A 
BRANCH  10  11
ATOM     11  C   UNL     1       5.047   4.393  18.589  0.00  0.00    +0.000 A 
ATOM     12  C   UNL     1       6.256   5.020  18.936  0.00  0.00    +0.000 A 
ATOM     13  C   UNL     1       7.298   5.164  18.013  0.00  0.00    +0.000 A 
ATOM     14  C   UNL     1       7.121   4.761  16.695  0.00  0.00    +0.000 A 
ATOM     15  C   UNL     1       5.901   4.231  16.297  0.00  0.00    +0.000 A 
ATOM     16  C   UNL     1       4.881   4.041  17.234  0.00  0.00    +0.000 A 
ENDBRANCH  10  11
ENDBRANCH   3   5
BRANCH   2  17
ATOM     17  C   UNL     1       2.846   8.196  17.985  0.00  0.00    +0.000 C 
BRANCH  17  18
ATOM     18  O   UNL     1       1.868   8.945  17.268  0.00  0.00    +0.000 OA
BRANCH  18  19
ATOM     19  C   UNL     1       0.974   9.629  18.033  0.00  0.00    +0.000 C 
ATOM     20  O   UNL     1      -0.234   9.647  17.832  0.00  0.00    +0.000 OA
BRANCH  19  21
ATOM     21  C   UNL     1       1.660  10.322  19.192  0.00  0.00    +0.000 C 
BRANCH  21  22
ATOM     22  C   UNL     1       0.707  10.752  20.280  0.00  0.00    +0.000 A 
ATOM     23  C   UNL     1       0.086  12.016  20.254  0.00  0.00    +0.000 A 
ATOM     24 CL   UNL     1       0.303  13.121  18.941  0.00  0.00    +0.000 Cl
ATOM     25  C   UNL     1      -0.753  12.431  21.294  0.00  0.00    +0.000 A 
ATOM     26  C   UNL     1      -0.985  11.600  22.384  0.00  0.00    +0.000 A 
ATOM     27  C   UNL     1      -0.393  10.341  22.425  0.00  0.00    +0.000 A 
ATOM     28  C   UNL     1       0.440   9.918  21.383  0.00  0.00    +0.000 A 
ATOM     29 CL   UNL     1       1.100   8.325  21.512  0.00  0.00    +0.000 Cl
ENDBRANCH  21  22
ENDBRANCH  19  21
ENDBRANCH  18  19
ENDBRANCH  17  18
ENDBRANCH   2  17
TORSDOF 7
ENDMDL
MODEL 6
REMARK VINA RESULT:      -7.8      1.472      1.737
REMARK  Name = 
REMARK  7 active torsions:
REMARK  status: ('A' for Active; 'I' for Inactive)
REMARK    1  A    between atoms: C_2  and  C_3
REMARK    2  A    between atoms: C_3  and  O_4
REMARK    3  A    between atoms: O_4  and  C_5
REMARK    4  A    between atoms: C_5  and  C_7
REMARK    5  A    between atoms: C_7  and  C_8
REMARK    6  A    between atoms: N_16  and  C_17
REMARK    7  A    between atoms: C_22  and  C_23
REMARK                            x       y       z     vdW  Elec       q    Type
REMARK                         _______ _______ _______ _____ _____    ______ ____
ROOT
ATOM      1  O   UNL     1       3.087   6.340  19.945  0.00  0.00    +0.000 OA
ATOM      2  C   UNL     1       2.794   6.722  18.811  0.00  0.00    +0.000 C 
ATOM      3  N   UNL     1       2.485   5.883  17.748  0.00  0.00    +0.000 N 
ATOM      4  H   UNL     1       1.950   6.296  16.993  0.00  0.00    +0.000 HD
ENDROOT
BRANCH   3   5
ATOM      5  C   UNL     1       2.371   4.475  17.926  0.00  0.00    +0.000 A 
ATOM      6  C   UNL     1       1.157   3.956  18.420  0.00  0.00    +0.000 A 
ATOM      7  C   UNL     1       1.001   2.597  18.679  0.00  0.00    +0.000 A 
ATOM      8  C   UNL     1       2.049   1.726  18.414  0.00  0.00    +0.000 A 
ATOM      9  C   UNL     1       3.251   2.221  17.917  0.00  0.00    +0.000 A 
ATOM     10  C   UNL     1       3.473   3.605  17.697  0.00  0.00    +0.000 A 
BRANCH  10  11
ATOM     11  C   UNL     1       4.815   4.057  17.233  0.00  0.00    +0.000 A 
ATOM     12  C   UNL     1       5.829   4.458  18.121  0.00  0.00    +0.000 A 
ATOM     13  C   UNL     1       7.126   4.733  17.674  0.00  0.00    +0.000 A 
ATOM     14  C   UNL     1       7.417   4.698  16.316  0.00  0.00    +0.000 A 
ATOM     15  C   UNL     1       6.411   4.404  15.405  0.00  0.00    +0.000 A 
ATOM     16  C   UNL     1       5.129   4.080  15.860  0.00  0.00    +0.000 A 
ENDBRANCH  10  11
ENDBRANCH   3   5
BRANCH   2  17
ATOM     17  C   UNL     1       2.581   8.217  18.544  0.00  0.00    +0.000 C 
BRANCH  17  18
ATOM     18  O   UNL     1       1.293   8.650  18.115  0.00  0.00    +0.000 OA
BRANCH  18  19
ATOM     19  C   UNL     1       0.975   9.938  18.418  0.00  0.00    +0.000 C 
ATOM     20  O   UNL     1       1.741  10.885  18.292  0.00  0.00    +0.000 OA
BRANCH  19  21
ATOM     21  C   UNL     1      -0.462  10.054  18.881  0.00  0.00    +0.000 C 
BRANCH  21  22
ATOM     22  C   UNL     1      -0.600  10.679  20.248  0.00  0.00    +0.000 A 
ATOM     23  C   UNL     1      -0.397   9.926  21.422  0.00  0.00    +0.000 A 
ATOM     24 CL   UNL     1       0.103   8.271  21.380  0.00  0.00    +0.000 Cl
ATOM     25  C   UNL     1      -0.582  10.496  22.687  0.00  0.00    +0.000 A 
ATOM     26  C   UNL     1      -0.978  11.824  22.809  0.00  0.00    +0.000 A 
ATOM     27  C   UNL     1      -1.171  12.589  21.663  0.00  0.00    +0.000 A 
ATOM     28  C   UNL     1      -0.979  12.026  20.397  0.00  0.00    +0.000 A 
ATOM     29 CL   UNL     1      -1.212  13.071  19.038  0.00  0.00    +0.000 Cl
ENDBRANCH  21  22
ENDBRANCH  19  21
ENDBRANCH  18  19
ENDBRANCH  17  18
ENDBRANCH   2  17
TORSDOF 7
ENDMDL
MODEL 7
REMARK VINA RESULT:      -7.8      1.380      1.434
REMARK  Name = 
REMARK  7 active torsions:
REMARK  status: ('A' for Active; 'I' for Inactive)
REMARK    1  A    between atoms: C_2  and  C_3
REMARK    2  A    between atoms: C_3  and  O_4
REMARK    3  A    between atoms: O_4  and  C_5
REMARK    4  A    between atoms: C_5  and  C_7
REMARK    5  A    between atoms: C_7  and  C_8
REMARK    6  A    between atoms: N_16  and  C_17
REMARK    7  A    between atoms: C_22  and  C_23
REMARK                            x       y       z     vdW  Elec       q    Type
REMARK                         _______ _______ _______ _____ _____    ______ ____
ROOT
ATOM      1  O   UNL     1       3.732   6.505  19.428  0.00  0.00    +0.000 OA
ATOM      2  C   UNL     1       3.139   6.756  18.378  0.00  0.00    +0.000 C 
ATOM      3  N   UNL     1       2.564   5.804  17.546  0.00  0.00    +0.000 N 
ATOM      4  H   UNL     1       1.840   6.136  16.920  0.00  0.00    +0.000 HD
ENDROOT
BRANCH   3   5
ATOM      5  C   UNL     1       2.519   4.429  17.915  0.00  0.00    +0.000 A 
ATOM      6  C   UNL     1       1.389   3.957  18.612  0.00  0.00    +0.000 A 
ATOM      7  C   UNL     1       1.311   2.641  19.060  0.00  0.00    +0.000 A 
ATOM      8  C   UNL     1       2.349   1.763  18.784  0.00  0.00    +0.000 A 
ATOM      9  C   UNL     1       3.468   2.210  18.088  0.00  0.00    +0.000 A 
ATOM     10  C   UNL     1       3.616   3.558  17.668  0.00  0.00    +0.000 A 
BRANCH  10  11
ATOM     11  C   UNL     1       4.879   3.970  16.993  0.00  0.00    +0.000 A 
ATOM     12  C   UNL     1       4.994   4.073  15.596  0.00  0.00    +0.000 A 
ATOM     13  C   UNL     1       6.139   4.605  14.993  0.00  0.00    +0.000 A 
ATOM     14  C   UNL     1       7.232   4.966  15.771  0.00  0.00    +0.000 A 
ATOM     15  C   UNL     1       7.187   4.781  17.147  0.00  0.00    +0.000 A 
ATOM     16  C   UNL     1       6.022   4.297  17.750  0.00  0.00    +0.000 A 
ENDBRANCH  10  11
ENDBRANCH   3   5
BRANCH   2  17
ATOM     17  C   UNL     1       2.844   8.213  18.002  0.00  0.00    +0.000 C 
BRANCH  17  18
ATOM     18  O   UNL     1       1.487   8.597  17.799  0.00  0.00    +0.000 OA
BRANCH  18  19
ATOM     19  C   UNL     1       1.133   9.803  18.321  0.00  0.00    +0.000 C 
ATOM     20  O   UNL     1       1.875  10.776  18.375  0.00  0.00    +0.000 OA
BRANCH  19  21
ATOM     21  C   UNL     1      -0.310   9.799  18.781  0.00  0.00    +0.000 C 
BRANCH  21  22
ATOM     22  C   UNL     1      -0.492  10.333  20.180  0.00  0.00    +0.000 A 
ATOM     23  C   UNL     1      -0.112   9.579  21.308  0.00  0.00    +0.000 A 
ATOM     24 CL   UNL     1       0.662   8.039  21.167  0.00  0.00    +0.000 Cl
ATOM     25  C   UNL     1      -0.335  10.055  22.605  0.00  0.00    +0.000 A 
ATOM     26  C   UNL     1      -0.948  11.288  22.806  0.00  0.00    +0.000 A 
ATOM     27  C   UNL     1      -1.320  12.055  21.706  0.00  0.00    +0.000 A 
ATOM     28  C   UNL     1      -1.091  11.587  20.408  0.00  0.00    +0.000 A 
ATOM     29 CL   UNL     1      -1.559  12.631  19.111  0.00  0.00    +0.000 Cl
ENDBRANCH  21  22
ENDBRANCH  19  21
ENDBRANCH  18  19
ENDBRANCH  17  18
ENDBRANCH   2  17
TORSDOF 7
ENDMDL
MODEL 8
REMARK VINA RESULT:      -7.7      2.022      2.575
REMARK  Name = 
REMARK  7 active torsions:
REMARK  status: ('A' for Active; 'I' for Inactive)
REMARK    1  A    between atoms: C_2  and  C_3
REMARK    2  A    between atoms: C_3  and  O_4
REMARK    3  A    between atoms: O_4  and  C_5
REMARK    4  A    between atoms: C_5  and  C_7
REMARK    5  A    between atoms: C_7  and  C_8
REMARK    6  A    between atoms: N_16  and  C_17
REMARK    7  A    between atoms: C_22  and  C_23
REMARK                            x       y       z     vdW  Elec       q    Type
REMARK                         _______ _______ _______ _____ _____    ______ ____
ROOT
ATOM      1  O   UNL     1       1.761   5.889  20.867  0.00  0.00    +0.000 OA
ATOM      2  C   UNL     1       2.068   6.794  20.089  0.00  0.00    +0.000 C 
ATOM      3  N   UNL     1       2.634   6.602  18.835  0.00  0.00    +0.000 N 
ATOM      4  H   UNL     1       2.531   7.365  18.176  0.00  0.00    +0.000 HD
ENDROOT
BRANCH   3   5
ATOM      5  C   UNL     1       2.802   5.296  18.291  0.00  0.00    +0.000 A 
ATOM      6  C   UNL     1       1.666   4.475  18.150  0.00  0.00    +0.000 A 
ATOM      7  C   UNL     1       1.770   3.167  17.687  0.00  0.00    +0.000 A 
ATOM      8  C   UNL     1       3.012   2.668  17.322  0.00  0.00    +0.000 A 
ATOM      9  C   UNL     1       4.143   3.468  17.446  0.00  0.00    +0.000 A 
ATOM     10  C   UNL     1       4.091   4.786  17.971  0.00  0.00    +0.000 A 
BRANCH  10  11
ATOM     11  C   UNL     1       5.360   5.548  18.138  0.00  0.00    +0.000 A 
ATOM     12  C   UNL     1       6.288   5.263  19.156  0.00  0.00    +0.000 A 
ATOM     13  C   UNL     1       7.538   5.888  19.203  0.00  0.00    +0.000 A 
ATOM     14  C   UNL     1       7.857   6.879  18.282  0.00  0.00    +0.000 A 
ATOM     15  C   UNL     1       6.922   7.254  17.326  0.00  0.00    +0.000 A 
ATOM     16  C   UNL     1       5.693   6.590  17.251  0.00  0.00    +0.000 A 
ENDBRANCH  10  11
ENDBRANCH   3   5
BRANCH   2  17
ATOM     17  C   UNL     1       1.670   8.240  20.409  0.00  0.00    +0.000 C 
BRANCH  17  18
ATOM     18  O   UNL     1       1.327   9.101  19.327  0.00  0.00    +0.000 OA
BRANCH  18  19
ATOM     19  C   UNL     1       0.347  10.010  19.587  0.00  0.00    +0.000 C 
ATOM     20  O   UNL     1      -0.759  10.001  19.061  0.00  0.00    +0.000 OA
BRANCH  19  21
ATOM     21  C   UNL     1       0.785  11.000  20.646  0.00  0.00    +0.000 C 
BRANCH  21  22
ATOM     22  C   UNL     1      -0.367  11.595  21.419  0.00  0.00    +0.000 A 
ATOM     23  C   UNL     1      -0.849  10.992  22.597  0.00  0.00    +0.000 A 
ATOM     24 CL   UNL     1      -0.107   9.588  23.283  0.00  0.00    +0.000 Cl
ATOM     25  C   UNL     1      -1.953  11.516  23.278  0.00  0.00    +0.000 A 
ATOM     26  C   UNL     1      -2.604  12.647  22.796  0.00  0.00    +0.000 A 
ATOM     27  C   UNL     1      -2.137  13.267  21.642  0.00  0.00    +0.000 A 
ATOM     28  C   UNL     1      -1.028  12.751  20.962  0.00  0.00    +0.000 A 
ATOM     29 CL   UNL     1      -0.506  13.614  19.557  0.00  0.00    +0.000 Cl
ENDBRANCH  21  22
ENDBRANCH  19  21
ENDBRANCH  18  19
ENDBRANCH  17  18
ENDBRANCH   2  17
TORSDOF 7
ENDMDL
MODEL 9
REMARK VINA RESULT:      -7.7      1.988      3.014
REMARK  Name = 
REMARK  7 active torsions:
REMARK  status: ('A' for Active; 'I' for Inactive)
REMARK    1  A    between atoms: C_2  and  C_3
REMARK    2  A    between atoms: C_3  and  O_4
REMARK    3  A    between atoms: O_4  and  C_5
REMARK    4  A    between atoms: C_5  and  C_7
REMARK    5  A    between atoms: C_7  and  C_8
REMARK    6  A    between atoms: N_16  and  C_17
REMARK    7  A    between atoms: C_22  and  C_23
REMARK                            x       y       z     vdW  Elec       q    Type
REMARK                         _______ _______ _______ _____ _____    ______ ____
ROOT
ATOM      1  O   UNL     1       1.924   5.724  21.055  0.00  0.00    +0.000 OA
ATOM      2  C   UNL     1       2.085   6.615  20.219  0.00  0.00    +0.000 C 
ATOM      3  N   UNL     1       2.530   6.410  18.919  0.00  0.00    +0.000 N 
ATOM      4  H   UNL     1       2.306   7.137  18.250  0.00  0.00    +0.000 HD
ENDROOT
BRANCH   3   5
ATOM      5  C   UNL     1       2.732   5.097  18.404  0.00  0.00    +0.000 A 
ATOM      6  C   UNL     1       1.623   4.232  18.318  0.00  0.00    +0.000 A 
ATOM      7  C   UNL     1       1.763   2.916  17.886  0.00  0.00    +0.000 A 
ATOM      8  C   UNL     1       3.012   2.453  17.497  0.00  0.00    +0.000 A 
ATOM      9  C   UNL     1       4.115   3.298  17.567  0.00  0.00    +0.000 A 
ATOM     10  C   UNL     1       4.029   4.626  18.059  0.00  0.00    +0.000 A 
BRANCH  10  11
ATOM     11  C   UNL     1       5.273   5.439  18.170  0.00  0.00    +0.000 A 
ATOM     12  C   UNL     1       6.237   5.220  19.170  0.00  0.00    +0.000 A 
ATOM     13  C   UNL     1       7.464   5.891  19.164  0.00  0.00    +0.000 A 
ATOM     14  C   UNL     1       7.721   6.863  18.206  0.00  0.00    +0.000 A 
ATOM     15  C   UNL     1       6.748   7.174  17.265  0.00  0.00    +0.000 A 
ATOM     16  C   UNL     1       5.543   6.465  17.243  0.00  0.00    +0.000 A 
ENDBRANCH  10  11
ENDBRANCH   3   5
BRANCH   2  17
ATOM     17  C   UNL     1       1.623   8.043  20.532  0.00  0.00    +0.000 C 
BRANCH  17  18
ATOM     18  O   UNL     1       1.498   8.964  19.452  0.00  0.00    +0.000 OA
BRANCH  18  19
ATOM     19  C   UNL     1       0.510   9.891  19.581  0.00  0.00    +0.000 C 
ATOM     20  O   UNL     1      -0.535   9.879  18.942  0.00  0.00    +0.000 OA
BRANCH  19  21
ATOM     21  C   UNL     1       0.849  10.909  20.650  0.00  0.00    +0.000 C 
BRANCH  21  22
ATOM     22  C   UNL     1      -0.367  11.481  21.337  0.00  0.00    +0.000 A 
ATOM     23  C   UNL     1      -1.059  12.585  20.802  0.00  0.00    +0.000 A 
ATOM     24 CL   UNL     1      -0.621  13.302  19.290  0.00  0.00    +0.000 Cl
ATOM     25  C   UNL     1      -2.152  13.147  21.471  0.00  0.00    +0.000 A 
ATOM     26  C   UNL     1      -2.573  12.627  22.691  0.00  0.00    +0.000 A 
ATOM     27  C   UNL     1      -1.912  11.528  23.231  0.00  0.00    +0.000 A 
ATOM     28  C   UNL     1      -0.824  10.957  22.561  0.00  0.00    +0.000 A 
ATOM     29 CL   UNL     1      -0.094   9.575  23.300  0.00  0.00    +0.000 Cl
ENDBRANCH  21  22
ENDBRANCH  19  21
ENDBRANCH  18  19
ENDBRANCH  17  18
ENDBRANCH   2  17
TORSDOF 7
ENDMDL
