MODEL 1
REMARK VINA RESULT:      -9.2      0.000      0.000
REMARK  Name = 
REMARK  3 active torsions:
REMARK  status: ('A' for Active; 'I' for Inactive)
REMARK    1  A    between atoms: C_1  and  C_2
REMARK    2  A    between atoms: C_7  and  C_8
REMARK    3  A    between atoms: N_12  and  C_13
REMARK                            x       y       z     vdW  Elec       q    Type
REMARK                         _______ _______ _______ _____ _____    ______ ____
ROOT
ATOM      1  C   UNL     1       2.608   7.360  18.846  0.00  0.00    +0.000 A 
ATOM      2  N   UNL     1       3.370   7.957  17.942  0.00  0.00    +0.000 NA
ATOM      3  N   UNL     1       4.078   7.032  17.242  0.00  0.00    +0.000 NA
ATOM      4  C   UNL     1       3.785   5.851  17.727  0.00  0.00    +0.000 A 
ATOM      5  N   UNL     1       4.343   4.633  17.374  0.00  0.00    +0.000 N 
ATOM      6  C   UNL     1       4.009   3.480  18.078  0.00  0.00    +0.000 A 
ATOM      7  O   UNL     1       4.465   2.360  17.858  0.00  0.00    +0.000 OA
ATOM      8  C   UNL     1       2.961   3.601  19.122  0.00  0.00    +0.000 A 
ATOM      9  C   UNL     1       2.596   2.435  19.813  0.00  0.00    +0.000 A 
ATOM     10  C   UNL     1       1.604   2.476  20.783  0.00  0.00    +0.000 A 
ATOM     11  C   UNL     1       0.924   3.667  21.009  0.00  0.00    +0.000 A 
ATOM     12  C   UNL     1       1.248   4.820  20.281  0.00  0.00    +0.000 A 
ATOM     13  C   UNL     1       2.321   4.824  19.389  0.00  0.00    +0.000 A 
ATOM     14  N   UNL     1       2.825   5.977  18.731  0.00  0.00    +0.000 N 
ENDROOT
BRANCH   1  21
ATOM     15  C   UNL     1       0.915   9.621  17.795  0.00  0.00    +0.000 C 
ATOM     16  C   UNL     1       0.862   9.152  19.230  0.00  0.00    +0.000 A 
ATOM     17  C   UNL     1      -0.051   9.804  20.083  0.00  0.00    +0.000 A 
ATOM     18  C   UNL     1      -0.116   9.489  21.435  0.00  0.00    +0.000 A 
ATOM     19  C   UNL     1       0.794   8.586  21.966  0.00  0.00    +0.000 A 
ATOM     20  C   UNL     1       1.738   7.970  21.136  0.00  0.00    +0.000 A 
ATOM     21  C   UNL     1       1.721   8.144  19.743  0.00  0.00    +0.000 A 
ENDBRANCH   1  21
BRANCH   5  22
ATOM     22  C   UNL     1       5.246   4.574  16.276  0.00  0.00    +0.000 A 
ATOM     23  C   UNL     1       6.596   4.936  16.431  0.00  0.00    +0.000 A 
ATOM     24  C   UNL     1       7.424   5.069  15.310  0.00  0.00    +0.000 A 
ATOM     25  C   UNL     1       6.925   4.804  14.036  0.00  0.00    +0.000 A 
ATOM     26 CL   UNL     1       7.926   5.023  12.656  0.00  0.00    +0.000 Cl
ATOM     27  C   UNL     1       5.608   4.384  13.873  0.00  0.00    +0.000 A 
ATOM     28  C   UNL     1       4.773   4.282  14.987  0.00  0.00    +0.000 A 
ENDBRANCH   5  22
TORSDOF 2
ENDMDL
MODEL 2
REMARK VINA RESULT:      -8.1      3.189      5.515
REMARK  Name = 
REMARK  3 active torsions:
REMARK  status: ('A' for Active; 'I' for Inactive)
REMARK    1  A    between atoms: C_1  and  C_2
REMARK    2  A    between atoms: C_7  and  C_8
REMARK    3  A    between atoms: N_12  and  C_13
REMARK                            x       y       z     vdW  Elec       q    Type
REMARK                         _______ _______ _______ _____ _____    ______ ____
ROOT
ATOM      1  C   UNL     1       1.566  11.397  18.521  0.00  0.00    +0.000 A 
ATOM      2  N   UNL     1       2.235  10.913  17.486  0.00  0.00    +0.000 NA
ATOM      3  N   UNL     1       2.414   9.573  17.629  0.00  0.00    +0.000 NA
ATOM      4  C   UNL     1       1.882   9.218  18.773  0.00  0.00    +0.000 A 
ATOM      5  N   UNL     1       1.913   7.964  19.363  0.00  0.00    +0.000 N 
ATOM      6  C   UNL     1       1.407   7.783  20.646  0.00  0.00    +0.000 A 
ATOM      7  O   UNL     1       1.409   6.721  21.263  0.00  0.00    +0.000 OA
ATOM      8  C   UNL     1       0.742   8.946  21.285  0.00  0.00    +0.000 A 
ATOM      9  C   UNL     1       0.198   8.760  22.566  0.00  0.00    +0.000 A 
ATOM     10  C   UNL     1      -0.460   9.801  23.207  0.00  0.00    +0.000 A 
ATOM     11  C   UNL     1      -0.642  11.004  22.536  0.00  0.00    +0.000 A 
ATOM     12  C   UNL     1      -0.150  11.174  21.234  0.00  0.00    +0.000 A 
ATOM     13  C   UNL     1       0.616  10.180  20.624  0.00  0.00    +0.000 A 
ATOM     14  N   UNL     1       1.289  10.323  19.382  0.00  0.00    +0.000 N 
ENDROOT
BRANCH   1  21
ATOM     15  C   UNL     1      -1.241  12.383  18.030  0.00  0.00    +0.000 C 
ATOM     16  C   UNL     1      -0.113  13.290  18.461  0.00  0.00    +0.000 A 
ATOM     17  C   UNL     1      -0.427  14.650  18.661  0.00  0.00    +0.000 A 
ATOM     18  C   UNL     1       0.561  15.572  18.986  0.00  0.00    +0.000 A 
ATOM     19  C   UNL     1       1.886  15.162  19.024  0.00  0.00    +0.000 A 
ATOM     20  C   UNL     1       2.214  13.823  18.778  0.00  0.00    +0.000 A 
ATOM     21  C   UNL     1       1.226  12.840  18.609  0.00  0.00    +0.000 A 
ENDBRANCH   1  21
BRANCH   5  22
ATOM     22  C   UNL     1       2.454   6.867  18.637  0.00  0.00    +0.000 A 
ATOM     23  C   UNL     1       1.636   5.800  18.224  0.00  0.00    +0.000 A 
ATOM     24  C   UNL     1       2.206   4.637  17.693  0.00  0.00    +0.000 A 
ATOM     25  C   UNL     1       3.588   4.547  17.532  0.00  0.00    +0.000 A 
ATOM     26 CL   UNL     1       4.291   3.097  16.933  0.00  0.00    +0.000 Cl
ATOM     27  C   UNL     1       4.406   5.619  17.878  0.00  0.00    +0.000 A 
ATOM     28  C   UNL     1       3.840   6.766  18.438  0.00  0.00    +0.000 A 
ENDBRANCH   5  22
TORSDOF 2
ENDMDL
MODEL 3
REMARK VINA RESULT:      -8.1      6.517     10.801
REMARK  Name = 
REMARK  3 active torsions:
REMARK  status: ('A' for Active; 'I' for Inactive)
REMARK    1  A    between atoms: C_1  and  C_2
REMARK    2  A    between atoms: C_7  and  C_8
REMARK    3  A    between atoms: N_12  and  C_13
REMARK                            x       y       z     vdW  Elec       q    Type
REMARK                         _______ _______ _______ _____ _____    ______ ____
ROOT
ATOM      1  C   UNL     1       0.274  10.703  20.273  0.00  0.00    +0.000 A 
ATOM      2  N   UNL     1       0.720  11.316  21.360  0.00  0.00    +0.000 NA
ATOM      3  N   UNL     1      -0.218  12.179  21.830  0.00  0.00    +0.000 NA
ATOM      4  C   UNL     1      -1.246  12.132  21.020  0.00  0.00    +0.000 A 
ATOM      5  N   UNL     1      -2.391  12.913  21.066  0.00  0.00    +0.000 N 
ATOM      6  C   UNL     1      -3.339  12.825  20.050  0.00  0.00    +0.000 A 
ATOM      7  O   UNL     1      -4.371  13.488  19.988  0.00  0.00    +0.000 OA
ATOM      8  C   UNL     1      -3.121  11.794  19.005  0.00  0.00    +0.000 A 
ATOM      9  C   UNL     1      -4.091  11.679  17.996  0.00  0.00    +0.000 A 
ATOM     10  C   UNL     1      -3.959  10.716  17.005  0.00  0.00    +0.000 A 
ATOM     11  C   UNL     1      -2.899   9.819  17.064  0.00  0.00    +0.000 A 
ATOM     12  C   UNL     1      -1.960   9.897  18.103  0.00  0.00    +0.000 A 
ATOM     13  C   UNL     1      -2.012  10.931  19.037  0.00  0.00    +0.000 A 
ATOM     14  N   UNL     1      -1.020  11.186  20.021  0.00  0.00    +0.000 N 
ENDROOT
BRANCH   1  21
ATOM     15  C   UNL     1       1.135   8.146  21.619  0.00  0.00    +0.000 C 
ATOM     16  C   UNL     1       1.435   8.457  20.171  0.00  0.00    +0.000 A 
ATOM     17  C   UNL     1       2.127   7.472  19.435  0.00  0.00    +0.000 A 
ATOM     18  C   UNL     1       2.510   7.701  18.120  0.00  0.00    +0.000 A 
ATOM     19  C   UNL     1       2.289   8.948  17.555  0.00  0.00    +0.000 A 
ATOM     20  C   UNL     1       1.647   9.950  18.293  0.00  0.00    +0.000 A 
ATOM     21  C   UNL     1       1.104   9.697  19.563  0.00  0.00    +0.000 A 
ENDBRANCH   1  21
BRANCH   5  22
ATOM     22  C   UNL     1      -2.592  13.789  22.169  0.00  0.00    +0.000 A 
ATOM     23  C   UNL     1      -3.300  13.367  23.308  0.00  0.00    +0.000 A 
ATOM     24  C   UNL     1      -3.666  14.291  24.294  0.00  0.00    +0.000 A 
ATOM     25  C   UNL     1      -3.293  15.629  24.172  0.00  0.00    +0.000 A 
ATOM     26 CL   UNL     1      -3.792  16.773  25.354  0.00  0.00    +0.000 Cl
ATOM     27  C   UNL     1      -2.538  16.049  23.080  0.00  0.00    +0.000 A 
ATOM     28  C   UNL     1      -2.201  15.135  22.081  0.00  0.00    +0.000 A 
ENDBRANCH   5  22
TORSDOF 2
ENDMDL
MODEL 4
REMARK VINA RESULT:      -8.0      5.917     10.135
REMARK  Name = 
REMARK  3 active torsions:
REMARK  status: ('A' for Active; 'I' for Inactive)
REMARK    1  A    between atoms: C_1  and  C_2
REMARK    2  A    between atoms: C_7  and  C_8
REMARK    3  A    between atoms: N_12  and  C_13
REMARK                            x       y       z     vdW  Elec       q    Type
REMARK                         _______ _______ _______ _____ _____    ______ ____
ROOT
ATOM      1  C   UNL     1       0.792   9.625  20.509  0.00  0.00    +0.000 A 
ATOM      2  N   UNL     1       1.176  10.003  21.719  0.00  0.00    +0.000 NA
ATOM      3  N   UNL     1       0.349  10.973  22.190  0.00  0.00    +0.000 NA
ATOM      4  C   UNL     1      -0.540  11.228  21.262  0.00  0.00    +0.000 A 
ATOM      5  N   UNL     1      -1.519  12.209  21.280  0.00  0.00    +0.000 N 
ATOM      6  C   UNL     1      -2.306  12.432  20.155  0.00  0.00    +0.000 A 
ATOM      7  O   UNL     1      -3.181  13.289  20.063  0.00  0.00    +0.000 OA
ATOM      8  C   UNL     1      -2.125  11.510  19.006  0.00  0.00    +0.000 A 
ATOM      9  C   UNL     1      -2.940  11.709  17.880  0.00  0.00    +0.000 A 
ATOM     10  C   UNL     1      -2.839  10.865  16.783  0.00  0.00    +0.000 A 
ATOM     11  C   UNL     1      -1.978   9.775  16.841  0.00  0.00    +0.000 A 
ATOM     12  C   UNL     1      -1.205   9.541  17.987  0.00  0.00    +0.000 A 
ATOM     13  C   UNL     1      -1.208  10.447  19.048  0.00  0.00    +0.000 A 
ATOM     14  N   UNL     1      -0.342  10.380  20.173  0.00  0.00    +0.000 N 
ENDROOT
BRANCH   1  21
ATOM     15  C   UNL     1       2.061  10.173  17.830  0.00  0.00    +0.000 C 
ATOM     16  C   UNL     1       2.191   8.850  18.547  0.00  0.00    +0.000 A 
ATOM     17  C   UNL     1       2.971   7.857  17.920  0.00  0.00    +0.000 A 
ATOM     18  C   UNL     1       3.086   6.586  18.470  0.00  0.00    +0.000 A 
ATOM     19  C   UNL     1       2.349   6.266  19.601  0.00  0.00    +0.000 A 
ATOM     20  C   UNL     1       1.532   7.231  20.203  0.00  0.00    +0.000 A 
ATOM     21  C   UNL     1       1.522   8.566  19.768  0.00  0.00    +0.000 A 
ENDBRANCH   1  21
BRANCH   5  22
ATOM     22  C   UNL     1      -1.719  12.970  22.466  0.00  0.00    +0.000 A 
ATOM     23  C   UNL     1      -2.821  12.727  23.304  0.00  0.00    +0.000 A 
ATOM     24  C   UNL     1      -3.121  13.607  24.350  0.00  0.00    +0.000 A 
ATOM     25  C   UNL     1      -2.303  14.709  24.593  0.00  0.00    +0.000 A 
ATOM     26 CL   UNL     1      -2.703  15.821  25.841  0.00  0.00    +0.000 Cl
ATOM     27  C   UNL     1      -1.172  14.928  23.810  0.00  0.00    +0.000 A 
ATOM     28  C   UNL     1      -0.892  14.069  22.746  0.00  0.00    +0.000 A 
ENDBRANCH   5  22
TORSDOF 2
ENDMDL
MODEL 5
REMARK VINA RESULT:      -8.0      6.414     10.680
REMARK  Name = 
REMARK  3 active torsions:
REMARK  status: ('A' for Active; 'I' for Inactive)
REMARK    1  A    between atoms: C_1  and  C_2
REMARK    2  A    between atoms: C_7  and  C_8
REMARK    3  A    between atoms: N_12  and  C_13
REMARK                            x       y       z     vdW  Elec       q    Type
REMARK                         _______ _______ _______ _____ _____    ______ ____
ROOT
ATOM      1  C   UNL     1       0.454  10.815  20.287  0.00  0.00    +0.000 A 
ATOM      2  N   UNL     1       0.993  11.469  21.305  0.00  0.00    +0.000 NA
ATOM      3  N   UNL     1       0.110  12.375  21.800  0.00  0.00    +0.000 NA
ATOM      4  C   UNL     1      -0.977  12.314  21.072  0.00  0.00    +0.000 A 
ATOM      5  N   UNL     1      -2.099  13.123  21.165  0.00  0.00    +0.000 N 
ATOM      6  C   UNL     1      -3.122  13.009  20.228  0.00  0.00    +0.000 A 
ATOM      7  O   UNL     1      -4.143  13.693  20.210  0.00  0.00    +0.000 OA
ATOM      8  C   UNL     1      -3.005  11.924  19.223  0.00  0.00    +0.000 A 
ATOM      9  C   UNL     1      -4.050  11.783  18.296  0.00  0.00    +0.000 A 
ATOM     10  C   UNL     1      -4.014  10.771  17.346  0.00  0.00    +0.000 A 
ATOM     11  C   UNL     1      -2.970   9.853  17.371  0.00  0.00    +0.000 A 
ATOM     12  C   UNL     1      -1.954   9.958  18.332  0.00  0.00    +0.000 A 
ATOM     13  C   UNL     1      -1.915  11.037  19.215  0.00  0.00    +0.000 A 
ATOM     14  N   UNL     1      -0.846  11.315  20.109  0.00  0.00    +0.000 N 
ENDROOT
BRANCH   1  21
ATOM     15  C   UNL     1       1.187   8.220  21.635  0.00  0.00    +0.000 C 
ATOM     16  C   UNL     1       1.476   8.502  20.179  0.00  0.00    +0.000 A 
ATOM     17  C   UNL     1       2.092   7.473  19.438  0.00  0.00    +0.000 A 
ATOM     18  C   UNL     1       2.461   7.670  18.113  0.00  0.00    +0.000 A 
ATOM     19  C   UNL     1       2.304   8.925  17.543  0.00  0.00    +0.000 A 
ATOM     20  C   UNL     1       1.738   9.968  18.286  0.00  0.00    +0.000 A 
ATOM     21  C   UNL     1       1.207   9.756  19.568  0.00  0.00    +0.000 A 
ENDBRANCH   1  21
BRANCH   5  22
ATOM     22  C   UNL     1      -2.198  14.056  22.234  0.00  0.00    +0.000 A 
ATOM     23  C   UNL     1      -1.670  15.354  22.112  0.00  0.00    +0.000 A 
ATOM     24  C   UNL     1      -1.591  16.192  23.231  0.00  0.00    +0.000 A 
ATOM     25  C   UNL     1      -2.074  15.758  24.465  0.00  0.00    +0.000 A 
ATOM     26 CL   UNL     1      -1.924  16.766  25.850  0.00  0.00    +0.000 Cl
ATOM     27  C   UNL     1      -2.656  14.500  24.587  0.00  0.00    +0.000 A 
ATOM     28  C   UNL     1      -2.706  13.652  23.479  0.00  0.00    +0.000 A 
ENDBRANCH   5  22
TORSDOF 2
ENDMDL
MODEL 6
REMARK VINA RESULT:      -8.0      3.142      6.974
REMARK  Name = 
REMARK  3 active torsions:
REMARK  status: ('A' for Active; 'I' for Inactive)
REMARK    1  A    between atoms: C_1  and  C_2
REMARK    2  A    between atoms: C_7  and  C_8
REMARK    3  A    between atoms: N_12  and  C_13
REMARK                            x       y       z     vdW  Elec       q    Type
REMARK                         _______ _______ _______ _____ _____    ______ ____
ROOT
ATOM      1  C   UNL     1       4.353   6.592  17.064  0.00  0.00    +0.000 A 
ATOM      2  N   UNL     1       4.025   7.843  16.776  0.00  0.00    +0.000 NA
ATOM      3  N   UNL     1       3.160   8.327  17.706  0.00  0.00    +0.000 NA
ATOM      4  C   UNL     1       2.919   7.368  18.565  0.00  0.00    +0.000 A 
ATOM      5  N   UNL     1       2.026   7.393  19.625  0.00  0.00    +0.000 N 
ATOM      6  C   UNL     1       1.794   6.241  20.371  0.00  0.00    +0.000 A 
ATOM      7  O   UNL     1       1.008   6.154  21.311  0.00  0.00    +0.000 OA
ATOM      8  C   UNL     1       2.620   5.050  20.055  0.00  0.00    +0.000 A 
ATOM      9  C   UNL     1       2.414   3.894  20.826  0.00  0.00    +0.000 A 
ATOM     10  C   UNL     1       3.173   2.755  20.598  0.00  0.00    +0.000 A 
ATOM     11  C   UNL     1       4.189   2.793  19.651  0.00  0.00    +0.000 A 
ATOM     12  C   UNL     1       4.434   3.963  18.918  0.00  0.00    +0.000 A 
ATOM     13  C   UNL     1       3.604   5.077  19.052  0.00  0.00    +0.000 A 
ATOM     14  N   UNL     1       3.673   6.241  18.241  0.00  0.00    +0.000 N 
ENDROOT
BRANCH   1  21
ATOM     15  C   UNL     1       7.317   6.588  17.613  0.00  0.00    +0.000 C 
ATOM     16  C   UNL     1       6.680   5.760  16.521  0.00  0.00    +0.000 A 
ATOM     17  C   UNL     1       7.536   4.937  15.761  0.00  0.00    +0.000 A 
ATOM     18  C   UNL     1       7.051   4.198  14.690  0.00  0.00    +0.000 A 
ATOM     19  C   UNL     1       5.725   4.343  14.309  0.00  0.00    +0.000 A 
ATOM     20  C   UNL     1       4.878   5.196  15.027  0.00  0.00    +0.000 A 
ATOM     21  C   UNL     1       5.296   5.828  16.209  0.00  0.00    +0.000 A 
ENDBRANCH   1  21
BRANCH   5  22
ATOM     22  C   UNL     1       1.364   8.610  19.949  0.00  0.00    +0.000 A 
ATOM     23  C   UNL     1       1.315   9.076  21.275  0.00  0.00    +0.000 A 
ATOM     24  C   UNL     1       0.495  10.159  21.613  0.00  0.00    +0.000 A 
ATOM     25  C   UNL     1      -0.248  10.808  20.628  0.00  0.00    +0.000 A 
ATOM     26 CL   UNL     1      -1.298  12.101  21.054  0.00  0.00    +0.000 Cl
ATOM     27  C   UNL     1      -0.161  10.398  19.300  0.00  0.00    +0.000 A 
ATOM     28  C   UNL     1       0.631   9.298  18.969  0.00  0.00    +0.000 A 
ENDBRANCH   5  22
TORSDOF 2
ENDMDL
MODEL 7
REMARK VINA RESULT:      -7.8      6.861     11.052
REMARK  Name = 
REMARK  3 active torsions:
REMARK  status: ('A' for Active; 'I' for Inactive)
REMARK    1  A    between atoms: C_1  and  C_2
REMARK    2  A    between atoms: C_7  and  C_8
REMARK    3  A    between atoms: N_12  and  C_13
REMARK                            x       y       z     vdW  Elec       q    Type
REMARK                         _______ _______ _______ _____ _____    ______ ____
ROOT
ATOM      1  C   UNL     1      -0.730  10.871  19.833  0.00  0.00    +0.000 A 
ATOM      2  N   UNL     1      -0.696  11.526  20.983  0.00  0.00    +0.000 NA
ATOM      3  N   UNL     1      -1.846  12.229  21.156  0.00  0.00    +0.000 NA
ATOM      4  C   UNL     1      -2.594  12.040  20.097  0.00  0.00    +0.000 A 
ATOM      5  N   UNL     1      -3.811  12.637  19.808  0.00  0.00    +0.000 N 
ATOM      6  C   UNL     1      -4.420  12.423  18.575  0.00  0.00    +0.000 A 
ATOM      7  O   UNL     1      -5.483  12.923  18.216  0.00  0.00    +0.000 OA
ATOM      8  C   UNL     1      -3.772  11.454  17.657  0.00  0.00    +0.000 A 
ATOM      9  C   UNL     1      -4.399  11.208  16.425  0.00  0.00    +0.000 A 
ATOM     10  C   UNL     1      -3.858  10.293  15.533  0.00  0.00    +0.000 A 
ATOM     11  C   UNL     1      -2.732   9.567  15.903  0.00  0.00    +0.000 A 
ATOM     12  C   UNL     1      -2.136   9.769  17.156  0.00  0.00    +0.000 A 
ATOM     13  C   UNL     1      -2.598  10.769  18.014  0.00  0.00    +0.000 A 
ATOM     14  N   UNL     1      -1.963  11.155  19.224  0.00  0.00    +0.000 N 
ENDROOT
BRANCH   1  21
ATOM     15  C   UNL     1       0.255   8.595  21.547  0.00  0.00    +0.000 C 
ATOM     16  C   UNL     1       0.809   8.891  20.173  0.00  0.00    +0.000 A 
ATOM     17  C   UNL     1       1.812   8.026  19.688  0.00  0.00    +0.000 A 
ATOM     18  C   UNL     1       2.431   8.264  18.467  0.00  0.00    +0.000 A 
ATOM     19  C   UNL     1       2.121   9.418  17.761  0.00  0.00    +0.000 A 
ATOM     20  C   UNL     1       1.161  10.308  18.258  0.00  0.00    +0.000 A 
ATOM     21  C   UNL     1       0.404  10.013  19.403  0.00  0.00    +0.000 A 
ENDBRANCH   1  21
BRANCH   5  22
ATOM     22  C   UNL     1      -4.435  13.455  20.791  0.00  0.00    +0.000 A 
ATOM     23  C   UNL     1      -4.142  14.827  20.882  0.00  0.00    +0.000 A 
ATOM     24  C   UNL     1      -4.601  15.577  21.971  0.00  0.00    +0.000 A 
ATOM     25  C   UNL     1      -5.388  14.976  22.952  0.00  0.00    +0.000 A 
ATOM     26 CL   UNL     1      -5.903  15.883  24.318  0.00  0.00    +0.000 Cl
ATOM     27  C   UNL     1      -5.739  13.633  22.843  0.00  0.00    +0.000 A 
ATOM     28  C   UNL     1      -5.254  12.878  21.774  0.00  0.00    +0.000 A 
ENDBRANCH   5  22
TORSDOF 2
ENDMDL
MODEL 8
REMARK VINA RESULT:      -7.8      6.021     10.196
REMARK  Name = 
REMARK  3 active torsions:
REMARK  status: ('A' for Active; 'I' for Inactive)
REMARK    1  A    between atoms: C_1  and  C_2
REMARK    2  A    between atoms: C_7  and  C_8
REMARK    3  A    between atoms: N_12  and  C_13
REMARK                            x       y       z     vdW  Elec       q    Type
REMARK                         _______ _______ _______ _____ _____    ______ ____
ROOT
ATOM      1  C   UNL     1       0.690   9.995  20.467  0.00  0.00    +0.000 A 
ATOM      2  N   UNL     1       1.151  10.498  21.602  0.00  0.00    +0.000 NA
ATOM      3  N   UNL     1       0.337  11.494  22.039  0.00  0.00    +0.000 NA
ATOM      4  C   UNL     1      -0.624  11.639  21.161  0.00  0.00    +0.000 A 
ATOM      5  N   UNL     1      -1.625  12.598  21.158  0.00  0.00    +0.000 N 
ATOM      6  C   UNL     1      -2.499  12.694  20.080  0.00  0.00    +0.000 A 
ATOM      7  O   UNL     1      -3.401  13.522  19.972  0.00  0.00    +0.000 OA
ATOM      8  C   UNL     1      -2.380  11.667  19.016  0.00  0.00    +0.000 A 
ATOM      9  C   UNL     1      -3.281  11.738  17.941  0.00  0.00    +0.000 A 
ATOM     10  C   UNL     1      -3.240  10.792  16.927  0.00  0.00    +0.000 A 
ATOM     11  C   UNL     1      -2.349   9.729  17.024  0.00  0.00    +0.000 A 
ATOM     12  C   UNL     1      -1.486   9.624  18.125  0.00  0.00    +0.000 A 
ATOM     13  C   UNL     1      -1.434  10.630  19.091  0.00  0.00    +0.000 A 
ATOM     14  N   UNL     1      -0.486  10.692  20.147  0.00  0.00    +0.000 N 
ENDROOT
BRANCH   1  21
ATOM     15  C   UNL     1       1.927  10.364  17.743  0.00  0.00    +0.000 C 
ATOM     16  C   UNL     1       2.045   9.082  18.534  0.00  0.00    +0.000 A 
ATOM     17  C   UNL     1       2.799   8.040  17.956  0.00  0.00    +0.000 A 
ATOM     18  C   UNL     1       2.900   6.802  18.577  0.00  0.00    +0.000 A 
ATOM     19  C   UNL     1       2.174   6.561  19.734  0.00  0.00    +0.000 A 
ATOM     20  C   UNL     1       1.383   7.574  20.291  0.00  0.00    +0.000 A 
ATOM     21  C   UNL     1       1.390   8.881  19.779  0.00  0.00    +0.000 A 
ENDBRANCH   1  21
BRANCH   5  22
ATOM     22  C   UNL     1      -1.757  13.469  22.276  0.00  0.00    +0.000 A 
ATOM     23  C   UNL     1      -0.914  14.585  22.426  0.00  0.00    +0.000 A 
ATOM     24  C   UNL     1      -0.914  15.314  23.621  0.00  0.00    +0.000 A 
ATOM     25  C   UNL     1      -1.781  14.963  24.654  0.00  0.00    +0.000 A 
ATOM     26 CL   UNL     1      -1.740  15.823  26.142  0.00  0.00    +0.000 Cl
ATOM     27  C   UNL     1      -2.666  13.900  24.496  0.00  0.00    +0.000 A 
ATOM     28  C   UNL     1      -2.642  13.152  23.318  0.00  0.00    +0.000 A 
ENDBRANCH   5  22
TORSDOF 2
ENDMDL
MODEL 9
REMARK VINA RESULT:      -7.7      3.159      6.962
REMARK  Name = 
REMARK  3 active torsions:
REMARK  status: ('A' for Active; 'I' for Inactive)
REMARK    1  A    between atoms: C_1  and  C_2
REMARK    2  A    between atoms: C_7  and  C_8
REMARK    3  A    between atoms: N_12  and  C_13
REMARK                            x       y       z     vdW  Elec       q    Type
REMARK                         _______ _______ _______ _____ _____    ______ ____
ROOT
ATOM      1  C   UNL     1       4.261   6.664  17.205  0.00  0.00    +0.000 A 
ATOM      2  N   UNL     1       3.978   7.899  16.821  0.00  0.00    +0.000 NA
ATOM      3  N   UNL     1       3.084   8.462  17.675  0.00  0.00    +0.000 NA
ATOM      4  C   UNL     1       2.780   7.569  18.583  0.00  0.00    +0.000 A 
ATOM      5  N   UNL     1       1.841   7.683  19.597  0.00  0.00    +0.000 N 
ATOM      6  C   UNL     1       1.547   6.589  20.405  0.00  0.00    +0.000 A 
ATOM      7  O   UNL     1       0.717   6.581  21.310  0.00  0.00    +0.000 OA
ATOM      8  C   UNL     1       2.357   5.361  20.206  0.00  0.00    +0.000 A 
ATOM      9  C   UNL     1       2.088   4.264  21.041  0.00  0.00    +0.000 A 
ATOM     10  C   UNL     1       2.828   3.096  20.923  0.00  0.00    +0.000 A 
ATOM     11  C   UNL     1       3.887   3.049  20.024  0.00  0.00    +0.000 A 
ATOM     12  C   UNL     1       4.194   4.163  19.229  0.00  0.00    +0.000 A 
ATOM     13  C   UNL     1       3.386   5.300  19.251  0.00  0.00    +0.000 A 
ATOM     14  N   UNL     1       3.520   6.406  18.370  0.00  0.00    +0.000 N 
ENDROOT
BRANCH   1  21
ATOM     15  C   UNL     1       7.154   6.460  18.028  0.00  0.00    +0.000 C 
ATOM     16  C   UNL     1       6.565   5.664  16.888  0.00  0.00    +0.000 A 
ATOM     17  C   UNL     1       7.427   4.773  16.216  0.00  0.00    +0.000 A 
ATOM     18  C   UNL     1       6.992   4.055  15.109  0.00  0.00    +0.000 A 
ATOM     19  C   UNL     1       5.720   4.288  14.606  0.00  0.00    +0.000 A 
ATOM     20  C   UNL     1       4.873   5.208  15.236  0.00  0.00    +0.000 A 
ATOM     21  C   UNL     1       5.224   5.824  16.447  0.00  0.00    +0.000 A 
ENDBRANCH   1  21
BRANCH   5  22
ATOM     22  C   UNL     1       1.195   8.933  19.809  0.00  0.00    +0.000 A 
ATOM     23  C   UNL     1       0.603   9.631  18.741  0.00  0.00    +0.000 A 
ATOM     24  C   UNL     1       0.152  10.944  18.920  0.00  0.00    +0.000 A 
ATOM     25  C   UNL     1       0.251  11.553  20.170  0.00  0.00    +0.000 A 
ATOM     26 CL   UNL     1      -0.250  13.185  20.374  0.00  0.00    +0.000 Cl
ATOM     27  C   UNL     1       0.778  10.853  21.252  0.00  0.00    +0.000 A 
ATOM     28  C   UNL     1       1.257   9.555  21.065  0.00  0.00    +0.000 A 
ENDBRANCH   5  22
TORSDOF 2
ENDMDL
