MODEL 1
REMARK VINA RESULT:      -7.5      0.000      0.000
REMARK  Name = 
REMARK  10 active torsions:
REMARK  status: ('A' for Active; 'I' for Inactive)
REMARK    1  A    between atoms: C_1  and  C_2
REMARK    2  A    between atoms: C_6  and  O_7
REMARK    3  A    between atoms: O_7  and  C_8
REMARK    4  A    between atoms: C_8  and  C_9
REMARK    5  A    between atoms: C_9  and  O_10
REMARK    6  A    between atoms: C_9  and  C_11
REMARK    7  A    between atoms: C_11  and  N_12
REMARK    8  A    between atoms: N_15  and  C_16
REMARK    9  A    between atoms: C_16  and  C_17
REMARK   10  A    between atoms: N_19  and  C_20
REMARK                            x       y       z     vdW  Elec       q    Type
REMARK                         _______ _______ _______ _____ _____    ______ ____
ROOT
ATOM      1  N   UNL     1       3.672   2.388  19.360  0.00  0.00    +0.000 NA
ATOM      2  C   UNL     1       3.136   2.470  17.981  0.00  0.00    +0.000 C 
ATOM      3  C   UNL     1       3.421   3.784  17.193  0.00  0.00    +0.000 C 
ATOM      4  N   UNL     1       4.776   4.379  17.307  0.00  0.00    +0.000 NA
ATOM      5  C   UNL     1       5.260   4.241  18.701  0.00  0.00    +0.000 C 
ATOM      6  C   UNL     1       5.074   2.834  19.317  0.00  0.00    +0.000 C 
ENDROOT
BRANCH   1   7
ATOM      7  C   UNL     1       2.811   3.083  20.352  0.00  0.00    +0.000 C 
BRANCH   7   8
ATOM      8  C   UNL     1       1.825   4.175  19.810  0.00  0.00    +0.000 C 
BRANCH   8   9
ATOM      9  O   UNL     1       0.471   3.852  20.179  0.00  0.00    +0.000 OA
ATOM     10  H   UNL     1       0.166   4.520  20.808  0.00  0.00    +0.000 HD
ENDBRANCH   8   9
BRANCH   8  11
ATOM     11  C   UNL     1       2.148   5.583  20.378  0.00  0.00    +0.000 C 
BRANCH  11  12
ATOM     12  O   UNL     1       2.564   6.459  19.311  0.00  0.00    +0.000 OA
BRANCH  12  18
ATOM     13  C   UNL     1      -0.763  12.178  22.374  0.00  0.00    +0.000 C 
ATOM     14  C   UNL     1      -0.130  11.253  21.392  0.00  0.00    +0.000 A 
ATOM     15  N   UNL     1       0.285  10.037  21.666  0.00  0.00    +0.000 NA
ATOM     16  C   UNL     1       0.876   9.464  20.548  0.00  0.00    +0.000 A 
ATOM     17  C   UNL     1       1.454   8.177  20.461  0.00  0.00    +0.000 A 
ATOM     18  C   UNL     1       2.039   7.727  19.267  0.00  0.00    +0.000 A 
ATOM     19  C   UNL     1       2.042   8.565  18.156  0.00  0.00    +0.000 A 
ATOM     20  C   UNL     1       1.462   9.842  18.205  0.00  0.00    +0.000 A 
ATOM     21  C   UNL     1       0.885  10.274  19.409  0.00  0.00    +0.000 A 
ATOM     22  S   UNL     1       0.117  11.772  19.773  0.00  0.00    +0.000 S 
ENDBRANCH  12  18
ENDBRANCH  11  12
ENDBRANCH   8  11
ENDBRANCH   7   8
ENDBRANCH   1   7
BRANCH   4  23
ATOM     23  C   UNL     1       5.739   3.770  16.357  0.00  0.00    +0.000 C 
BRANCH  23  24
ATOM     24  C   UNL     1       5.682   4.464  14.986  0.00  0.00    +0.000 C 
ATOM     25  O   UNL     1       5.665   5.685  14.868  0.00  0.00    +0.000 OA
ATOM     26  N   UNL     1       5.620   3.588  13.920  0.00  0.00    +0.000 N 
ATOM     27  H   UNL     1       5.860   2.626  14.142  0.00  0.00    +0.000 HD
BRANCH  26  28
ATOM     28  C   UNL     1       5.678   4.035  12.533  0.00  0.00    +0.000 C 
ATOM     29  C   UNL     1       7.119   4.030  11.999  0.00  0.00    +0.000 C 
ATOM     30  C   UNL     1       7.661   2.617  11.783  0.00  0.00    +0.000 C 
ATOM     31  C   UNL     1       6.733   1.783  10.902  0.00  0.00    +0.000 C 
ATOM     32  C   UNL     1       5.305   1.764  11.437  0.00  0.00    +0.000 C 
ATOM     33  C   UNL     1       4.763   3.178  11.651  0.00  0.00    +0.000 C 
ENDBRANCH  26  28
ENDBRANCH  23  24
ENDBRANCH   4  23
TORSDOF 9
ENDMDL
MODEL 2
REMARK VINA RESULT:      -7.4      4.838      6.494
REMARK  Name = 
REMARK  10 active torsions:
REMARK  status: ('A' for Active; 'I' for Inactive)
REMARK    1  A    between atoms: C_1  and  C_2
REMARK    2  A    between atoms: C_6  and  O_7
REMARK    3  A    between atoms: O_7  and  C_8
REMARK    4  A    between atoms: C_8  and  C_9
REMARK    5  A    between atoms: C_9  and  O_10
REMARK    6  A    between atoms: C_9  and  C_11
REMARK    7  A    between atoms: C_11  and  N_12
REMARK    8  A    between atoms: N_15  and  C_16
REMARK    9  A    between atoms: C_16  and  C_17
REMARK   10  A    between atoms: N_19  and  C_20
REMARK                            x       y       z     vdW  Elec       q    Type
REMARK                         _______ _______ _______ _____ _____    ______ ____
ROOT
ATOM      1  N   UNL     1       6.321   4.404  18.407  0.00  0.00    +0.000 NA
ATOM      2  C   UNL     1       7.497   4.616  17.530  0.00  0.00    +0.000 C 
ATOM      3  C   UNL     1       7.520   5.929  16.690  0.00  0.00    +0.000 C 
ATOM      4  N   UNL     1       7.077   7.182  17.352  0.00  0.00    +0.000 NA
ATOM      5  C   UNL     1       5.919   6.894  18.230  0.00  0.00    +0.000 C 
ATOM      6  C   UNL     1       6.087   5.657  19.144  0.00  0.00    +0.000 C 
ENDROOT
BRANCH   1   7
ATOM      7  C   UNL     1       5.146   3.868  17.671  0.00  0.00    +0.000 C 
BRANCH   7   8
ATOM      8  C   UNL     1       4.230   2.843  18.426  0.00  0.00    +0.000 C 
BRANCH   8   9
ATOM      9  O   UNL     1       4.775   2.549  19.725  0.00  0.00    +0.000 OA
ATOM     10  H   UNL     1       4.862   1.589  19.802  0.00  0.00    +0.000 HD
ENDBRANCH   8   9
BRANCH   8  11
ATOM     11  C   UNL     1       2.791   3.389  18.627  0.00  0.00    +0.000 C 
BRANCH  11  12
ATOM     12  O   UNL     1       2.772   4.325  19.725  0.00  0.00    +0.000 OA
BRANCH  12  18
ATOM     13  C   UNL     1       0.267  10.869  21.741  0.00  0.00    +0.000 C 
ATOM     14  C   UNL     1       0.765   9.718  20.936  0.00  0.00    +0.000 A 
ATOM     15  N   UNL     1       1.009   8.519  21.414  0.00  0.00    +0.000 NA
ATOM     16  C   UNL     1       1.514   7.694  20.418  0.00  0.00    +0.000 A 
ATOM     17  C   UNL     1       1.910   6.344  20.555  0.00  0.00    +0.000 A 
ATOM     18  C   UNL     1       2.425   5.628  19.463  0.00  0.00    +0.000 A 
ATOM     19  C   UNL     1       2.541   6.263  18.230  0.00  0.00    +0.000 A 
ATOM     20  C   UNL     1       2.142   7.597  18.057  0.00  0.00    +0.000 A 
ATOM     21  C   UNL     1       1.632   8.296  19.162  0.00  0.00    +0.000 A 
ATOM     22  S   UNL     1       1.077   9.924  19.260  0.00  0.00    +0.000 S 
ENDBRANCH  12  18
ENDBRANCH  11  12
ENDBRANCH   8  11
ENDBRANCH   7   8
ENDBRANCH   1   7
BRANCH   4  23
ATOM     23  C   UNL     1       8.170   7.825  18.123  0.00  0.00    +0.000 C 
BRANCH  23  24
ATOM     24  C   UNL     1       8.202   9.344  17.878  0.00  0.00    +0.000 C 
ATOM     25  O   UNL     1       7.491   9.889  17.043  0.00  0.00    +0.000 OA
ATOM     26  N   UNL     1       9.122  10.014  18.660  0.00  0.00    +0.000 N 
ATOM     27  H   UNL     1       9.480   9.483  19.449  0.00  0.00    +0.000 HD
BRANCH  26  28
ATOM     28  C   UNL     1       9.231  11.468  18.671  0.00  0.00    +0.000 C 
ATOM     29  C   UNL     1       9.400  12.010  20.098  0.00  0.00    +0.000 C 
ATOM     30  C   UNL     1      10.776  11.697  20.687  0.00  0.00    +0.000 C 
ATOM     31  C   UNL     1      11.904  12.166  19.771  0.00  0.00    +0.000 C 
ATOM     32  C   UNL     1      11.756  11.614  18.357  0.00  0.00    +0.000 C 
ATOM     33  C   UNL     1      10.381  11.930  17.768  0.00  0.00    +0.000 C 
ENDBRANCH  26  28
ENDBRANCH  23  24
ENDBRANCH   4  23
TORSDOF 9
ENDMDL
MODEL 3
REMARK VINA RESULT:      -7.3      4.841      6.530
REMARK  Name = 
REMARK  10 active torsions:
REMARK  status: ('A' for Active; 'I' for Inactive)
REMARK    1  A    between atoms: C_1  and  C_2
REMARK    2  A    between atoms: C_6  and  O_7
REMARK    3  A    between atoms: O_7  and  C_8
REMARK    4  A    between atoms: C_8  and  C_9
REMARK    5  A    between atoms: C_9  and  O_10
REMARK    6  A    between atoms: C_9  and  C_11
REMARK    7  A    between atoms: C_11  and  N_12
REMARK    8  A    between atoms: N_15  and  C_16
REMARK    9  A    between atoms: C_16  and  C_17
REMARK   10  A    between atoms: N_19  and  C_20
REMARK                            x       y       z     vdW  Elec       q    Type
REMARK                         _______ _______ _______ _____ _____    ______ ____
ROOT
ATOM      1  N   UNL     1       6.168   4.418  18.438  0.00  0.00    +0.000 NA
ATOM      2  C   UNL     1       7.412   4.556  17.642  0.00  0.00    +0.000 C 
ATOM      3  C   UNL     1       7.529   5.818  16.735  0.00  0.00    +0.000 C 
ATOM      4  N   UNL     1       7.070   7.115  17.291  0.00  0.00    +0.000 NA
ATOM      5  C   UNL     1       5.843   6.901  18.093  0.00  0.00    +0.000 C 
ATOM      6  C   UNL     1       5.911   5.715  19.084  0.00  0.00    +0.000 C 
ENDROOT
BRANCH   1   7
ATOM      7  C   UNL     1       5.039   3.865  17.646  0.00  0.00    +0.000 C 
BRANCH   7   8
ATOM      8  C   UNL     1       3.956   3.035  18.419  0.00  0.00    +0.000 C 
BRANCH   8   9
ATOM      9  O   UNL     1       4.453   2.649  19.713  0.00  0.00    +0.000 OA
ATOM     10  H   UNL     1       4.034   3.215  20.375  0.00  0.00    +0.000 HD
ENDBRANCH   8   9
BRANCH   8  11
ATOM     11  C   UNL     1       2.650   3.845  18.635  0.00  0.00    +0.000 C 
BRANCH  11  12
ATOM     12  O   UNL     1       2.802   5.174  18.095  0.00  0.00    +0.000 OA
BRANCH  12  18
ATOM     13  C   UNL     1       0.735  12.128  18.823  0.00  0.00    +0.000 C 
ATOM     14  C   UNL     1       1.101  10.712  19.106  0.00  0.00    +0.000 A 
ATOM     15  N   UNL     1       1.560   9.864  18.213  0.00  0.00    +0.000 NA
ATOM     16  C   UNL     1       1.749   8.613  18.787  0.00  0.00    +0.000 A 
ATOM     17  C   UNL     1       2.213   7.446  18.138  0.00  0.00    +0.000 A 
ATOM     18  C   UNL     1       2.340   6.234  18.836  0.00  0.00    +0.000 A 
ATOM     19  C   UNL     1       2.005   6.192  20.187  0.00  0.00    +0.000 A 
ATOM     20  C   UNL     1       1.558   7.337  20.863  0.00  0.00    +0.000 A 
ATOM     21  C   UNL     1       1.435   8.538  20.146  0.00  0.00    +0.000 A 
ATOM     22  S   UNL     1       0.910  10.084  20.693  0.00  0.00    +0.000 S 
ENDBRANCH  12  18
ENDBRANCH  11  12
ENDBRANCH   8  11
ENDBRANCH   7   8
ENDBRANCH   1   7
BRANCH   4  23
ATOM     23  C   UNL     1       8.117   7.779  18.106  0.00  0.00    +0.000 C 
BRANCH  23  24
ATOM     24  C   UNL     1       8.132   9.297  17.861  0.00  0.00    +0.000 C 
ATOM     25  O   UNL     1       7.319   9.852  17.130  0.00  0.00    +0.000 OA
ATOM     26  N   UNL     1       9.156   9.956  18.512  0.00  0.00    +0.000 N 
ATOM     27  H   UNL     1       9.612   9.420  19.245  0.00  0.00    +0.000 HD
BRANCH  26  28
ATOM     28  C   UNL     1       9.280  11.410  18.510  0.00  0.00    +0.000 C 
ATOM     29  C   UNL     1       9.326  11.974  19.938  0.00  0.00    +0.000 C 
ATOM     30  C   UNL     1      10.639  11.657  20.653  0.00  0.00    +0.000 C 
ATOM     31  C   UNL     1      11.850  12.100  19.836  0.00  0.00    +0.000 C 
ATOM     32  C   UNL     1      11.824  11.525  18.423  0.00  0.00    +0.000 C 
ATOM     33  C   UNL     1      10.511  11.845  17.707  0.00  0.00    +0.000 C 
ENDBRANCH  26  28
ENDBRANCH  23  24
ENDBRANCH   4  23
TORSDOF 9
ENDMDL
MODEL 4
REMARK VINA RESULT:      -7.1      3.386      5.319
REMARK  Name = 
REMARK  10 active torsions:
REMARK  status: ('A' for Active; 'I' for Inactive)
REMARK    1  A    between atoms: C_1  and  C_2
REMARK    2  A    between atoms: C_6  and  O_7
REMARK    3  A    between atoms: O_7  and  C_8
REMARK    4  A    between atoms: C_8  and  C_9
REMARK    5  A    between atoms: C_9  and  O_10
REMARK    6  A    between atoms: C_9  and  C_11
REMARK    7  A    between atoms: C_11  and  N_12
REMARK    8  A    between atoms: N_15  and  C_16
REMARK    9  A    between atoms: C_16  and  C_17
REMARK   10  A    between atoms: N_19  and  C_20
REMARK                            x       y       z     vdW  Elec       q    Type
REMARK                         _______ _______ _______ _____ _____    ______ ____
ROOT
ATOM      1  N   UNL     1       2.492   6.754  20.049  0.00  0.00    +0.000 NA
ATOM      2  C   UNL     1       1.761   5.472  20.186  0.00  0.00    +0.000 C 
ATOM      3  C   UNL     1       1.408   4.720  18.867  0.00  0.00    +0.000 C 
ATOM      4  N   UNL     1       2.440   4.669  17.802  0.00  0.00    +0.000 NA
ATOM      5  C   UNL     1       3.147   5.969  17.737  0.00  0.00    +0.000 C 
ATOM      6  C   UNL     1       3.599   6.533  19.104  0.00  0.00    +0.000 C 
ENDROOT
BRANCH   1   7
ATOM      7  C   UNL     1       1.595   7.894  19.725  0.00  0.00    +0.000 C 
BRANCH   7   8
ATOM      8  C   UNL     1       1.111   8.791  20.917  0.00  0.00    +0.000 C 
BRANCH   8   9
ATOM      9  O   UNL     1       2.034   8.699  22.018  0.00  0.00    +0.000 OA
ATOM     10  H   UNL     1       2.174   9.590  22.365  0.00  0.00    +0.000 HD
ENDBRANCH   8   9
BRANCH   8  11
ATOM     11  C   UNL     1       1.003  10.285  20.512  0.00  0.00    +0.000 C 
BRANCH  11  12
ATOM     12  O   UNL     1      -0.229  10.841  21.014  0.00  0.00    +0.000 OA
BRANCH  12  18
ATOM     13  C   UNL     1      -3.561   9.949  14.589  0.00  0.00    +0.000 C 
ATOM     14  C   UNL     1      -3.187  10.436  15.948  0.00  0.00    +0.000 A 
ATOM     15  N   UNL     1      -2.131  10.041  16.621  0.00  0.00    +0.000 NA
ATOM     16  C   UNL     1      -2.102  10.642  17.873  0.00  0.00    +0.000 A 
ATOM     17  C   UNL     1      -1.132  10.450  18.883  0.00  0.00    +0.000 A 
ATOM     18  C   UNL     1      -1.235  11.110  20.118  0.00  0.00    +0.000 A 
ATOM     19  C   UNL     1      -2.309  11.966  20.341  0.00  0.00    +0.000 A 
ATOM     20  C   UNL     1      -3.280  12.190  19.353  0.00  0.00    +0.000 A 
ATOM     21  C   UNL     1      -3.160  11.518  18.126  0.00  0.00    +0.000 A 
ATOM     22  S   UNL     1      -4.187  11.582  16.745  0.00  0.00    +0.000 S 
ENDBRANCH  12  18
ENDBRANCH  11  12
ENDBRANCH   8  11
ENDBRANCH   7   8
ENDBRANCH   1   7
BRANCH   4  23
ATOM     23  C   UNL     1       3.405   3.560  18.007  0.00  0.00    +0.000 C 
BRANCH  23  24
ATOM     24  C   UNL     1       4.666   3.755  17.149  0.00  0.00    +0.000 C 
ATOM     25  O   UNL     1       4.678   3.542  15.941  0.00  0.00    +0.000 OA
ATOM     26  N   UNL     1       5.773   4.158  17.869  0.00  0.00    +0.000 N 
ATOM     27  H   UNL     1       5.573   4.504  18.803  0.00  0.00    +0.000 HD
BRANCH  26  28
ATOM     28  C   UNL     1       7.036   4.514  17.232  0.00  0.00    +0.000 C 
ATOM     29  C   UNL     1       6.908   5.805  16.409  0.00  0.00    +0.000 C 
ATOM     30  C   UNL     1       6.762   7.049  17.285  0.00  0.00    +0.000 C 
ATOM     31  C   UNL     1       7.883   7.151  18.316  0.00  0.00    +0.000 C 
ATOM     32  C   UNL     1       8.002   5.882  19.154  0.00  0.00    +0.000 C 
ATOM     33  C   UNL     1       8.151   4.638  18.277  0.00  0.00    +0.000 C 
ENDBRANCH  26  28
ENDBRANCH  23  24
ENDBRANCH   4  23
TORSDOF 9
ENDMDL
MODEL 5
REMARK VINA RESULT:      -7.0      3.135      4.672
REMARK  Name = 
REMARK  10 active torsions:
REMARK  status: ('A' for Active; 'I' for Inactive)
REMARK    1  A    between atoms: C_1  and  C_2
REMARK    2  A    between atoms: C_6  and  O_7
REMARK    3  A    between atoms: O_7  and  C_8
REMARK    4  A    between atoms: C_8  and  C_9
REMARK    5  A    between atoms: C_9  and  O_10
REMARK    6  A    between atoms: C_9  and  C_11
REMARK    7  A    between atoms: C_11  and  N_12
REMARK    8  A    between atoms: N_15  and  C_16
REMARK    9  A    between atoms: C_16  and  C_17
REMARK   10  A    between atoms: N_19  and  C_20
REMARK                            x       y       z     vdW  Elec       q    Type
REMARK                         _______ _______ _______ _____ _____    ______ ____
ROOT
ATOM      1  N   UNL     1       2.135   5.226  20.531  0.00  0.00    +0.000 NA
ATOM      2  C   UNL     1       1.500   4.003  19.985  0.00  0.00    +0.000 C 
ATOM      3  C   UNL     1       1.385   3.902  18.434  0.00  0.00    +0.000 C 
ATOM      4  N   UNL     1       2.549   4.342  17.624  0.00  0.00    +0.000 NA
ATOM      5  C   UNL     1       3.149   5.549  18.238  0.00  0.00    +0.000 C 
ATOM      6  C   UNL     1       3.371   5.461  19.766  0.00  0.00    +0.000 C 
ENDROOT
BRANCH   1   7
ATOM      7  C   UNL     1       1.198   6.377  20.598  0.00  0.00    +0.000 C 
BRANCH   7   8
ATOM      8  C   UNL     1       1.825   7.813  20.672  0.00  0.00    +0.000 C 
BRANCH   8   9
ATOM      9  O   UNL     1       1.639   8.503  19.422  0.00  0.00    +0.000 OA
ATOM     10  H   UNL     1       2.251   9.251  19.400  0.00  0.00    +0.000 HD
ENDBRANCH   8   9
BRANCH   8  11
ATOM     11  C   UNL     1       1.176   8.673  21.789  0.00  0.00    +0.000 C 
BRANCH  11  12
ATOM     12  O   UNL     1      -0.110   9.157  21.351  0.00  0.00    +0.000 OA
BRANCH  12  18
ATOM     13  C   UNL     1      -0.609  16.125  19.263  0.00  0.00    +0.000 C 
ATOM     14  C   UNL     1      -0.624  14.873  20.071  0.00  0.00    +0.000 A 
ATOM     15  N   UNL     1      -0.244  13.695  19.634  0.00  0.00    +0.000 NA
ATOM     16  C   UNL     1      -0.435  12.730  20.615  0.00  0.00    +0.000 A 
ATOM     17  C   UNL     1      -0.161  11.348  20.508  0.00  0.00    +0.000 A 
ATOM     18  C   UNL     1      -0.421  10.476  21.578  0.00  0.00    +0.000 A 
ATOM     19  C   UNL     1      -0.953  10.989  22.757  0.00  0.00    +0.000 A 
ATOM     20  C   UNL     1      -1.221  12.359  22.900  0.00  0.00    +0.000 A 
ATOM     21  C   UNL     1      -0.957  13.213  21.818  0.00  0.00    +0.000 A 
ATOM     22  S   UNL     1      -1.188  14.915  21.693  0.00  0.00    +0.000 S 
ENDBRANCH  12  18
ENDBRANCH  11  12
ENDBRANCH   8  11
ENDBRANCH   7   8
ENDBRANCH   1   7
BRANCH   4  23
ATOM     23  C   UNL     1       3.566   3.271  17.476  0.00  0.00    +0.000 C 
BRANCH  23  24
ATOM     24  C   UNL     1       4.789   3.773  16.689  0.00  0.00    +0.000 C 
ATOM     25  O   UNL     1       4.745   4.009  15.486  0.00  0.00    +0.000 OA
ATOM     26  N   UNL     1       5.930   3.899  17.455  0.00  0.00    +0.000 N 
ATOM     27  H   UNL     1       5.776   3.883  18.459  0.00  0.00    +0.000 HD
BRANCH  26  28
ATOM     28  C   UNL     1       7.167   4.470  16.933  0.00  0.00    +0.000 C 
ATOM     29  C   UNL     1       6.922   5.836  16.275  0.00  0.00    +0.000 C 
ATOM     30  C   UNL     1       6.604   6.931  17.294  0.00  0.00    +0.000 C 
ATOM     31  C   UNL     1       7.668   7.017  18.385  0.00  0.00    +0.000 C 
ATOM     32  C   UNL     1       7.901   5.669  19.059  0.00  0.00    +0.000 C 
ATOM     33  C   UNL     1       8.223   4.575  18.040  0.00  0.00    +0.000 C 
ENDBRANCH  26  28
ENDBRANCH  23  24
ENDBRANCH   4  23
TORSDOF 9
ENDMDL
MODEL 6
REMARK VINA RESULT:      -7.0      0.957      1.154
REMARK  Name = 
REMARK  10 active torsions:
REMARK  status: ('A' for Active; 'I' for Inactive)
REMARK    1  A    between atoms: C_1  and  C_2
REMARK    2  A    between atoms: C_6  and  O_7
REMARK    3  A    between atoms: O_7  and  C_8
REMARK    4  A    between atoms: C_8  and  C_9
REMARK    5  A    between atoms: C_9  and  O_10
REMARK    6  A    between atoms: C_9  and  C_11
REMARK    7  A    between atoms: C_11  and  N_12
REMARK    8  A    between atoms: N_15  and  C_16
REMARK    9  A    between atoms: C_16  and  C_17
REMARK   10  A    between atoms: N_19  and  C_20
REMARK                            x       y       z     vdW  Elec       q    Type
REMARK                         _______ _______ _______ _____ _____    ______ ____
ROOT
ATOM      1  N   UNL     1       3.491   3.754  18.960  0.00  0.00    +0.000 NA
ATOM      2  C   UNL     1       3.205   4.272  17.601  0.00  0.00    +0.000 C 
ATOM      3  C   UNL     1       4.222   5.295  17.010  0.00  0.00    +0.000 C 
ATOM      4  N   UNL     1       5.668   5.036  17.222  0.00  0.00    +0.000 NA
ATOM      5  C   UNL     1       5.878   4.498  18.586  0.00  0.00    +0.000 C 
ATOM      6  C   UNL     1       4.910   3.363  18.995  0.00  0.00    +0.000 C 
ENDROOT
BRANCH   1   7
ATOM      7  C   UNL     1       3.060   4.689  20.032  0.00  0.00    +0.000 C 
BRANCH   7   8
ATOM      8  C   UNL     1       1.536   5.052  20.102  0.00  0.00    +0.000 C 
BRANCH   8   9
ATOM      9  O   UNL     1       0.806   4.009  20.774  0.00  0.00    +0.000 OA
ATOM     10  H   UNL     1      -0.092   3.996  20.416  0.00  0.00    +0.000 HD
ENDBRANCH   8   9
BRANCH   8  11
ATOM     11  C   UNL     1       1.290   6.376  20.873  0.00  0.00    +0.000 C 
BRANCH  11  12
ATOM     12  O   UNL     1       2.000   7.456  20.233  0.00  0.00    +0.000 OA
BRANCH  12  18
ATOM     13  C   UNL     1      -1.182  13.293  23.226  0.00  0.00    +0.000 C 
ATOM     14  C   UNL     1      -0.653  12.301  22.248  0.00  0.00    +0.000 A 
ATOM     15  N   UNL     1      -0.115  11.146  22.569  0.00  0.00    +0.000 NA
ATOM     16  C   UNL     1       0.326  10.485  21.430  0.00  0.00    +0.000 A 
ATOM     17  C   UNL     1       0.973   9.229  21.377  0.00  0.00    +0.000 A 
ATOM     18  C   UNL     1       1.386   8.682  20.151  0.00  0.00    +0.000 A 
ATOM     19  C   UNL     1       1.150   9.391  18.977  0.00  0.00    +0.000 A 
ATOM     20  C   UNL     1       0.496  10.633  18.996  0.00  0.00    +0.000 A 
ATOM     21  C   UNL     1       0.093  11.164  20.231  0.00  0.00    +0.000 A 
ATOM     22  S   UNL     1      -0.710  12.650  20.567  0.00  0.00    +0.000 S 
ENDBRANCH  12  18
ENDBRANCH  11  12
ENDBRANCH   8  11
ENDBRANCH   7   8
ENDBRANCH   1   7
BRANCH   4  23
ATOM     23  C   UNL     1       6.227   4.110  16.205  0.00  0.00    +0.000 C 
BRANCH  23  24
ATOM     24  C   UNL     1       6.072   4.686  14.787  0.00  0.00    +0.000 C 
ATOM     25  O   UNL     1       6.008   5.891  14.570  0.00  0.00    +0.000 OA
ATOM     26  N   UNL     1       5.981   3.722  13.802  0.00  0.00    +0.000 N 
ATOM     27  H   UNL     1       6.264   2.789  14.089  0.00  0.00    +0.000 HD
BRANCH  26  28
ATOM     28  C   UNL     1       5.949   4.052  12.382  0.00  0.00    +0.000 C 
ATOM     29  C   UNL     1       7.328   3.870  11.730  0.00  0.00    +0.000 C 
ATOM     30  C   UNL     1       7.723   2.400  11.590  0.00  0.00    +0.000 C 
ATOM     31  C   UNL     1       6.650   1.592  10.865  0.00  0.00    +0.000 C 
ATOM     32  C   UNL     1       5.281   1.749  11.520  0.00  0.00    +0.000 C 
ATOM     33  C   UNL     1       4.885   3.219  11.657  0.00  0.00    +0.000 C 
ENDBRANCH  26  28
ENDBRANCH  23  24
ENDBRANCH   4  23
TORSDOF 9
ENDMDL
MODEL 7
REMARK VINA RESULT:      -7.0      3.214      4.794
REMARK  Name = 
REMARK  10 active torsions:
REMARK  status: ('A' for Active; 'I' for Inactive)
REMARK    1  A    between atoms: C_1  and  C_2
REMARK    2  A    between atoms: C_6  and  O_7
REMARK    3  A    between atoms: O_7  and  C_8
REMARK    4  A    between atoms: C_8  and  C_9
REMARK    5  A    between atoms: C_9  and  O_10
REMARK    6  A    between atoms: C_9  and  C_11
REMARK    7  A    between atoms: C_11  and  N_12
REMARK    8  A    between atoms: N_15  and  C_16
REMARK    9  A    between atoms: C_16  and  C_17
REMARK   10  A    between atoms: N_19  and  C_20
REMARK                            x       y       z     vdW  Elec       q    Type
REMARK                         _______ _______ _______ _____ _____    ______ ____
ROOT
ATOM      1  N   UNL     1       2.129   5.223  20.497  0.00  0.00    +0.000 NA
ATOM      2  C   UNL     1       1.480   4.009  19.946  0.00  0.00    +0.000 C 
ATOM      3  C   UNL     1       1.374   3.911  18.394  0.00  0.00    +0.000 C 
ATOM      4  N   UNL     1       2.549   4.335  17.592  0.00  0.00    +0.000 NA
ATOM      5  C   UNL     1       3.163   5.533  18.211  0.00  0.00    +0.000 C 
ATOM      6  C   UNL     1       3.373   5.441  19.740  0.00  0.00    +0.000 C 
ENDROOT
BRANCH   1   7
ATOM      7  C   UNL     1       1.208   6.388  20.559  0.00  0.00    +0.000 C 
BRANCH   7   8
ATOM      8  C   UNL     1       1.854   7.816  20.585  0.00  0.00    +0.000 C 
BRANCH   8   9
ATOM      9  O   UNL     1       1.795   8.414  19.276  0.00  0.00    +0.000 OA
ATOM     10  H   UNL     1       1.552   7.724  18.644  0.00  0.00    +0.000 HD
ENDBRANCH   8   9
BRANCH   8  11
ATOM     11  C   UNL     1       1.125   8.765  21.573  0.00  0.00    +0.000 C 
BRANCH  11  12
ATOM     12  O   UNL     1       0.611   9.911  20.864  0.00  0.00    +0.000 OA
BRANCH  12  18
ATOM     13  C   UNL     1      -4.875  14.707  20.615  0.00  0.00    +0.000 C 
ATOM     14  C   UNL     1      -3.831  13.757  21.093  0.00  0.00    +0.000 A 
ATOM     15  N   UNL     1      -2.937  13.178  20.325  0.00  0.00    +0.000 NA
ATOM     16  C   UNL     1      -2.149  12.310  21.069  0.00  0.00    +0.000 A 
ATOM     17  C   UNL     1      -1.096  11.498  20.588  0.00  0.00    +0.000 A 
ATOM     18  C   UNL     1      -0.390  10.646  21.452  0.00  0.00    +0.000 A 
ATOM     19  C   UNL     1      -0.735  10.608  22.799  0.00  0.00    +0.000 A 
ATOM     20  C   UNL     1      -1.765  11.413  23.310  0.00  0.00    +0.000 A 
ATOM     21  C   UNL     1      -2.461  12.256  22.430  0.00  0.00    +0.000 A 
ATOM     22  S   UNL     1      -3.760  13.338  22.757  0.00  0.00    +0.000 S 
ENDBRANCH  12  18
ENDBRANCH  11  12
ENDBRANCH   8  11
ENDBRANCH   7   8
ENDBRANCH   1   7
BRANCH   4  23
ATOM     23  C   UNL     1       3.552   3.250  17.449  0.00  0.00    +0.000 C 
BRANCH  23  24
ATOM     24  C   UNL     1       4.781   3.731  16.658  0.00  0.00    +0.000 C 
ATOM     25  O   UNL     1       4.752   3.909  15.446  0.00  0.00    +0.000 OA
ATOM     26  N   UNL     1       5.909   3.908  17.435  0.00  0.00    +0.000 N 
ATOM     27  H   UNL     1       5.739   3.937  18.436  0.00  0.00    +0.000 HD
BRANCH  26  28
ATOM     28  C   UNL     1       7.146   4.470  16.905  0.00  0.00    +0.000 C 
ATOM     29  C   UNL     1       6.908   5.841  16.254  0.00  0.00    +0.000 C 
ATOM     30  C   UNL     1       6.607   6.935  17.280  0.00  0.00    +0.000 C 
ATOM     31  C   UNL     1       7.682   7.007  18.362  0.00  0.00    +0.000 C 
ATOM     32  C   UNL     1       7.908   5.654  19.030  0.00  0.00    +0.000 C 
ATOM     33  C   UNL     1       8.211   4.561  18.003  0.00  0.00    +0.000 C 
ENDBRANCH  26  28
ENDBRANCH  23  24
ENDBRANCH   4  23
TORSDOF 9
ENDMDL
MODEL 8
REMARK VINA RESULT:      -7.0      4.598     11.355
REMARK  Name = 
REMARK  10 active torsions:
REMARK  status: ('A' for Active; 'I' for Inactive)
REMARK    1  A    between atoms: C_1  and  C_2
REMARK    2  A    between atoms: C_6  and  O_7
REMARK    3  A    between atoms: O_7  and  C_8
REMARK    4  A    between atoms: C_8  and  C_9
REMARK    5  A    between atoms: C_9  and  O_10
REMARK    6  A    between atoms: C_9  and  C_11
REMARK    7  A    between atoms: C_11  and  N_12
REMARK    8  A    between atoms: N_15  and  C_16
REMARK    9  A    between atoms: C_16  and  C_17
REMARK   10  A    between atoms: N_19  and  C_20
REMARK                            x       y       z     vdW  Elec       q    Type
REMARK                         _______ _______ _______ _____ _____    ______ ____
ROOT
ATOM      1  N   UNL     1       0.403  13.025  20.441  0.00  0.00    +0.000 NA
ATOM      2  C   UNL     1      -0.833  13.206  19.644  0.00  0.00    +0.000 C 
ATOM      3  C   UNL     1      -2.078  12.374  20.077  0.00  0.00    +0.000 C 
ATOM      4  N   UNL     1      -2.357  12.252  21.529  0.00  0.00    +0.000 NA
ATOM      5  C   UNL     1      -1.082  12.100  22.267  0.00  0.00    +0.000 C 
ATOM      6  C   UNL     1       0.027  13.100  21.863  0.00  0.00    +0.000 C 
ENDROOT
BRANCH   1   7
ATOM      7  C   UNL     1       1.167  11.813  20.048  0.00  0.00    +0.000 C 
BRANCH   7   8
ATOM      8  C   UNL     1       1.175  11.428  18.527  0.00  0.00    +0.000 C 
BRANCH   8   9
ATOM      9  O   UNL     1       2.389  11.885  17.903  0.00  0.00    +0.000 OA
ATOM     10  H   UNL     1       2.250  11.887  16.946  0.00  0.00    +0.000 HD
ENDBRANCH   8   9
BRANCH   8  11
ATOM     11  C   UNL     1       1.081   9.894  18.316  0.00  0.00    +0.000 C 
BRANCH  11  12
ATOM     12  O   UNL     1       2.289   9.410  17.695  0.00  0.00    +0.000 OA
BRANCH  12  18
ATOM     13  C   UNL     1       2.072   3.311  21.686  0.00  0.00    +0.000 C 
ATOM     14  C   UNL     1       2.453   4.351  20.688  0.00  0.00    +0.000 A 
ATOM     15  N   UNL     1       1.906   5.542  20.601  0.00  0.00    +0.000 NA
ATOM     16  C   UNL     1       2.447   6.246  19.533  0.00  0.00    +0.000 A 
ATOM     17  C   UNL     1       2.098   7.550  19.115  0.00  0.00    +0.000 A 
ATOM     18  C   UNL     1       2.714   8.139  17.998  0.00  0.00    +0.000 A 
ATOM     19  C   UNL     1       3.682   7.422  17.302  0.00  0.00    +0.000 A 
ATOM     20  C   UNL     1       4.063   6.132  17.702  0.00  0.00    +0.000 A 
ATOM     21  C   UNL     1       3.433   5.561  18.818  0.00  0.00    +0.000 A 
ATOM     22  S   UNL     1       3.677   4.012  19.532  0.00  0.00    +0.000 S 
ENDBRANCH  12  18
ENDBRANCH  11  12
ENDBRANCH   8  11
ENDBRANCH   7   8
ENDBRANCH   1   7
BRANCH   4  23
ATOM     23  C   UNL     1      -3.127  13.409  22.052  0.00  0.00    +0.000 C 
BRANCH  23  24
ATOM     24  C   UNL     1      -4.270  13.792  21.096  0.00  0.00    +0.000 C 
ATOM     25  O   UNL     1      -4.353  14.903  20.584  0.00  0.00    +0.000 OA
ATOM     26  N   UNL     1      -5.194  12.785  20.901  0.00  0.00    +0.000 N 
ATOM     27  H   UNL     1      -4.892  11.863  21.203  0.00  0.00    +0.000 HD
BRANCH  26  28
ATOM     28  C   UNL     1      -6.288  12.898  19.943  0.00  0.00    +0.000 C 
ATOM     29  C   UNL     1      -5.857  12.448  18.539  0.00  0.00    +0.000 C 
ATOM     30  C   UNL     1      -5.655  10.935  18.443  0.00  0.00    +0.000 C 
ATOM     31  C   UNL     1      -6.884  10.168  18.925  0.00  0.00    +0.000 C 
ATOM     32  C   UNL     1      -7.306  10.594  20.328  0.00  0.00    +0.000 C 
ATOM     33  C   UNL     1      -7.510  12.107  20.422  0.00  0.00    +0.000 C 
ENDBRANCH  26  28
ENDBRANCH  23  24
ENDBRANCH   4  23
TORSDOF 9
ENDMDL
MODEL 9
REMARK VINA RESULT:      -7.0      1.122      1.260
REMARK  Name = 
REMARK  10 active torsions:
REMARK  status: ('A' for Active; 'I' for Inactive)
REMARK    1  A    between atoms: C_1  and  C_2
REMARK    2  A    between atoms: C_6  and  O_7
REMARK    3  A    between atoms: O_7  and  C_8
REMARK    4  A    between atoms: C_8  and  C_9
REMARK    5  A    between atoms: C_9  and  O_10
REMARK    6  A    between atoms: C_9  and  C_11
REMARK    7  A    between atoms: C_11  and  N_12
REMARK    8  A    between atoms: N_15  and  C_16
REMARK    9  A    between atoms: C_16  and  C_17
REMARK   10  A    between atoms: N_19  and  C_20
REMARK                            x       y       z     vdW  Elec       q    Type
REMARK                         _______ _______ _______ _____ _____    ______ ____
ROOT
ATOM      1  N   UNL     1       5.280   4.166  19.392  0.00  0.00    +0.000 NA
ATOM      2  C   UNL     1       4.769   3.357  18.260  0.00  0.00    +0.000 C 
ATOM      3  C   UNL     1       4.612   4.085  16.891  0.00  0.00    +0.000 C 
ATOM      4  N   UNL     1       5.688   5.019  16.476  0.00  0.00    +0.000 NA
ATOM      5  C   UNL     1       6.168   5.775  17.656  0.00  0.00    +0.000 C 
ATOM      6  C   UNL     1       6.453   4.913  18.908  0.00  0.00    +0.000 C 
ENDROOT
BRANCH   1   7
ATOM      7  C   UNL     1       4.221   4.988  20.034  0.00  0.00    +0.000 C 
BRANCH   7   8
ATOM      8  C   UNL     1       2.745   4.468  19.931  0.00  0.00    +0.000 C 
BRANCH   8   9
ATOM      9  O   UNL     1       2.152   4.390  21.241  0.00  0.00    +0.000 OA
ATOM     10  H   UNL     1       2.632   4.995  21.822  0.00  0.00    +0.000 HD
ENDBRANCH   8   9
BRANCH   8  11
ATOM     11  C   UNL     1       1.860   5.402  19.064  0.00  0.00    +0.000 C 
BRANCH  11  12
ATOM     12  O   UNL     1       2.637   6.527  18.605  0.00  0.00    +0.000 OA
BRANCH  12  18
ATOM     13  C   UNL     1      -0.770  11.587  22.599  0.00  0.00    +0.000 C 
ATOM     14  C   UNL     1      -0.101  10.864  21.481  0.00  0.00    +0.000 A 
ATOM     15  N   UNL     1       0.286   9.610  21.525  0.00  0.00    +0.000 NA
ATOM     16  C   UNL     1       0.924   9.259  20.342  0.00  0.00    +0.000 A 
ATOM     17  C   UNL     1       1.491   8.004  20.026  0.00  0.00    +0.000 A 
ATOM     18  C   UNL     1       2.128   7.789  18.793  0.00  0.00    +0.000 A 
ATOM     19  C   UNL     1       2.194   8.832  17.873  0.00  0.00    +0.000 A 
ATOM     20  C   UNL     1       1.627  10.085  18.151  0.00  0.00    +0.000 A 
ATOM     21  C   UNL     1       0.998  10.280  19.390  0.00  0.00    +0.000 A 
ATOM     22  S   UNL     1       0.229  11.691  20.012  0.00  0.00    +0.000 S 
ENDBRANCH  12  18
ENDBRANCH  11  12
ENDBRANCH   8  11
ENDBRANCH   7   8
ENDBRANCH   1   7
BRANCH   4  23
ATOM     23  C   UNL     1       6.815   4.318  15.811  0.00  0.00    +0.000 C 
BRANCH  23  24
ATOM     24  C   UNL     1       6.907   4.702  14.324  0.00  0.00    +0.000 C 
ATOM     25  O   UNL     1       7.635   5.603  13.922  0.00  0.00    +0.000 OA
ATOM     26  N   UNL     1       6.078   3.961  13.506  0.00  0.00    +0.000 N 
ATOM     27  H   UNL     1       5.702   3.117  13.928  0.00  0.00    +0.000 HD
BRANCH  26  28
ATOM     28  C   UNL     1       6.098   4.082  12.052  0.00  0.00    +0.000 C 
ATOM     29  C   UNL     1       7.434   3.602  11.465  0.00  0.00    +0.000 C 
ATOM     30  C   UNL     1       7.601   2.084  11.547  0.00  0.00    +0.000 C 
ATOM     31  C   UNL     1       6.418   1.350  10.922  0.00  0.00    +0.000 C 
ATOM     32  C   UNL     1       5.088   1.804  11.516  0.00  0.00    +0.000 C 
ATOM     33  C   UNL     1       4.920   3.322  11.431  0.00  0.00    +0.000 C 
ENDBRANCH  26  28
ENDBRANCH  23  24
ENDBRANCH   4  23
TORSDOF 9
ENDMDL
