MODEL 1
REMARK VINA RESULT:      -8.1      0.000      0.000
REMARK  Name = 
REMARK  9 active torsions:
REMARK  status: ('A' for Active; 'I' for Inactive)
REMARK    1  A    between atoms: C_1  and  C_2
REMARK    2  A    between atoms: C_2  and  O_3
REMARK    3  A    between atoms: O_3  and  C_4
REMARK    4  A    between atoms: C_9  and  N_10
REMARK    5  A    between atoms: C_13  and  C_14
REMARK    6  A    between atoms: C_14  and  O_15
REMARK    7  A    between atoms: O_15  and  C_16
REMARK    8  A    between atoms: C_19  and  C_20
REMARK    9  A    between atoms: C_26  and  C_27
REMARK                            x       y       z     vdW  Elec       q    Type
REMARK                         _______ _______ _______ _____ _____    ______ ____
ROOT
ATOM      1  N   UNL     1       6.749   5.954  17.764  0.00  0.00    +0.000 N 
ATOM      2  N   UNL     1       6.488   6.810  16.755  0.00  0.00    +0.000 NA
ATOM      3  C   UNL     1       7.246   7.872  17.019  0.00  0.00    +0.000 A 
ATOM      4  C   UNL     1       8.014   7.712  18.191  0.00  0.00    +0.000 A 
ATOM      5  C   UNL     1       7.663   6.457  18.656  0.00  0.00    +0.000 A 
ENDROOT
BRANCH   1  11
ATOM      6  C   UNL     1       1.889   4.351  18.354  0.00  0.00    +0.000 C 
ATOM      7  O   UNL     1       1.110   4.180  17.424  0.00  0.00    +0.000 OA
ATOM      8  N   UNL     1       3.190   4.807  18.210  0.00  0.00    +0.000 N 
ATOM      9  C   UNL     1       3.711   5.146  16.894  0.00  0.00    +0.000 C 
ATOM     10  C   UNL     1       5.058   4.464  16.667  0.00  0.00    +0.000 C 
ATOM     11  C   UNL     1       6.050   4.670  17.826  0.00  0.00    +0.000 C 
ATOM     12  C   UNL     1       5.399   4.443  19.200  0.00  0.00    +0.000 C 
ATOM     13  C   UNL     1       4.054   5.145  19.336  0.00  0.00    +0.000 C 
BRANCH   6  14
ATOM     14  O   UNL     1       1.581   4.095  19.658  0.00  0.00    +0.000 OA
BRANCH  14  16
ATOM     15  C   UNL     1       1.902   1.677  19.253  0.00  0.00    +0.000 C 
ATOM     16  C   UNL     1       1.889   2.811  20.230  0.00  0.00    +0.000 C 
ATOM     17  C   UNL     1       1.266   2.618  21.594  0.00  0.00    +0.000 C 
ATOM     18  C   UNL     1       2.754   2.743  21.460  0.00  0.00    +0.000 C 
ENDBRANCH  14  16
ENDBRANCH   6  14
ENDBRANCH   1  11
BRANCH   5  19
ATOM     19  C   UNL     1       8.140   5.790  19.816  0.00  0.00    +0.000 C 
ATOM     20  N   UNL     1       8.549   5.253  20.758  0.00  0.00    +0.000 NA
ENDBRANCH   5  19
BRANCH   4  21
ATOM     21  C   UNL     1       8.994   8.681  18.753  0.00  0.00    +0.000 C 
BRANCH  21  22
ATOM     22  O   UNL     1       8.388   9.958  18.975  0.00  0.00    +0.000 OA
BRANCH  22  23
ATOM     23  C   UNL     1       9.173  11.053  18.717  0.00  0.00    +0.000 A 
ATOM     24  C   UNL     1      10.353  11.116  19.466  0.00  0.00    +0.000 A 
ATOM     25  C   UNL     1      11.248  12.185  19.305  0.00  0.00    +0.000 A 
ATOM     26  C   UNL     1      10.970  13.207  18.389  0.00  0.00    +0.000 A 
ATOM     27  C   UNL     1       9.791  13.140  17.642  0.00  0.00    +0.000 A 
ATOM     28  C   UNL     1       8.908  12.076  17.807  0.00  0.00    +0.000 A 
ATOM     29  F   UNL     1       7.795  12.083  17.059  0.00  0.00    +0.000 F 
BRANCH  26  30
ATOM     30  C   UNL     1      11.857  14.380  18.150  0.00  0.00    +0.000 C 
ATOM     31  N   UNL     1      12.313  15.089  19.223  0.00  0.00    +0.000 N 
ATOM     32  O   UNL     1      12.181  14.716  17.018  0.00  0.00    +0.000 OA
ATOM     33  H   UNL     1      12.108  14.891  20.189  0.00  0.00    +0.000 HD
ATOM     34  H   UNL     1      12.913  15.877  19.018  0.00  0.00    +0.000 HD
ENDBRANCH  26  30
ENDBRANCH  22  23
ENDBRANCH  21  22
ENDBRANCH   4  21
TORSDOF 8
ENDMDL
MODEL 2
REMARK VINA RESULT:      -8.0      5.744      8.648
REMARK  Name = 
REMARK  9 active torsions:
REMARK  status: ('A' for Active; 'I' for Inactive)
REMARK    1  A    between atoms: C_1  and  C_2
REMARK    2  A    between atoms: C_2  and  O_3
REMARK    3  A    between atoms: O_3  and  C_4
REMARK    4  A    between atoms: C_9  and  N_10
REMARK    5  A    between atoms: C_13  and  C_14
REMARK    6  A    between atoms: C_14  and  O_15
REMARK    7  A    between atoms: O_15  and  C_16
REMARK    8  A    between atoms: C_19  and  C_20
REMARK    9  A    between atoms: C_26  and  C_27
REMARK                            x       y       z     vdW  Elec       q    Type
REMARK                         _______ _______ _______ _____ _____    ______ ____
ROOT
ATOM      1  N   UNL     1       3.453   5.295  19.283  0.00  0.00    +0.000 N 
ATOM      2  N   UNL     1       3.438   6.429  18.553  0.00  0.00    +0.000 NA
ATOM      3  C   UNL     1       2.513   7.186  19.141  0.00  0.00    +0.000 A 
ATOM      4  C   UNL     1       1.931   6.559  20.261  0.00  0.00    +0.000 A 
ATOM      5  C   UNL     1       2.558   5.327  20.323  0.00  0.00    +0.000 A 
ENDROOT
BRANCH   1  11
ATOM      6  C   UNL     1       6.641   4.237  15.376  0.00  0.00    +0.000 C 
ATOM      7  O   UNL     1       7.824   4.554  15.357  0.00  0.00    +0.000 OA
ATOM      8  N   UNL     1       5.768   4.539  16.410  0.00  0.00    +0.000 N 
ATOM      9  C   UNL     1       6.224   5.304  17.561  0.00  0.00    +0.000 C 
ATOM     10  C   UNL     1       5.824   4.601  18.856  0.00  0.00    +0.000 C 
ATOM     11  C   UNL     1       4.339   4.196  18.897  0.00  0.00    +0.000 C 
ATOM     12  C   UNL     1       3.878   3.527  17.593  0.00  0.00    +0.000 C 
ATOM     13  C   UNL     1       4.332   4.284  16.351  0.00  0.00    +0.000 C 
BRANCH   6  14
ATOM     14  O   UNL     1       6.031   3.525  14.387  0.00  0.00    +0.000 OA
BRANCH  14  16
ATOM     15  C   UNL     1       7.183   5.020  12.790  0.00  0.00    +0.000 C 
ATOM     16  C   UNL     1       6.325   3.813  13.008  0.00  0.00    +0.000 C 
ATOM     17  C   UNL     1       5.148   3.556  12.095  0.00  0.00    +0.000 C 
ATOM     18  C   UNL     1       6.364   2.683  12.013  0.00  0.00    +0.000 C 
ENDBRANCH  14  16
ENDBRANCH   6  14
ENDBRANCH   1  11
BRANCH   5  19
ATOM     19  C   UNL     1       2.348   4.286  21.265  0.00  0.00    +0.000 C 
ATOM     20  N   UNL     1       2.156   3.440  22.034  0.00  0.00    +0.000 NA
ENDBRANCH   5  19
BRANCH   4  21
ATOM     21  C   UNL     1       0.900   7.134  21.168  0.00  0.00    +0.000 C 
BRANCH  21  22
ATOM     22  O   UNL     1       1.378   8.324  21.803  0.00  0.00    +0.000 OA
BRANCH  22  23
ATOM     23  C   UNL     1       0.519   9.394  21.806  0.00  0.00    +0.000 A 
ATOM     24  C   UNL     1      -0.146   9.608  23.018  0.00  0.00    +0.000 A 
ATOM     25  C   UNL     1      -1.056  10.667  23.158  0.00  0.00    +0.000 A 
ATOM     26  C   UNL     1      -1.311  11.526  22.083  0.00  0.00    +0.000 A 
ATOM     27  C   UNL     1      -0.644  11.311  20.875  0.00  0.00    +0.000 A 
ATOM     28  C   UNL     1       0.258  10.258  20.742  0.00  0.00    +0.000 A 
ATOM     29  F   UNL     1       0.855  10.110  19.551  0.00  0.00    +0.000 F 
BRANCH  26  30
ATOM     30  C   UNL     1      -2.258  12.675  22.137  0.00  0.00    +0.000 C 
ATOM     31  N   UNL     1      -2.006  13.695  23.007  0.00  0.00    +0.000 N 
ATOM     32  O   UNL     1      -3.252  12.718  21.422  0.00  0.00    +0.000 OA
ATOM     33  H   UNL     1      -1.218  13.755  23.631  0.00  0.00    +0.000 HD
ATOM     34  H   UNL     1      -2.672  14.456  23.011  0.00  0.00    +0.000 HD
ENDBRANCH  26  30
ENDBRANCH  22  23
ENDBRANCH  21  22
ENDBRANCH   4  21
TORSDOF 8
ENDMDL
MODEL 3
REMARK VINA RESULT:      -8.0      5.867      8.681
REMARK  Name = 
REMARK  9 active torsions:
REMARK  status: ('A' for Active; 'I' for Inactive)
REMARK    1  A    between atoms: C_1  and  C_2
REMARK    2  A    between atoms: C_2  and  O_3
REMARK    3  A    between atoms: O_3  and  C_4
REMARK    4  A    between atoms: C_9  and  N_10
REMARK    5  A    between atoms: C_13  and  C_14
REMARK    6  A    between atoms: C_14  and  O_15
REMARK    7  A    between atoms: O_15  and  C_16
REMARK    8  A    between atoms: C_19  and  C_20
REMARK    9  A    between atoms: C_26  and  C_27
REMARK                            x       y       z     vdW  Elec       q    Type
REMARK                         _______ _______ _______ _____ _____    ______ ____
ROOT
ATOM      1  N   UNL     1       3.502   5.345  19.263  0.00  0.00    +0.000 N 
ATOM      2  N   UNL     1       3.501   6.484  18.541  0.00  0.00    +0.000 NA
ATOM      3  C   UNL     1       2.566   7.238  19.116  0.00  0.00    +0.000 A 
ATOM      4  C   UNL     1       1.963   6.604  20.221  0.00  0.00    +0.000 A 
ATOM      5  C   UNL     1       2.588   5.371  20.286  0.00  0.00    +0.000 A 
ENDROOT
BRANCH   1  11
ATOM      6  C   UNL     1       6.681   4.262  15.357  0.00  0.00    +0.000 C 
ATOM      7  O   UNL     1       7.862   4.587  15.329  0.00  0.00    +0.000 OA
ATOM      8  N   UNL     1       5.810   4.571  16.390  0.00  0.00    +0.000 N 
ATOM      9  C   UNL     1       6.265   5.353  17.530  0.00  0.00    +0.000 C 
ATOM     10  C   UNL     1       5.876   4.662  18.835  0.00  0.00    +0.000 C 
ATOM     11  C   UNL     1       4.394   4.248  18.887  0.00  0.00    +0.000 C 
ATOM     12  C   UNL     1       3.933   3.559  17.593  0.00  0.00    +0.000 C 
ATOM     13  C   UNL     1       4.376   4.305  16.340  0.00  0.00    +0.000 C 
BRANCH   6  14
ATOM     14  O   UNL     1       6.071   3.534  14.378  0.00  0.00    +0.000 OA
BRANCH  14  16
ATOM     15  C   UNL     1       7.238   4.995  12.760  0.00  0.00    +0.000 C 
ATOM     16  C   UNL     1       6.364   3.803  12.995  0.00  0.00    +0.000 C 
ATOM     17  C   UNL     1       5.178   3.552  12.090  0.00  0.00    +0.000 C 
ATOM     18  C   UNL     1       6.382   2.662  12.012  0.00  0.00    +0.000 C 
ENDBRANCH  14  16
ENDBRANCH   6  14
ENDBRANCH   1  11
BRANCH   5  19
ATOM     19  C   UNL     1       2.359   4.324  21.218  0.00  0.00    +0.000 C 
ATOM     20  N   UNL     1       2.152   3.473  21.977  0.00  0.00    +0.000 NA
ENDBRANCH   5  19
BRANCH   4  21
ATOM     21  C   UNL     1       0.916   7.174  21.113  0.00  0.00    +0.000 C 
BRANCH  21  22
ATOM     22  O   UNL     1       1.342   8.416  21.680  0.00  0.00    +0.000 OA
BRANCH  22  23
ATOM     23  C   UNL     1       0.466   9.465  21.566  0.00  0.00    +0.000 A 
ATOM     24  C   UNL     1       0.277   9.932  20.261  0.00  0.00    +0.000 A 
ATOM     25  C   UNL     1      -0.592  11.003  20.001  0.00  0.00    +0.000 A 
ATOM     26  C   UNL     1      -1.284  11.621  21.050  0.00  0.00    +0.000 A 
ATOM     27  C   UNL     1      -1.094  11.152  22.352  0.00  0.00    +0.000 A 
ATOM     28  C   UNL     1      -0.231  10.089  22.602  0.00  0.00    +0.000 A 
ATOM     29  F   UNL     1      -0.095   9.698  23.878  0.00  0.00    +0.000 F 
BRANCH  26  30
ATOM     30  C   UNL     1      -2.225  12.763  20.872  0.00  0.00    +0.000 C 
ATOM     31  N   UNL     1      -1.829  13.830  20.119  0.00  0.00    +0.000 N 
ATOM     32  O   UNL     1      -3.336  12.762  21.386  0.00  0.00    +0.000 OA
ATOM     33  H   UNL     1      -0.941  13.925  19.653  0.00  0.00    +0.000 HD
ATOM     34  H   UNL     1      -2.497  14.583  20.022  0.00  0.00    +0.000 HD
ENDBRANCH  26  30
ENDBRANCH  22  23
ENDBRANCH  21  22
ENDBRANCH   4  21
TORSDOF 8
ENDMDL
MODEL 4
REMARK VINA RESULT:      -7.9      1.152      1.158
REMARK  Name = 
REMARK  9 active torsions:
REMARK  status: ('A' for Active; 'I' for Inactive)
REMARK    1  A    between atoms: C_1  and  C_2
REMARK    2  A    between atoms: C_2  and  O_3
REMARK    3  A    between atoms: O_3  and  C_4
REMARK    4  A    between atoms: C_9  and  N_10
REMARK    5  A    between atoms: C_13  and  C_14
REMARK    6  A    between atoms: C_14  and  O_15
REMARK    7  A    between atoms: O_15  and  C_16
REMARK    8  A    between atoms: C_19  and  C_20
REMARK    9  A    between atoms: C_26  and  C_27
REMARK                            x       y       z     vdW  Elec       q    Type
REMARK                         _______ _______ _______ _____ _____    ______ ____
ROOT
ATOM      1  N   UNL     1       6.637   5.865  17.739  0.00  0.00    +0.000 N 
ATOM      2  N   UNL     1       6.390   6.687  16.699  0.00  0.00    +0.000 NA
ATOM      3  C   UNL     1       7.139   7.761  16.942  0.00  0.00    +0.000 A 
ATOM      4  C   UNL     1       7.887   7.642  18.131  0.00  0.00    +0.000 A 
ATOM      5  C   UNL     1       7.533   6.401  18.630  0.00  0.00    +0.000 A 
ENDROOT
BRANCH   1  11
ATOM      6  C   UNL     1       1.776   4.258  18.316  0.00  0.00    +0.000 C 
ATOM      7  O   UNL     1       1.010   4.056  17.381  0.00  0.00    +0.000 OA
ATOM      8  N   UNL     1       3.078   4.715  18.174  0.00  0.00    +0.000 N 
ATOM      9  C   UNL     1       3.613   5.018  16.856  0.00  0.00    +0.000 C 
ATOM     10  C   UNL     1       4.966   4.336  16.665  0.00  0.00    +0.000 C 
ATOM     11  C   UNL     1       5.942   4.581  17.830  0.00  0.00    +0.000 C 
ATOM     12  C   UNL     1       5.276   4.391  19.201  0.00  0.00    +0.000 C 
ATOM     13  C   UNL     1       3.926   5.090  19.301  0.00  0.00    +0.000 C 
BRANCH   6  14
ATOM     14  O   UNL     1       1.454   4.039  19.623  0.00  0.00    +0.000 OA
BRANCH  14  16
ATOM     15  C   UNL     1       1.508   1.587  19.308  0.00  0.00    +0.000 C 
ATOM     16  C   UNL     1       1.712   2.756  20.221  0.00  0.00    +0.000 C 
ATOM     17  C   UNL     1       1.241   2.677  21.655  0.00  0.00    +0.000 C 
ATOM     18  C   UNL     1       2.708   2.656  21.345  0.00  0.00    +0.000 C 
ENDBRANCH  14  16
ENDBRANCH   6  14
ENDBRANCH   1  11
BRANCH   5  19
ATOM     19  C   UNL     1       7.992   5.774  19.818  0.00  0.00    +0.000 C 
ATOM     20  N   UNL     1       8.349   5.251  20.790  0.00  0.00    +0.000 NA
ENDBRANCH   5  19
BRANCH   4  21
ATOM     21  C   UNL     1       8.853   8.633  18.678  0.00  0.00    +0.000 C 
BRANCH  21  22
ATOM     22  O   UNL     1       8.925   9.796  17.847  0.00  0.00    +0.000 OA
BRANCH  22  23
ATOM     23  C   UNL     1       9.309  10.958  18.467  0.00  0.00    +0.000 A 
ATOM     24  C   UNL     1      10.198  10.787  19.534  0.00  0.00    +0.000 A 
ATOM     25  C   UNL     1      10.670  11.893  20.258  0.00  0.00    +0.000 A 
ATOM     26  C   UNL     1      10.256  13.187  19.920  0.00  0.00    +0.000 A 
ATOM     27  C   UNL     1       9.370  13.355  18.854  0.00  0.00    +0.000 A 
ATOM     28  C   UNL     1       8.905  12.253  18.139  0.00  0.00    +0.000 A 
ATOM     29  F   UNL     1       8.053  12.492  17.132  0.00  0.00    +0.000 F 
BRANCH  26  30
ATOM     30  C   UNL     1      10.701  14.419  20.630  0.00  0.00    +0.000 C 
ATOM     31  N   UNL     1      11.773  15.108  20.141  0.00  0.00    +0.000 N 
ATOM     32  O   UNL     1      10.129  14.820  21.635  0.00  0.00    +0.000 OA
ATOM     33  H   UNL     1      12.306  14.863  19.322  0.00  0.00    +0.000 HD
ATOM     34  H   UNL     1      12.043  15.939  20.651  0.00  0.00    +0.000 HD
ENDBRANCH  26  30
ENDBRANCH  22  23
ENDBRANCH  21  22
ENDBRANCH   4  21
TORSDOF 8
ENDMDL
MODEL 5
REMARK VINA RESULT:      -7.8      0.917      1.089
REMARK  Name = 
REMARK  9 active torsions:
REMARK  status: ('A' for Active; 'I' for Inactive)
REMARK    1  A    between atoms: C_1  and  C_2
REMARK    2  A    between atoms: C_2  and  O_3
REMARK    3  A    between atoms: O_3  and  C_4
REMARK    4  A    between atoms: C_9  and  N_10
REMARK    5  A    between atoms: C_13  and  C_14
REMARK    6  A    between atoms: C_14  and  O_15
REMARK    7  A    between atoms: O_15  and  C_16
REMARK    8  A    between atoms: C_19  and  C_20
REMARK    9  A    between atoms: C_26  and  C_27
REMARK                            x       y       z     vdW  Elec       q    Type
REMARK                         _______ _______ _______ _____ _____    ______ ____
ROOT
ATOM      1  N   UNL     1       6.748   5.894  17.738  0.00  0.00    +0.000 N 
ATOM      2  N   UNL     1       6.514   6.737  16.712  0.00  0.00    +0.000 NA
ATOM      3  C   UNL     1       7.292   7.788  16.966  0.00  0.00    +0.000 A 
ATOM      4  C   UNL     1       8.044   7.632  18.147  0.00  0.00    +0.000 A 
ATOM      5  C   UNL     1       7.663   6.393  18.630  0.00  0.00    +0.000 A 
ENDROOT
BRANCH   1  11
ATOM      6  C   UNL     1       1.848   4.401  18.294  0.00  0.00    +0.000 C 
ATOM      7  O   UNL     1       1.078   4.229  17.357  0.00  0.00    +0.000 OA
ATOM      8  N   UNL     1       3.160   4.828  18.158  0.00  0.00    +0.000 N 
ATOM      9  C   UNL     1       3.705   5.131  16.843  0.00  0.00    +0.000 C 
ATOM     10  C   UNL     1       5.040   4.418  16.646  0.00  0.00    +0.000 C 
ATOM     11  C   UNL     1       6.021   4.626  17.815  0.00  0.00    +0.000 C 
ATOM     12  C   UNL     1       5.349   4.438  19.184  0.00  0.00    +0.000 C 
ATOM     13  C   UNL     1       4.017   5.170  19.289  0.00  0.00    +0.000 C 
BRANCH   6  14
ATOM     14  O   UNL     1       1.519   4.177  19.599  0.00  0.00    +0.000 OA
BRANCH  14  16
ATOM     15  C   UNL     1       1.634   1.733  19.239  0.00  0.00    +0.000 C 
ATOM     16  C   UNL     1       1.757   2.885  20.187  0.00  0.00    +0.000 C 
ATOM     17  C   UNL     1       1.191   2.770  21.584  0.00  0.00    +0.000 C 
ATOM     18  C   UNL     1       2.676   2.777  21.374  0.00  0.00    +0.000 C 
ENDBRANCH  14  16
ENDBRANCH   6  14
ENDBRANCH   1  11
BRANCH   5  19
ATOM     19  C   UNL     1       8.114   5.737  19.806  0.00  0.00    +0.000 C 
ATOM     20  N   UNL     1       8.463   5.199  20.772  0.00  0.00    +0.000 NA
ENDBRANCH   5  19
BRANCH   4  21
ATOM     21  C   UNL     1       9.039   8.591  18.702  0.00  0.00    +0.000 C 
BRANCH  21  22
ATOM     22  O   UNL     1       8.422   9.836  19.041  0.00  0.00    +0.000 OA
BRANCH  22  23
ATOM     23  C   UNL     1       9.237  10.940  19.020  0.00  0.00    +0.000 A 
ATOM     24  C   UNL     1       9.867  11.181  17.795  0.00  0.00    +0.000 A 
ATOM     25  C   UNL     1      10.730  12.275  17.635  0.00  0.00    +0.000 A 
ATOM     26  C   UNL     1      10.974  13.144  18.706  0.00  0.00    +0.000 A 
ATOM     27  C   UNL     1      10.343  12.901  19.928  0.00  0.00    +0.000 A 
ATOM     28  C   UNL     1       9.487  11.813  20.079  0.00  0.00    +0.000 A 
ATOM     29  F   UNL     1       8.922  11.641  21.283  0.00  0.00    +0.000 F 
BRANCH  26  30
ATOM     30  C   UNL     1      11.874  14.329  18.633  0.00  0.00    +0.000 C 
ATOM     31  N   UNL     1      12.186  14.989  19.785  0.00  0.00    +0.000 N 
ATOM     32  O   UNL     1      12.333  14.718  17.566  0.00  0.00    +0.000 OA
ATOM     33  H   UNL     1      11.865  14.747  20.708  0.00  0.00    +0.000 HD
ATOM     34  H   UNL     1      12.801  15.788  19.692  0.00  0.00    +0.000 HD
ENDBRANCH  26  30
ENDBRANCH  22  23
ENDBRANCH  21  22
ENDBRANCH   4  21
TORSDOF 8
ENDMDL
MODEL 6
REMARK VINA RESULT:      -7.6      5.794      8.815
REMARK  Name = 
REMARK  9 active torsions:
REMARK  status: ('A' for Active; 'I' for Inactive)
REMARK    1  A    between atoms: C_1  and  C_2
REMARK    2  A    between atoms: C_2  and  O_3
REMARK    3  A    between atoms: O_3  and  C_4
REMARK    4  A    between atoms: C_9  and  N_10
REMARK    5  A    between atoms: C_13  and  C_14
REMARK    6  A    between atoms: C_14  and  O_15
REMARK    7  A    between atoms: O_15  and  C_16
REMARK    8  A    between atoms: C_19  and  C_20
REMARK    9  A    between atoms: C_26  and  C_27
REMARK                            x       y       z     vdW  Elec       q    Type
REMARK                         _______ _______ _______ _____ _____    ______ ____
ROOT
ATOM      1  N   UNL     1       3.748   5.949  18.809  0.00  0.00    +0.000 N 
ATOM      2  N   UNL     1       3.813   7.058  18.045  0.00  0.00    +0.000 NA
ATOM      3  C   UNL     1       2.864   7.853  18.536  0.00  0.00    +0.000 A 
ATOM      4  C   UNL     1       2.186   7.275  19.629  0.00  0.00    +0.000 A 
ATOM      5  C   UNL     1       2.779   6.033  19.777  0.00  0.00    +0.000 A 
ENDROOT
BRANCH   1  11
ATOM      6  C   UNL     1       6.699   4.383  14.886  0.00  0.00    +0.000 C 
ATOM      7  O   UNL     1       7.869   4.714  14.740  0.00  0.00    +0.000 OA
ATOM      8  N   UNL     1       5.888   4.819  15.923  0.00  0.00    +0.000 N 
ATOM      9  C   UNL     1       6.398   5.752  16.916  0.00  0.00    +0.000 C 
ATOM     10  C   UNL     1       6.103   5.239  18.324  0.00  0.00    +0.000 C 
ATOM     11  C   UNL     1       4.635   4.820  18.526  0.00  0.00    +0.000 C 
ATOM     12  C   UNL     1       4.108   3.959  17.367  0.00  0.00    +0.000 C 
ATOM     13  C   UNL     1       4.458   4.535  16.001  0.00  0.00    +0.000 C 
BRANCH   6  14
ATOM     14  O   UNL     1       6.043   3.524  14.055  0.00  0.00    +0.000 OA
BRANCH  14  16
ATOM     15  C   UNL     1       7.222   4.650  12.196  0.00  0.00    +0.000 C 
ATOM     16  C   UNL     1       6.215   3.631  12.630  0.00  0.00    +0.000 C 
ATOM     17  C   UNL     1       4.912   3.497  11.875  0.00  0.00    +0.000 C 
ATOM     18  C   UNL     1       5.957   2.426  11.766  0.00  0.00    +0.000 C 
ENDBRANCH  14  16
ENDBRANCH   6  14
ENDBRANCH   1  11
BRANCH   5  19
ATOM     19  C   UNL     1       2.475   5.029  20.733  0.00  0.00    +0.000 C 
ATOM     20  N   UNL     1       2.248   4.208  21.520  0.00  0.00    +0.000 NA
ENDBRANCH   5  19
BRANCH   4  21
ATOM     21  C   UNL     1       1.103   7.900  20.437  0.00  0.00    +0.000 C 
BRANCH  21  22
ATOM     22  O   UNL     1       0.637   9.108  19.827  0.00  0.00    +0.000 OA
BRANCH  22  23
ATOM     23  C   UNL     1      -0.084   9.952  20.633  0.00  0.00    +0.000 A 
ATOM     24  C   UNL     1      -0.092   9.604  21.988  0.00  0.00    +0.000 A 
ATOM     25  C   UNL     1      -0.792  10.381  22.924  0.00  0.00    +0.000 A 
ATOM     26  C   UNL     1      -1.496  11.519  22.511  0.00  0.00    +0.000 A 
ATOM     27  C   UNL     1      -1.485  11.864  21.158  0.00  0.00    +0.000 A 
ATOM     28  C   UNL     1      -0.787  11.089  20.235  0.00  0.00    +0.000 A 
ATOM     29  F   UNL     1      -0.827  11.481  18.953  0.00  0.00    +0.000 F 
BRANCH  26  30
ATOM     30  C   UNL     1      -2.268  12.402  23.429  0.00  0.00    +0.000 C 
ATOM     31  N   UNL     1      -3.512  12.008  23.829  0.00  0.00    +0.000 N 
ATOM     32  O   UNL     1      -1.811  13.466  23.827  0.00  0.00    +0.000 OA
ATOM     33  H   UNL     1      -3.973  11.153  23.563  0.00  0.00    +0.000 HD
ATOM     34  H   UNL     1      -4.003  12.636  24.453  0.00  0.00    +0.000 HD
ENDBRANCH  26  30
ENDBRANCH  22  23
ENDBRANCH  21  22
ENDBRANCH   4  21
TORSDOF 8
ENDMDL
MODEL 7
REMARK VINA RESULT:      -7.5      5.666      8.635
REMARK  Name = 
REMARK  9 active torsions:
REMARK  status: ('A' for Active; 'I' for Inactive)
REMARK    1  A    between atoms: C_1  and  C_2
REMARK    2  A    between atoms: C_2  and  O_3
REMARK    3  A    between atoms: O_3  and  C_4
REMARK    4  A    between atoms: C_9  and  N_10
REMARK    5  A    between atoms: C_13  and  C_14
REMARK    6  A    between atoms: C_14  and  O_15
REMARK    7  A    between atoms: O_15  and  C_16
REMARK    8  A    between atoms: C_19  and  C_20
REMARK    9  A    between atoms: C_26  and  C_27
REMARK                            x       y       z     vdW  Elec       q    Type
REMARK                         _______ _______ _______ _____ _____    ______ ____
ROOT
ATOM      1  N   UNL     1       3.960   5.746  18.872  0.00  0.00    +0.000 N 
ATOM      2  N   UNL     1       3.842   6.897  18.180  0.00  0.00    +0.000 NA
ATOM      3  C   UNL     1       2.765   7.484  18.699  0.00  0.00    +0.000 A 
ATOM      4  C   UNL     1       2.184   6.729  19.738  0.00  0.00    +0.000 A 
ATOM      5  C   UNL     1       2.979   5.600  19.821  0.00  0.00    +0.000 A 
ENDROOT
BRANCH   1  11
ATOM      6  C   UNL     1       6.737   4.541  14.703  0.00  0.00    +0.000 C 
ATOM      7  O   UNL     1       7.788   5.093  14.401  0.00  0.00    +0.000 OA
ATOM      8  N   UNL     1       5.968   4.874  15.807  0.00  0.00    +0.000 N 
ATOM      9  C   UNL     1       6.372   5.961  16.686  0.00  0.00    +0.000 C 
ATOM     10  C   UNL     1       6.346   5.501  18.142  0.00  0.00    +0.000 C 
ATOM     11  C   UNL     1       5.031   4.806  18.539  0.00  0.00    +0.000 C 
ATOM     12  C   UNL     1       4.576   3.774  17.495  0.00  0.00    +0.000 C 
ATOM     13  C   UNL     1       4.648   4.309  16.070  0.00  0.00    +0.000 C 
BRANCH   6  14
ATOM     14  O   UNL     1       6.193   3.507  13.998  0.00  0.00    +0.000 OA
BRANCH  14  16
ATOM     15  C   UNL     1       4.645   3.727  12.082  0.00  0.00    +0.000 C 
ATOM     16  C   UNL     1       6.055   3.607  12.569  0.00  0.00    +0.000 C 
ATOM     17  C   UNL     1       7.031   2.720  11.828  0.00  0.00    +0.000 C 
ATOM     18  C   UNL     1       7.174   4.212  11.764  0.00  0.00    +0.000 C 
ENDBRANCH  14  16
ENDBRANCH   6  14
ENDBRANCH   1  11
BRANCH   5  19
ATOM     19  C   UNL     1       2.842   4.498  20.705  0.00  0.00    +0.000 C 
ATOM     20  N   UNL     1       2.710   3.604  21.433  0.00  0.00    +0.000 NA
ENDBRANCH   5  19
BRANCH   4  21
ATOM     21  C   UNL     1       1.001   7.106  20.559  0.00  0.00    +0.000 C 
BRANCH  21  22
ATOM     22  O   UNL     1       1.346   8.091  21.538  0.00  0.00    +0.000 OA
BRANCH  22  23
ATOM     23  C   UNL     1       0.548   9.206  21.580  0.00  0.00    +0.000 A 
ATOM     24  C   UNL     1       0.324   9.814  20.340  0.00  0.00    +0.000 A 
ATOM     25  C   UNL     1      -0.473  10.965  20.239  0.00  0.00    +0.000 A 
ATOM     26  C   UNL     1      -1.056  11.523  21.383  0.00  0.00    +0.000 A 
ATOM     27  C   UNL     1      -0.832  10.913  22.620  0.00  0.00    +0.000 A 
ATOM     28  C   UNL     1      -0.040   9.771  22.713  0.00  0.00    +0.000 A 
ATOM     29  F   UNL     1       0.135   9.245  23.934  0.00  0.00    +0.000 F 
BRANCH  26  30
ATOM     30  C   UNL     1      -1.914  12.741  21.376  0.00  0.00    +0.000 C 
ATOM     31  N   UNL     1      -3.187  12.645  20.893  0.00  0.00    +0.000 N 
ATOM     32  O   UNL     1      -1.501  13.817  21.789  0.00  0.00    +0.000 OA
ATOM     33  H   UNL     1      -3.620  11.809  20.537  0.00  0.00    +0.000 HD
ATOM     34  H   UNL     1      -3.737  13.494  20.907  0.00  0.00    +0.000 HD
ENDBRANCH  26  30
ENDBRANCH  22  23
ENDBRANCH  21  22
ENDBRANCH   4  21
TORSDOF 8
ENDMDL
MODEL 8
REMARK VINA RESULT:      -7.5      5.564      8.688
REMARK  Name = 
REMARK  9 active torsions:
REMARK  status: ('A' for Active; 'I' for Inactive)
REMARK    1  A    between atoms: C_1  and  C_2
REMARK    2  A    between atoms: C_2  and  O_3
REMARK    3  A    between atoms: O_3  and  C_4
REMARK    4  A    between atoms: C_9  and  N_10
REMARK    5  A    between atoms: C_13  and  C_14
REMARK    6  A    between atoms: C_14  and  O_15
REMARK    7  A    between atoms: O_15  and  C_16
REMARK    8  A    between atoms: C_19  and  C_20
REMARK    9  A    between atoms: C_26  and  C_27
REMARK                            x       y       z     vdW  Elec       q    Type
REMARK                         _______ _______ _______ _____ _____    ______ ____
ROOT
ATOM      1  N   UNL     1       3.950   5.899  18.812  0.00  0.00    +0.000 N 
ATOM      2  N   UNL     1       3.837   7.057  18.130  0.00  0.00    +0.000 NA
ATOM      3  C   UNL     1       2.758   7.641  18.650  0.00  0.00    +0.000 A 
ATOM      4  C   UNL     1       2.172   6.877  19.679  0.00  0.00    +0.000 A 
ATOM      5  C   UNL     1       2.966   5.746  19.755  0.00  0.00    +0.000 A 
ENDROOT
BRANCH   1  11
ATOM      6  C   UNL     1       6.588   4.570  14.590  0.00  0.00    +0.000 C 
ATOM      7  O   UNL     1       7.618   5.124  14.228  0.00  0.00    +0.000 OA
ATOM      8  N   UNL     1       5.855   4.936  15.709  0.00  0.00    +0.000 N 
ATOM      9  C   UNL     1       6.276   6.061  16.530  0.00  0.00    +0.000 C 
ATOM     10  C   UNL     1       6.311   5.659  18.002  0.00  0.00    +0.000 C 
ATOM     11  C   UNL     1       5.022   4.962  18.475  0.00  0.00    +0.000 C 
ATOM     12  C   UNL     1       4.545   3.884  17.489  0.00  0.00    +0.000 C 
ATOM     13  C   UNL     1       4.555   4.364  16.043  0.00  0.00    +0.000 C 
BRANCH   6  14
ATOM     14  O   UNL     1       6.033   3.502  13.947  0.00  0.00    +0.000 OA
BRANCH  14  16
ATOM     15  C   UNL     1       4.533   3.864  12.014  0.00  0.00    +0.000 C 
ATOM     16  C   UNL     1       5.901   3.517  12.514  0.00  0.00    +0.000 C 
ATOM     17  C   UNL     1       6.684   2.410  11.846  0.00  0.00    +0.000 C 
ATOM     18  C   UNL     1       7.105   3.838  11.668  0.00  0.00    +0.000 C 
ENDBRANCH  14  16
ENDBRANCH   6  14
ENDBRANCH   1  11
BRANCH   5  19
ATOM     19  C   UNL     1       2.824   4.636  20.628  0.00  0.00    +0.000 C 
ATOM     20  N   UNL     1       2.690   3.738  21.350  0.00  0.00    +0.000 NA
ENDBRANCH   5  19
BRANCH   4  21
ATOM     21  C   UNL     1       0.985   7.248  20.498  0.00  0.00    +0.000 C 
BRANCH  21  22
ATOM     22  O   UNL     1       1.327   8.223  21.488  0.00  0.00    +0.000 OA
BRANCH  22  23
ATOM     23  C   UNL     1       0.453   9.270  21.631  0.00  0.00    +0.000 A 
ATOM     24  C   UNL     1      -0.136   9.374  22.896  0.00  0.00    +0.000 A 
ATOM     25  C   UNL     1      -1.052  10.399  23.178  0.00  0.00    +0.000 A 
ATOM     26  C   UNL     1      -1.391  11.334  22.193  0.00  0.00    +0.000 A 
ATOM     27  C   UNL     1      -0.801  11.229  20.931  0.00  0.00    +0.000 A 
ATOM     28  C   UNL     1       0.108  10.209  20.658  0.00  0.00    +0.000 A 
ATOM     29  F   UNL     1       0.628  10.169  19.423  0.00  0.00    +0.000 F 
BRANCH  26  30
ATOM     30  C   UNL     1      -2.352  12.454  22.399  0.00  0.00    +0.000 C 
ATOM     31  N   UNL     1      -1.976  13.717  22.046  0.00  0.00    +0.000 N 
ATOM     32  O   UNL     1      -3.464  12.262  22.876  0.00  0.00    +0.000 OA
ATOM     33  H   UNL     1      -1.090  13.976  21.643  0.00  0.00    +0.000 HD
ATOM     34  H   UNL     1      -2.658  14.448  22.200  0.00  0.00    +0.000 HD
ENDBRANCH  26  30
ENDBRANCH  22  23
ENDBRANCH  21  22
ENDBRANCH   4  21
TORSDOF 8
ENDMDL
MODEL 9
REMARK VINA RESULT:      -7.5      6.751     10.164
REMARK  Name = 
REMARK  9 active torsions:
REMARK  status: ('A' for Active; 'I' for Inactive)
REMARK    1  A    between atoms: C_1  and  C_2
REMARK    2  A    between atoms: C_2  and  O_3
REMARK    3  A    between atoms: O_3  and  C_4
REMARK    4  A    between atoms: C_9  and  N_10
REMARK    5  A    between atoms: C_13  and  C_14
REMARK    6  A    between atoms: C_14  and  O_15
REMARK    7  A    between atoms: O_15  and  C_16
REMARK    8  A    between atoms: C_19  and  C_20
REMARK    9  A    between atoms: C_26  and  C_27
REMARK                            x       y       z     vdW  Elec       q    Type
REMARK                         _______ _______ _______ _____ _____    ______ ____
ROOT
ATOM      1  N   UNL     1       0.237  10.474  19.638  0.00  0.00    +0.000 N 
ATOM      2  N   UNL     1       0.360  10.336  18.302  0.00  0.00    +0.000 NA
ATOM      3  C   UNL     1       1.139   9.266  18.152  0.00  0.00    +0.000 A 
ATOM      4  C   UNL     1       1.518   8.695  19.384  0.00  0.00    +0.000 A 
ATOM      5  C   UNL     1       0.921   9.508  20.331  0.00  0.00    +0.000 A 
ENDROOT
BRANCH   1  11
ATOM      6  C   UNL     1       0.225  15.605  19.174  0.00  0.00    +0.000 C 
ATOM      7  O   UNL     1      -0.416  16.211  18.323  0.00  0.00    +0.000 OA
ATOM      8  N   UNL     1       0.257  14.224  19.291  0.00  0.00    +0.000 N 
ATOM      9  C   UNL     1      -0.478  13.387  18.355  0.00  0.00    +0.000 C 
ATOM     10  C   UNL     1      -1.323  12.364  19.111  0.00  0.00    +0.000 C 
ATOM     11  C   UNL     1      -0.533  11.593  20.183  0.00  0.00    +0.000 C 
ATOM     12  C   UNL     1       0.341  12.518  21.045  0.00  0.00    +0.000 C 
ATOM     13  C   UNL     1       1.138  13.515  20.213  0.00  0.00    +0.000 C 
BRANCH   6  14
ATOM     14  O   UNL     1       0.979  16.215  20.133  0.00  0.00    +0.000 OA
BRANCH  14  16
ATOM     15  C   UNL     1       2.688  16.624  18.393  0.00  0.00    +0.000 C 
ATOM     16  C   UNL     1       2.166  16.938  19.760  0.00  0.00    +0.000 C 
ATOM     17  C   UNL     1       3.133  17.102  20.912  0.00  0.00    +0.000 C 
ATOM     18  C   UNL     1       2.416  18.298  20.357  0.00  0.00    +0.000 C 
ENDBRANCH  14  16
ENDBRANCH   6  14
ENDBRANCH   1  11
BRANCH   5  19
ATOM     19  C   UNL     1       0.978   9.389  21.745  0.00  0.00    +0.000 C 
ATOM     20  N   UNL     1       1.046   9.289  22.898  0.00  0.00    +0.000 NA
ENDBRANCH   5  19
BRANCH   4  21
ATOM     21  C   UNL     1       2.346   7.474  19.582  0.00  0.00    +0.000 C 
BRANCH  21  22
ATOM     22  O   UNL     1       2.229   6.585  18.467  0.00  0.00    +0.000 OA
BRANCH  22  23
ATOM     23  C   UNL     1       3.406   6.100  17.955  0.00  0.00    +0.000 A 
ATOM     24  C   UNL     1       4.190   7.048  17.289  0.00  0.00    +0.000 A 
ATOM     25  C   UNL     1       5.419   6.686  16.715  0.00  0.00    +0.000 A 
ATOM     26  C   UNL     1       5.877   5.366  16.801  0.00  0.00    +0.000 A 
ATOM     27  C   UNL     1       5.092   4.422  17.467  0.00  0.00    +0.000 A 
ATOM     28  C   UNL     1       3.874   4.788  18.035  0.00  0.00    +0.000 A 
ATOM     29  F   UNL     1       3.174   3.826  18.653  0.00  0.00    +0.000 F 
BRANCH  26  30
ATOM     30  C   UNL     1       7.164   4.889  16.222  0.00  0.00    +0.000 C 
ATOM     31  N   UNL     1       7.465   5.213  14.931  0.00  0.00    +0.000 N 
ATOM     32  O   UNL     1       7.950   4.216  16.878  0.00  0.00    +0.000 OA
ATOM     33  H   UNL     1       6.891   5.762  14.313  0.00  0.00    +0.000 HD
ATOM     34  H   UNL     1       8.349   4.871  14.577  0.00  0.00    +0.000 HD
ENDBRANCH  26  30
ENDBRANCH  22  23
ENDBRANCH  21  22
ENDBRANCH   4  21
TORSDOF 8
ENDMDL
