MODEL 1
REMARK VINA RESULT:      -7.2      0.000      0.000
REMARK  Name = 
REMARK  4 active torsions:
REMARK  status: ('A' for Active; 'I' for Inactive)
REMARK    1  A    between atoms: C_1  and  C_2
REMARK    2  A    between atoms: C_7  and  C_8
REMARK    3  A    between atoms: C_10  and  C_11
REMARK    4  A    between atoms: C_11  and  O_13
REMARK                            x       y       z     vdW  Elec       q    Type
REMARK                         _______ _______ _______ _____ _____    ______ ____
ROOT
ATOM      1  C   UNL     1       4.721   4.255  18.199  0.00  0.00    +0.000 A 
ATOM      2  C   UNL     1       4.762   4.375  16.779  0.00  0.00    +0.000 A 
ATOM      3  C   UNL     1       6.097   4.458  16.462  0.00  0.00    +0.000 A 
ATOM      4  O   UNL     1       6.819   4.419  17.614  0.00  0.00    +0.000 OA
ATOM      5  N   UNL     1       5.973   4.282  18.684  0.00  0.00    +0.000 NA
ENDROOT
BRANCH   1  12
ATOM      6  C   UNL     1       3.342   1.570  18.507  0.00  0.00    +0.000 C 
ATOM      7  C   UNL     1       2.873   2.830  19.187  0.00  0.00    +0.000 A 
ATOM      8  C   UNL     1       1.714   2.757  19.983  0.00  0.00    +0.000 A 
ATOM      9  C   UNL     1       1.234   3.874  20.663  0.00  0.00    +0.000 A 
ATOM     10  C   UNL     1       1.907   5.084  20.566  0.00  0.00    +0.000 A 
ATOM     11  C   UNL     1       3.052   5.181  19.772  0.00  0.00    +0.000 A 
ATOM     12  C   UNL     1       3.546   4.068  19.060  0.00  0.00    +0.000 A 
ENDBRANCH   1  12
BRANCH   3  13
ATOM     13  C   UNL     1       6.794   4.553  15.213  0.00  0.00    +0.000 C 
ATOM     14  O   UNL     1       7.617   5.410  14.922  0.00  0.00    +0.000 OA
BRANCH  13  15
ATOM     15  O   UNL     1       6.438   3.565  14.349  0.00  0.00    +0.000 OA
ATOM     16  H   UNL     1       7.187   3.282  13.784  0.00  0.00    +0.000 HD
ENDBRANCH  13  15
ENDBRANCH   3  13
TORSDOF 3
ENDMDL
MODEL 2
REMARK VINA RESULT:      -7.1      1.125      1.502
REMARK  Name = 
REMARK  4 active torsions:
REMARK  status: ('A' for Active; 'I' for Inactive)
REMARK    1  A    between atoms: C_1  and  C_2
REMARK    2  A    between atoms: C_7  and  C_8
REMARK    3  A    between atoms: C_10  and  C_11
REMARK    4  A    between atoms: C_11  and  O_13
REMARK                            x       y       z     vdW  Elec       q    Type
REMARK                         _______ _______ _______ _____ _____    ______ ____
ROOT
ATOM      1  C   UNL     1       4.610   4.464  18.747  0.00  0.00    +0.000 A 
ATOM      2  C   UNL     1       4.863   5.304  17.623  0.00  0.00    +0.000 A 
ATOM      3  C   UNL     1       6.233   5.360  17.516  0.00  0.00    +0.000 A 
ATOM      4  O   UNL     1       6.776   4.626  18.523  0.00  0.00    +0.000 OA
ATOM      5  N   UNL     1       5.778   4.064  19.276  0.00  0.00    +0.000 NA
ENDROOT
BRANCH   1  12
ATOM      6  C   UNL     1       3.433   1.753  18.059  0.00  0.00    +0.000 C 
ATOM      7  C   UNL     1       2.737   2.767  18.929  0.00  0.00    +0.000 A 
ATOM      8  C   UNL     1       1.458   2.444  19.423  0.00  0.00    +0.000 A 
ATOM      9  C   UNL     1       0.763   3.320  20.254  0.00  0.00    +0.000 A 
ATOM     10  C   UNL     1       1.336   4.532  20.614  0.00  0.00    +0.000 A 
ATOM     11  C   UNL     1       2.599   4.876  20.126  0.00  0.00    +0.000 A 
ATOM     12  C   UNL     1       3.313   4.014  19.269  0.00  0.00    +0.000 A 
ENDBRANCH   1  12
BRANCH   3  13
ATOM     13  C   UNL     1       7.107   6.001  16.578  0.00  0.00    +0.000 C 
ATOM     14  O   UNL     1       7.507   5.512  15.531  0.00  0.00    +0.000 OA
BRANCH  13  15
ATOM     15  O   UNL     1       7.466   7.249  16.980  0.00  0.00    +0.000 OA
ATOM     16  H   UNL     1       8.162   7.635  16.408  0.00  0.00    +0.000 HD
ENDBRANCH  13  15
ENDBRANCH   3  13
TORSDOF 3
ENDMDL
MODEL 3
REMARK VINA RESULT:      -7.0      0.489      1.806
REMARK  Name = 
REMARK  4 active torsions:
REMARK  status: ('A' for Active; 'I' for Inactive)
REMARK    1  A    between atoms: C_1  and  C_2
REMARK    2  A    between atoms: C_7  and  C_8
REMARK    3  A    between atoms: C_10  and  C_11
REMARK    4  A    between atoms: C_11  and  O_13
REMARK                            x       y       z     vdW  Elec       q    Type
REMARK                         _______ _______ _______ _____ _____    ______ ____
ROOT
ATOM      1  C   UNL     1       4.508   4.138  18.105  0.00  0.00    +0.000 A 
ATOM      2  C   UNL     1       4.609   4.228  16.686  0.00  0.00    +0.000 A 
ATOM      3  C   UNL     1       5.951   4.368  16.428  0.00  0.00    +0.000 A 
ATOM      4  O   UNL     1       6.620   4.390  17.611  0.00  0.00    +0.000 OA
ATOM      5  N   UNL     1       5.734   4.236  18.645  0.00  0.00    +0.000 NA
ENDROOT
BRANCH   1  12
ATOM      6  C   UNL     1       2.898   6.420  19.292  0.00  0.00    +0.000 C 
ATOM      7  C   UNL     1       2.565   4.966  19.504  0.00  0.00    +0.000 A 
ATOM      8  C   UNL     1       1.461   4.657  20.323  0.00  0.00    +0.000 A 
ATOM      9  C   UNL     1       1.076   3.337  20.546  0.00  0.00    +0.000 A 
ATOM     10  C   UNL     1       1.781   2.301  19.949  0.00  0.00    +0.000 A 
ATOM     11  C   UNL     1       2.885   2.586  19.142  0.00  0.00    +0.000 A 
ATOM     12  C   UNL     1       3.305   3.913  18.917  0.00  0.00    +0.000 A 
ENDBRANCH   1  12
BRANCH   3  13
ATOM     13  C   UNL     1       6.700   4.470  15.209  0.00  0.00    +0.000 C 
ATOM     14  O   UNL     1       7.557   5.310  14.969  0.00  0.00    +0.000 OA
BRANCH  13  15
ATOM     15  O   UNL     1       6.352   3.511  14.310  0.00  0.00    +0.000 OA
ATOM     16  H   UNL     1       5.954   3.891  13.500  0.00  0.00    +0.000 HD
ENDBRANCH  13  15
ENDBRANCH   3  13
TORSDOF 3
ENDMDL
MODEL 4
REMARK VINA RESULT:      -7.0      0.935      2.173
REMARK  Name = 
REMARK  4 active torsions:
REMARK  status: ('A' for Active; 'I' for Inactive)
REMARK    1  A    between atoms: C_1  and  C_2
REMARK    2  A    between atoms: C_7  and  C_8
REMARK    3  A    between atoms: C_10  and  C_11
REMARK    4  A    between atoms: C_11  and  O_13
REMARK                            x       y       z     vdW  Elec       q    Type
REMARK                         _______ _______ _______ _____ _____    ______ ____
ROOT
ATOM      1  C   UNL     1       4.561   4.292  18.581  0.00  0.00    +0.000 A 
ATOM      2  C   UNL     1       4.851   4.860  17.307  0.00  0.00    +0.000 A 
ATOM      3  C   UNL     1       6.222   4.941  17.251  0.00  0.00    +0.000 A 
ATOM      4  O   UNL     1       6.731   4.479  18.423  0.00  0.00    +0.000 OA
ATOM      5  N   UNL     1       5.710   4.067  19.240  0.00  0.00    +0.000 NA
ENDROOT
BRANCH   1  12
ATOM      6  C   UNL     1       2.664   6.344  19.764  0.00  0.00    +0.000 C 
ATOM      7  C   UNL     1       2.372   4.868  19.720  0.00  0.00    +0.000 A 
ATOM      8  C   UNL     1       1.163   4.419  20.287  0.00  0.00    +0.000 A 
ATOM      9  C   UNL     1       0.811   3.071  20.262  0.00  0.00    +0.000 A 
ATOM     10  C   UNL     1       1.657   2.147  19.663  0.00  0.00    +0.000 A 
ATOM     11  C   UNL     1       2.865   2.570  19.105  0.00  0.00    +0.000 A 
ATOM     12  C   UNL     1       3.251   3.926  19.135  0.00  0.00    +0.000 A 
ENDBRANCH   1  12
BRANCH   3  13
ATOM     13  C   UNL     1       7.127   5.381  16.230  0.00  0.00    +0.000 C 
ATOM     14  O   UNL     1       7.493   4.717  15.270  0.00  0.00    +0.000 OA
BRANCH  13  15
ATOM     15  O   UNL     1       7.560   6.653  16.440  0.00  0.00    +0.000 OA
ATOM     16  H   UNL     1       7.167   7.286  15.804  0.00  0.00    +0.000 HD
ENDBRANCH  13  15
ENDBRANCH   3  13
TORSDOF 3
ENDMDL
MODEL 5
REMARK VINA RESULT:      -6.8      1.309      2.324
REMARK  Name = 
REMARK  4 active torsions:
REMARK  status: ('A' for Active; 'I' for Inactive)
REMARK    1  A    between atoms: C_1  and  C_2
REMARK    2  A    between atoms: C_7  and  C_8
REMARK    3  A    between atoms: C_10  and  C_11
REMARK    4  A    between atoms: C_11  and  O_13
REMARK                            x       y       z     vdW  Elec       q    Type
REMARK                         _______ _______ _______ _____ _____    ______ ____
ROOT
ATOM      1  C   UNL     1       4.035   4.018  18.005  0.00  0.00    +0.000 A 
ATOM      2  C   UNL     1       5.417   4.304  18.202  0.00  0.00    +0.000 A 
ATOM      3  C   UNL     1       5.943   4.427  16.937  0.00  0.00    +0.000 A 
ATOM      4  O   UNL     1       4.953   4.204  16.033  0.00  0.00    +0.000 OA
ATOM      5  N   UNL     1       3.774   3.964  16.689  0.00  0.00    +0.000 NA
ENDROOT
BRANCH   1  12
ATOM      6  C   UNL     1       2.536   6.377  19.187  0.00  0.00    +0.000 C 
ATOM      7  C   UNL     1       2.306   4.949  19.607  0.00  0.00    +0.000 A 
ATOM      8  C   UNL     1       1.363   4.706  20.625  0.00  0.00    +0.000 A 
ATOM      9  C   UNL     1       1.079   3.410  21.050  0.00  0.00    +0.000 A 
ATOM     10  C   UNL     1       1.725   2.332  20.460  0.00  0.00    +0.000 A 
ATOM     11  C   UNL     1       2.671   2.553  19.457  0.00  0.00    +0.000 A 
ATOM     12  C   UNL     1       2.989   3.856  19.024  0.00  0.00    +0.000 A 
ENDBRANCH   1  12
BRANCH   3  13
ATOM     13  C   UNL     1       7.257   4.744  16.460  0.00  0.00    +0.000 C 
ATOM     14  O   UNL     1       7.511   5.475  15.512  0.00  0.00    +0.000 OA
BRANCH  13  15
ATOM     15  O   UNL     1       8.231   4.132  17.185  0.00  0.00    +0.000 OA
ATOM     16  H   UNL     1       7.924   3.287  17.575  0.00  0.00    +0.000 HD
ENDBRANCH  13  15
ENDBRANCH   3  13
TORSDOF 3
ENDMDL
MODEL 6
REMARK VINA RESULT:      -6.8      1.336      1.529
REMARK  Name = 
REMARK  4 active torsions:
REMARK  status: ('A' for Active; 'I' for Inactive)
REMARK    1  A    between atoms: C_1  and  C_2
REMARK    2  A    between atoms: C_7  and  C_8
REMARK    3  A    between atoms: C_10  and  C_11
REMARK    4  A    between atoms: C_11  and  O_13
REMARK                            x       y       z     vdW  Elec       q    Type
REMARK                         _______ _______ _______ _____ _____    ______ ____
ROOT
ATOM      1  C   UNL     1       4.028   4.891  17.878  0.00  0.00    +0.000 A 
ATOM      2  C   UNL     1       5.256   4.203  17.657  0.00  0.00    +0.000 A 
ATOM      3  C   UNL     1       5.957   4.989  16.774  0.00  0.00    +0.000 A 
ATOM      4  O   UNL     1       5.195   6.069  16.457  0.00  0.00    +0.000 OA
ATOM      5  N   UNL     1       4.011   6.017  17.146  0.00  0.00    +0.000 NA
ENDROOT
BRANCH   1  12
ATOM      6  C   UNL     1       2.433   2.329  17.560  0.00  0.00    +0.000 C 
ATOM      7  C   UNL     1       2.161   3.352  18.631  0.00  0.00    +0.000 A 
ATOM      8  C   UNL     1       1.088   3.114  19.511  0.00  0.00    +0.000 A 
ATOM      9  C   UNL     1       0.790   4.001  20.543  0.00  0.00    +0.000 A 
ATOM     10  C   UNL     1       1.564   5.140  20.720  0.00  0.00    +0.000 A 
ATOM     11  C   UNL     1       2.626   5.400  19.851  0.00  0.00    +0.000 A 
ATOM     12  C   UNL     1       2.935   4.526  18.789  0.00  0.00    +0.000 A 
ENDBRANCH   1  12
BRANCH   3  13
ATOM     13  C   UNL     1       7.263   4.871  16.194  0.00  0.00    +0.000 C 
ATOM     14  O   UNL     1       7.612   5.353  15.125  0.00  0.00    +0.000 OA
BRANCH  13  15
ATOM     15  O   UNL     1       8.107   4.143  16.972  0.00  0.00    +0.000 OA
ATOM     16  H   UNL     1       8.930   3.902  16.499  0.00  0.00    +0.000 HD
ENDBRANCH  13  15
ENDBRANCH   3  13
TORSDOF 3
ENDMDL
MODEL 7
REMARK VINA RESULT:      -6.7      3.265      5.697
REMARK  Name = 
REMARK  4 active torsions:
REMARK  status: ('A' for Active; 'I' for Inactive)
REMARK    1  A    between atoms: C_1  and  C_2
REMARK    2  A    between atoms: C_7  and  C_8
REMARK    3  A    between atoms: C_10  and  C_11
REMARK    4  A    between atoms: C_11  and  O_13
REMARK                            x       y       z     vdW  Elec       q    Type
REMARK                         _______ _______ _______ _____ _____    ______ ____
ROOT
ATOM      1  C   UNL     1       4.590   3.943  19.324  0.00  0.00    +0.000 A 
ATOM      2  C   UNL     1       3.265   4.281  19.724  0.00  0.00    +0.000 A 
ATOM      3  C   UNL     1       2.825   3.207  20.460  0.00  0.00    +0.000 A 
ATOM      4  O   UNL     1       3.806   2.266  20.484  0.00  0.00    +0.000 OA
ATOM      5  N   UNL     1       4.900   2.723  19.794  0.00  0.00    +0.000 NA
ENDROOT
BRANCH   1  12
ATOM      6  C   UNL     1       4.523   4.157  16.298  0.00  0.00    +0.000 C 
ATOM      7  C   UNL     1       5.550   4.845  17.159  0.00  0.00    +0.000 A 
ATOM      8  C   UNL     1       6.547   5.604  16.516  0.00  0.00    +0.000 A 
ATOM      9  C   UNL     1       7.515   6.289  17.246  0.00  0.00    +0.000 A 
ATOM     10  C   UNL     1       7.501   6.236  18.633  0.00  0.00    +0.000 A 
ATOM     11  C   UNL     1       6.528   5.480  19.290  0.00  0.00    +0.000 A 
ATOM     12  C   UNL     1       5.548   4.763  18.572  0.00  0.00    +0.000 A 
ENDBRANCH   1  12
BRANCH   3  13
ATOM     13  C   UNL     1       1.603   2.948  21.164  0.00  0.00    +0.000 C 
ATOM     14  O   UNL     1       1.518   2.480  22.292  0.00  0.00    +0.000 OA
BRANCH  13  15
ATOM     15  O   UNL     1       0.507   3.282  20.433  0.00  0.00    +0.000 OA
ATOM     16  H   UNL     1      -0.190   2.596  20.479  0.00  0.00    +0.000 HD
ENDBRANCH  13  15
ENDBRANCH   3  13
TORSDOF 3
ENDMDL
MODEL 8
REMARK VINA RESULT:      -6.7      1.524      1.935
REMARK  Name = 
REMARK  4 active torsions:
REMARK  status: ('A' for Active; 'I' for Inactive)
REMARK    1  A    between atoms: C_1  and  C_2
REMARK    2  A    between atoms: C_7  and  C_8
REMARK    3  A    between atoms: C_10  and  C_11
REMARK    4  A    between atoms: C_11  and  O_13
REMARK                            x       y       z     vdW  Elec       q    Type
REMARK                         _______ _______ _______ _____ _____    ______ ____
ROOT
ATOM      1  C   UNL     1       4.295   3.821  18.149  0.00  0.00    +0.000 A 
ATOM      2  C   UNL     1       5.281   4.850  18.168  0.00  0.00    +0.000 A 
ATOM      3  C   UNL     1       5.964   4.716  16.982  0.00  0.00    +0.000 A 
ATOM      4  O   UNL     1       5.446   3.659  16.301  0.00  0.00    +0.000 OA
ATOM      5  N   UNL     1       4.409   3.114  17.014  0.00  0.00    +0.000 NA
ENDROOT
BRANCH   1  12
ATOM      6  C   UNL     1       1.393   4.590  17.707  0.00  0.00    +0.000 C 
ATOM      7  C   UNL     1       1.898   3.934  18.965  0.00  0.00    +0.000 A 
ATOM      8  C   UNL     1       0.973   3.693  20.000  0.00  0.00    +0.000 A 
ATOM      9  C   UNL     1       1.361   3.067  21.182  0.00  0.00    +0.000 A 
ATOM     10  C   UNL     1       2.678   2.663  21.351  0.00  0.00    +0.000 A 
ATOM     11  C   UNL     1       3.613   2.902  20.342  0.00  0.00    +0.000 A 
ATOM     12  C   UNL     1       3.248   3.550  19.144  0.00  0.00    +0.000 A 
ENDBRANCH   1  12
BRANCH   3  13
ATOM     13  C   UNL     1       7.036   5.462  16.390  0.00  0.00    +0.000 C 
ATOM     14  O   UNL     1       7.452   6.542  16.785  0.00  0.00    +0.000 OA
BRANCH  13  15
ATOM     15  O   UNL     1       7.562   4.833  15.305  0.00  0.00    +0.000 OA
ATOM     16  H   UNL     1       7.060   4.027  15.066  0.00  0.00    +0.000 HD
ENDBRANCH  13  15
ENDBRANCH   3  13
TORSDOF 3
ENDMDL
MODEL 9
REMARK VINA RESULT:      -6.7      1.664      2.692
REMARK  Name = 
REMARK  4 active torsions:
REMARK  status: ('A' for Active; 'I' for Inactive)
REMARK    1  A    between atoms: C_1  and  C_2
REMARK    2  A    between atoms: C_7  and  C_8
REMARK    3  A    between atoms: C_10  and  C_11
REMARK    4  A    between atoms: C_11  and  O_13
REMARK                            x       y       z     vdW  Elec       q    Type
REMARK                         _______ _______ _______ _____ _____    ______ ____
ROOT
ATOM      1  C   UNL     1       5.280   4.578  16.320  0.00  0.00    +0.000 A 
ATOM      2  C   UNL     1       5.419   4.818  14.923  0.00  0.00    +0.000 A 
ATOM      3  C   UNL     1       6.775   4.845  14.695  0.00  0.00    +0.000 A 
ATOM      4  O   UNL     1       7.417   4.661  15.879  0.00  0.00    +0.000 OA
ATOM      5  N   UNL     1       6.497   4.484  16.880  0.00  0.00    +0.000 NA
ENDROOT
BRANCH   1  12
ATOM      6  C   UNL     1       3.807   6.890  17.622  0.00  0.00    +0.000 C 
ATOM      7  C   UNL     1       3.365   5.454  17.730  0.00  0.00    +0.000 A 
ATOM      8  C   UNL     1       2.221   5.174  18.503  0.00  0.00    +0.000 A 
ATOM      9  C   UNL     1       1.737   3.874  18.629  0.00  0.00    +0.000 A 
ATOM     10  C   UNL     1       2.382   2.830  17.980  0.00  0.00    +0.000 A 
ATOM     11  C   UNL     1       3.523   3.085  17.217  0.00  0.00    +0.000 A 
ATOM     12  C   UNL     1       4.043   4.390  17.090  0.00  0.00    +0.000 A 
ENDBRANCH   1  12
BRANCH   3  13
ATOM     13  C   UNL     1       7.555   5.006  13.503  0.00  0.00    +0.000 C 
ATOM     14  O   UNL     1       8.524   5.743  13.382  0.00  0.00    +0.000 OA
BRANCH  13  15
ATOM     15  O   UNL     1       7.098   4.235  12.481  0.00  0.00    +0.000 OA
ATOM     16  H   UNL     1       6.378   4.673  11.982  0.00  0.00    +0.000 HD
ENDBRANCH  13  15
ENDBRANCH   3  13
TORSDOF 3
ENDMDL
