MODEL 1
REMARK VINA RESULT:      -8.6      0.000      0.000
REMARK  Name = 
REMARK  5 active torsions:
REMARK  status: ('A' for Active; 'I' for Inactive)
REMARK    1  A    between atoms: C_1  and  O_2
REMARK    2  A    between atoms: O_2  and  C_3
REMARK    3  A    between atoms: C_6  and  C_7
REMARK    4  A    between atoms: C_16  and  C_17
REMARK    5  A    between atoms: C_19  and  C_20
REMARK                            x       y       z     vdW  Elec       q    Type
REMARK                         _______ _______ _______ _____ _____    ______ ____
ROOT
ATOM      1  C   UNL     1       4.324   3.704  18.668  0.00  0.00    +0.000 A 
ATOM      2  N   UNL     1       4.269   2.486  19.187  0.00  0.00    +0.000 NA
ATOM      3  N   UNL     1       3.412   2.505  20.263  0.00  0.00    +0.000 NA
ATOM      4  C   UNL     1       2.934   3.724  20.372  0.00  0.00    +0.000 A 
ATOM      5  N   UNL     1       2.080   4.288  21.251  0.00  0.00    +0.000 NA
ATOM      6  N   UNL     1       1.757   5.494  21.113  0.00  0.00    +0.000 NA
ATOM      7  C   UNL     1       2.226   6.238  20.029  0.00  0.00    +0.000 A 
ATOM      8  N   UNL     1       1.763   7.581  19.885  0.00  0.00    +0.000 N 
ATOM      9  N   UNL     1       1.018   8.123  20.890  0.00  0.00    +0.000 NA
ATOM     10  C   UNL     1       0.808   9.391  20.531  0.00  0.00    +0.000 A 
ATOM     11  C   UNL     1       0.057  10.312  21.419  0.00  0.00    +0.000 C 
ATOM     12  C   UNL     1       1.365   9.673  19.271  0.00  0.00    +0.000 A 
ATOM     13  C   UNL     1       1.953   8.496  18.855  0.00  0.00    +0.000 A 
ATOM     14  C   UNL     1       2.645   8.188  17.579  0.00  0.00    +0.000 C 
ATOM     15  N   UNL     1       3.079   5.792  19.140  0.00  0.00    +0.000 NA
ATOM     16  N   UNL     1       3.440   4.504  19.365  0.00  0.00    +0.000 N 
ENDROOT
BRANCH   1  20
ATOM     17  C   UNL     1       6.849   4.996  15.452  0.00  0.00    +0.000 A 
ATOM     18  C   UNL     1       7.298   5.012  16.771  0.00  0.00    +0.000 A 
ATOM     19  C   UNL     1       6.473   4.566  17.806  0.00  0.00    +0.000 A 
ATOM     20  C   UNL     1       5.177   4.101  17.545  0.00  0.00    +0.000 A 
ATOM     21  C   UNL     1       4.726   4.108  16.218  0.00  0.00    +0.000 A 
ATOM     22  C   UNL     1       5.555   4.552  15.178  0.00  0.00    +0.000 A 
BRANCH  17  24
ATOM     23  C   UNL     1       7.564   5.007  13.200  0.00  0.00    +0.000 C 
ATOM     24  O   UNL     1       7.732   5.482  14.530  0.00  0.00    +0.000 OA
ENDBRANCH  17  24
ENDBRANCH   1  20
TORSDOF 2
ENDMDL
MODEL 2
REMARK VINA RESULT:      -7.5      3.525      5.006
REMARK  Name = 
REMARK  5 active torsions:
REMARK  status: ('A' for Active; 'I' for Inactive)
REMARK    1  A    between atoms: C_1  and  O_2
REMARK    2  A    between atoms: O_2  and  C_3
REMARK    3  A    between atoms: C_6  and  C_7
REMARK    4  A    between atoms: C_16  and  C_17
REMARK    5  A    between atoms: C_19  and  C_20
REMARK                            x       y       z     vdW  Elec       q    Type
REMARK                         _______ _______ _______ _____ _____    ______ ____
ROOT
ATOM      1  C   UNL     1       6.717   5.323  16.051  0.00  0.00    +0.000 A 
ATOM      2  N   UNL     1       7.721   6.159  16.271  0.00  0.00    +0.000 NA
ATOM      3  N   UNL     1       7.704   6.528  17.595  0.00  0.00    +0.000 NA
ATOM      4  C   UNL     1       6.709   5.896  18.174  0.00  0.00    +0.000 A 
ATOM      5  N   UNL     1       6.240   5.907  19.439  0.00  0.00    +0.000 NA
ATOM      6  N   UNL     1       5.269   5.171  19.746  0.00  0.00    +0.000 NA
ATOM      7  C   UNL     1       4.710   4.301  18.808  0.00  0.00    +0.000 A 
ATOM      8  N   UNL     1       3.659   3.435  19.238  0.00  0.00    +0.000 N 
ATOM      9  N   UNL     1       3.145   3.608  20.489  0.00  0.00    +0.000 NA
ATOM     10  C   UNL     1       2.137   2.738  20.581  0.00  0.00    +0.000 A 
ATOM     11  C   UNL     1       1.307   2.672  21.808  0.00  0.00    +0.000 C 
ATOM     12  C   UNL     1       2.019   1.956  19.417  0.00  0.00    +0.000 A 
ATOM     13  C   UNL     1       3.017   2.395  18.573  0.00  0.00    +0.000 A 
ATOM     14  C   UNL     1       3.401   1.898  17.228  0.00  0.00    +0.000 C 
ATOM     15  N   UNL     1       5.073   4.236  17.551  0.00  0.00    +0.000 NA
ATOM     16  N   UNL     1       6.086   5.090  17.257  0.00  0.00    +0.000 N 
ENDROOT
BRANCH   1  20
ATOM     17  C   UNL     1       5.649   3.537  12.302  0.00  0.00    +0.000 A 
ATOM     18  C   UNL     1       4.754   3.559  13.369  0.00  0.00    +0.000 A 
ATOM     19  C   UNL     1       5.106   4.166  14.577  0.00  0.00    +0.000 A 
ATOM     20  C   UNL     1       6.365   4.756  14.746  0.00  0.00    +0.000 A 
ATOM     21  C   UNL     1       7.267   4.711  13.675  0.00  0.00    +0.000 A 
ATOM     22  C   UNL     1       6.913   4.105  12.460  0.00  0.00    +0.000 A 
BRANCH  17  24
ATOM     23  C   UNL     1       3.823   3.049  10.883  0.00  0.00    +0.000 C 
ATOM     24  O   UNL     1       5.205   2.891  11.182  0.00  0.00    +0.000 OA
ENDBRANCH  17  24
ENDBRANCH   1  20
TORSDOF 2
ENDMDL
MODEL 3
REMARK VINA RESULT:      -7.2      2.688      6.714
REMARK  Name = 
REMARK  5 active torsions:
REMARK  status: ('A' for Active; 'I' for Inactive)
REMARK    1  A    between atoms: C_1  and  O_2
REMARK    2  A    between atoms: O_2  and  C_3
REMARK    3  A    between atoms: C_6  and  C_7
REMARK    4  A    between atoms: C_16  and  C_17
REMARK    5  A    between atoms: C_19  and  C_20
REMARK                            x       y       z     vdW  Elec       q    Type
REMARK                         _______ _______ _______ _____ _____    ______ ____
ROOT
ATOM      1  C   UNL     1       2.270   5.372  20.195  0.00  0.00    +0.000 A 
ATOM      2  N   UNL     1       1.955   4.529  21.168  0.00  0.00    +0.000 NA
ATOM      3  N   UNL     1       2.419   3.278  20.834  0.00  0.00    +0.000 NA
ATOM      4  C   UNL     1       3.033   3.375  19.677  0.00  0.00    +0.000 A 
ATOM      5  N   UNL     1       3.647   2.461  18.896  0.00  0.00    +0.000 NA
ATOM      6  N   UNL     1       4.191   2.829  17.825  0.00  0.00    +0.000 NA
ATOM      7  C   UNL     1       4.219   4.177  17.465  0.00  0.00    +0.000 A 
ATOM      8  N   UNL     1       4.920   4.540  16.276  0.00  0.00    +0.000 N 
ATOM      9  N   UNL     1       5.389   3.547  15.468  0.00  0.00    +0.000 NA
ATOM     10  C   UNL     1       5.908   4.169  14.407  0.00  0.00    +0.000 A 
ATOM     11  C   UNL     1       6.482   3.389  13.283  0.00  0.00    +0.000 C 
ATOM     12  C   UNL     1       5.833   5.567  14.537  0.00  0.00    +0.000 A 
ATOM     13  C   UNL     1       5.220   5.794  15.752  0.00  0.00    +0.000 A 
ATOM     14  C   UNL     1       4.926   7.078  16.434  0.00  0.00    +0.000 C 
ATOM     15  N   UNL     1       3.630   5.134  18.138  0.00  0.00    +0.000 NA
ATOM     16  N   UNL     1       3.008   4.679  19.255  0.00  0.00    +0.000 N 
ENDROOT
BRANCH   1  20
ATOM     17  C   UNL     1       1.028   9.475  20.112  0.00  0.00    +0.000 A 
ATOM     18  C   UNL     1       0.785   8.671  21.225  0.00  0.00    +0.000 A 
ATOM     19  C   UNL     1       1.217   7.343  21.247  0.00  0.00    +0.000 A 
ATOM     20  C   UNL     1       1.894   6.787  20.154  0.00  0.00    +0.000 A 
ATOM     21  C   UNL     1       2.115   7.596  19.031  0.00  0.00    +0.000 A 
ATOM     22  C   UNL     1       1.685   8.931  19.008  0.00  0.00    +0.000 A 
BRANCH  17  24
ATOM     23  C   UNL     1      -0.866  10.882  19.983  0.00  0.00    +0.000 C 
ATOM     24  O   UNL     1       0.534  10.747  20.193  0.00  0.00    +0.000 OA
ENDBRANCH  17  24
ENDBRANCH   1  20
TORSDOF 2
ENDMDL
MODEL 4
REMARK VINA RESULT:      -7.1      2.641      6.619
REMARK  Name = 
REMARK  5 active torsions:
REMARK  status: ('A' for Active; 'I' for Inactive)
REMARK    1  A    between atoms: C_1  and  O_2
REMARK    2  A    between atoms: O_2  and  C_3
REMARK    3  A    between atoms: C_6  and  C_7
REMARK    4  A    between atoms: C_16  and  C_17
REMARK    5  A    between atoms: C_19  and  C_20
REMARK                            x       y       z     vdW  Elec       q    Type
REMARK                         _______ _______ _______ _____ _____    ______ ____
ROOT
ATOM      1  C   UNL     1       2.246   5.215  20.294  0.00  0.00    +0.000 A 
ATOM      2  N   UNL     1       1.966   4.353  21.261  0.00  0.00    +0.000 NA
ATOM      3  N   UNL     1       2.473   3.123  20.913  0.00  0.00    +0.000 NA
ATOM      4  C   UNL     1       3.078   3.252  19.754  0.00  0.00    +0.000 A 
ATOM      5  N   UNL     1       3.721   2.369  18.963  0.00  0.00    +0.000 NA
ATOM      6  N   UNL     1       4.247   2.765  17.893  0.00  0.00    +0.000 NA
ATOM      7  C   UNL     1       4.225   4.117  17.545  0.00  0.00    +0.000 A 
ATOM      8  N   UNL     1       4.907   4.517  16.357  0.00  0.00    +0.000 N 
ATOM      9  N   UNL     1       5.407   3.548  15.537  0.00  0.00    +0.000 NA
ATOM     10  C   UNL     1       5.899   4.198  14.480  0.00  0.00    +0.000 A 
ATOM     11  C   UNL     1       6.496   3.451  13.346  0.00  0.00    +0.000 C 
ATOM     12  C   UNL     1       5.774   5.592  14.623  0.00  0.00    +0.000 A 
ATOM     13  C   UNL     1       5.159   5.785  15.843  0.00  0.00    +0.000 A 
ATOM     14  C   UNL     1       4.821   7.052  16.539  0.00  0.00    +0.000 C 
ATOM     15  N   UNL     1       3.604   5.046  18.230  0.00  0.00    +0.000 NA
ATOM     16  N   UNL     1       3.004   4.558  19.345  0.00  0.00    +0.000 N 
ENDROOT
BRANCH   1  20
ATOM     17  C   UNL     1       1.134   9.355  20.181  0.00  0.00    +0.000 A 
ATOM     18  C   UNL     1       1.782   8.754  19.103  0.00  0.00    +0.000 A 
ATOM     19  C   UNL     1       2.117   7.398  19.144  0.00  0.00    +0.000 A 
ATOM     20  C   UNL     1       1.818   6.616  20.268  0.00  0.00    +0.000 A 
ATOM     21  C   UNL     1       1.186   7.233  21.355  0.00  0.00    +0.000 A 
ATOM     22  C   UNL     1       0.846   8.594  21.314  0.00  0.00    +0.000 A 
BRANCH  17  24
ATOM     23  C   UNL     1      -0.202  11.030  19.184  0.00  0.00    +0.000 C 
ATOM     24  O   UNL     1       0.883  10.691  20.039  0.00  0.00    +0.000 OA
ENDBRANCH  17  24
ENDBRANCH   1  20
TORSDOF 2
ENDMDL
MODEL 5
REMARK VINA RESULT:      -7.0      4.770      7.590
REMARK  Name = 
REMARK  5 active torsions:
REMARK  status: ('A' for Active; 'I' for Inactive)
REMARK    1  A    between atoms: C_1  and  O_2
REMARK    2  A    between atoms: O_2  and  C_3
REMARK    3  A    between atoms: C_6  and  C_7
REMARK    4  A    between atoms: C_16  and  C_17
REMARK    5  A    between atoms: C_19  and  C_20
REMARK                            x       y       z     vdW  Elec       q    Type
REMARK                         _______ _______ _______ _____ _____    ______ ____
ROOT
ATOM      1  C   UNL     1       0.289  10.468  20.836  0.00  0.00    +0.000 A 
ATOM      2  N   UNL     1       0.701  10.833  22.042  0.00  0.00    +0.000 NA
ATOM      3  N   UNL     1      -0.186  11.754  22.549  0.00  0.00    +0.000 NA
ATOM      4  C   UNL     1      -1.140  11.921  21.662  0.00  0.00    +0.000 A 
ATOM      5  N   UNL     1      -2.234  12.711  21.645  0.00  0.00    +0.000 NA
ATOM      6  N   UNL     1      -3.019  12.659  20.665  0.00  0.00    +0.000 NA
ATOM      7  C   UNL     1      -2.802  11.754  19.624  0.00  0.00    +0.000 A 
ATOM      8  N   UNL     1      -3.770  11.689  18.577  0.00  0.00    +0.000 N 
ATOM      9  N   UNL     1      -4.769  12.617  18.557  0.00  0.00    +0.000 NA
ATOM     10  C   UNL     1      -5.456  12.373  17.439  0.00  0.00    +0.000 A 
ATOM     11  C   UNL     1      -6.608  13.228  17.061  0.00  0.00    +0.000 C 
ATOM     12  C   UNL     1      -4.948  11.257  16.751  0.00  0.00    +0.000 A 
ATOM     13  C   UNL     1      -3.882  10.811  17.504  0.00  0.00    +0.000 A 
ATOM     14  C   UNL     1      -3.003   9.635  17.290  0.00  0.00    +0.000 C 
ATOM     15  N   UNL     1      -1.758  10.967  19.535  0.00  0.00    +0.000 NA
ATOM     16  N   UNL     1      -0.913  11.101  20.588  0.00  0.00    +0.000 N 
ENDROOT
BRANCH   1  20
ATOM     17  C   UNL     1       2.487   7.763  18.339  0.00  0.00    +0.000 A 
ATOM     18  C   UNL     1       2.194   7.443  19.663  0.00  0.00    +0.000 A 
ATOM     19  C   UNL     1       1.456   8.324  20.458  0.00  0.00    +0.000 A 
ATOM     20  C   UNL     1       1.003   9.547  19.948  0.00  0.00    +0.000 A 
ATOM     21  C   UNL     1       1.320   9.870  18.622  0.00  0.00    +0.000 A 
ATOM     22  C   UNL     1       2.057   8.985  17.821  0.00  0.00    +0.000 A 
BRANCH  17  24
ATOM     23  C   UNL     1       2.977   5.478  17.990  0.00  0.00    +0.000 C 
ATOM     24  O   UNL     1       3.239   6.839  17.669  0.00  0.00    +0.000 OA
ENDBRANCH  17  24
ENDBRANCH   1  20
TORSDOF 2
ENDMDL
MODEL 6
REMARK VINA RESULT:      -6.7      3.892      6.620
REMARK  Name = 
REMARK  5 active torsions:
REMARK  status: ('A' for Active; 'I' for Inactive)
REMARK    1  A    between atoms: C_1  and  O_2
REMARK    2  A    between atoms: O_2  and  C_3
REMARK    3  A    between atoms: C_6  and  C_7
REMARK    4  A    between atoms: C_16  and  C_17
REMARK    5  A    between atoms: C_19  and  C_20
REMARK                            x       y       z     vdW  Elec       q    Type
REMARK                         _______ _______ _______ _____ _____    ______ ____
ROOT
ATOM      1  C   UNL     1       0.540   9.198  21.043  0.00  0.00    +0.000 A 
ATOM      2  N   UNL     1      -0.275   8.651  21.933  0.00  0.00    +0.000 NA
ATOM      3  N   UNL     1      -0.783   9.646  22.735  0.00  0.00    +0.000 NA
ATOM      4  C   UNL     1      -0.295  10.790  22.310  0.00  0.00    +0.000 A 
ATOM      5  N   UNL     1      -0.451  12.059  22.741  0.00  0.00    +0.000 NA
ATOM      6  N   UNL     1       0.118  12.995  22.126  0.00  0.00    +0.000 NA
ATOM      7  C   UNL     1       0.859  12.743  20.970  0.00  0.00    +0.000 A 
ATOM      8  N   UNL     1       1.417  13.856  20.273  0.00  0.00    +0.000 N 
ATOM      9  N   UNL     1       1.338  15.090  20.849  0.00  0.00    +0.000 NA
ATOM     10  C   UNL     1       2.010  15.905  20.033  0.00  0.00    +0.000 A 
ATOM     11  C   UNL     1       2.172  17.341  20.369  0.00  0.00    +0.000 C 
ATOM     12  C   UNL     1       2.484  15.227  18.897  0.00  0.00    +0.000 A 
ATOM     13  C   UNL     1       2.076  13.918  19.049  0.00  0.00    +0.000 A 
ATOM     14  C   UNL     1       2.248  12.764  18.132  0.00  0.00    +0.000 C 
ATOM     15  N   UNL     1       1.093  11.547  20.488  0.00  0.00    +0.000 NA
ATOM     16  N   UNL     1       0.504  10.567  21.219  0.00  0.00    +0.000 N 
ENDROOT
BRANCH   1  20
ATOM     17  C   UNL     1       2.940   7.008  18.244  0.00  0.00    +0.000 A 
ATOM     18  C   UNL     1       2.674   6.502  19.515  0.00  0.00    +0.000 A 
ATOM     19  C   UNL     1       1.870   7.215  20.408  0.00  0.00    +0.000 A 
ATOM     20  C   UNL     1       1.322   8.454  20.052  0.00  0.00    +0.000 A 
ATOM     21  C   UNL     1       1.612   8.966  18.780  0.00  0.00    +0.000 A 
ATOM     22  C   UNL     1       2.415   8.249  17.881  0.00  0.00    +0.000 A 
BRANCH  17  24
ATOM     23  C   UNL     1       3.822   4.858  17.815  0.00  0.00    +0.000 C 
ATOM     24  O   UNL     1       3.760   6.237  17.470  0.00  0.00    +0.000 OA
ENDBRANCH  17  24
ENDBRANCH   1  20
TORSDOF 2
ENDMDL
MODEL 7
REMARK VINA RESULT:      -6.7      4.798      7.713
REMARK  Name = 
REMARK  5 active torsions:
REMARK  status: ('A' for Active; 'I' for Inactive)
REMARK    1  A    between atoms: C_1  and  O_2
REMARK    2  A    between atoms: O_2  and  C_3
REMARK    3  A    between atoms: C_6  and  C_7
REMARK    4  A    between atoms: C_16  and  C_17
REMARK    5  A    between atoms: C_19  and  C_20
REMARK                            x       y       z     vdW  Elec       q    Type
REMARK                         _______ _______ _______ _____ _____    ______ ____
ROOT
ATOM      1  C   UNL     1       0.163  10.570  21.018  0.00  0.00    +0.000 A 
ATOM      2  N   UNL     1       0.492  10.900  22.258  0.00  0.00    +0.000 NA
ATOM      3  N   UNL     1      -0.462  11.757  22.753  0.00  0.00    +0.000 NA
ATOM      4  C   UNL     1      -1.375  11.921  21.823  0.00  0.00    +0.000 A 
ATOM      5  N   UNL     1      -2.503  12.660  21.778  0.00  0.00    +0.000 NA
ATOM      6  N   UNL     1      -3.231  12.616  20.755  0.00  0.00    +0.000 NA
ATOM      7  C   UNL     1      -2.917  11.768  19.692  0.00  0.00    +0.000 A 
ATOM      8  N   UNL     1      -3.824  11.706  18.592  0.00  0.00    +0.000 N 
ATOM      9  N   UNL     1      -4.863  12.588  18.555  0.00  0.00    +0.000 NA
ATOM     10  C   UNL     1      -5.477  12.363  17.392  0.00  0.00    +0.000 A 
ATOM     11  C   UNL     1      -6.647  13.181  16.986  0.00  0.00    +0.000 C 
ATOM     12  C   UNL     1      -4.882  11.301  16.687  0.00  0.00    +0.000 A 
ATOM     13  C   UNL     1      -3.837  10.871  17.479  0.00  0.00    +0.000 A 
ATOM     14  C   UNL     1      -2.894   9.746  17.265  0.00  0.00    +0.000 C 
ATOM     15  N   UNL     1      -1.834  11.034  19.627  0.00  0.00    +0.000 NA
ATOM     16  N   UNL     1      -1.053  11.159  20.730  0.00  0.00    +0.000 N 
ENDROOT
BRANCH   1  20
ATOM     17  C   UNL     1       2.404   8.102  18.322  0.00  0.00    +0.000 A 
ATOM     18  C   UNL     1       1.960   9.366  17.939  0.00  0.00    +0.000 A 
ATOM     19  C   UNL     1       1.251  10.169  18.836  0.00  0.00    +0.000 A 
ATOM     20  C   UNL     1       0.965   9.722  20.133  0.00  0.00    +0.000 A 
ATOM     21  C   UNL     1       1.397   8.441  20.502  0.00  0.00    +0.000 A 
ATOM     22  C   UNL     1       2.112   7.635  19.604  0.00  0.00    +0.000 A 
BRANCH  17  24
ATOM     23  C   UNL     1       3.627   6.158  17.763  0.00  0.00    +0.000 C 
ATOM     24  O   UNL     1       3.061   7.397  17.352  0.00  0.00    +0.000 OA
ENDBRANCH  17  24
ENDBRANCH   1  20
TORSDOF 2
ENDMDL
MODEL 8
REMARK VINA RESULT:      -6.7      3.478      4.985
REMARK  Name = 
REMARK  5 active torsions:
REMARK  status: ('A' for Active; 'I' for Inactive)
REMARK    1  A    between atoms: C_1  and  O_2
REMARK    2  A    between atoms: O_2  and  C_3
REMARK    3  A    between atoms: C_6  and  C_7
REMARK    4  A    between atoms: C_16  and  C_17
REMARK    5  A    between atoms: C_19  and  C_20
REMARK                            x       y       z     vdW  Elec       q    Type
REMARK                         _______ _______ _______ _____ _____    ______ ____
ROOT
ATOM      1  C   UNL     1       6.672   5.227  15.885  0.00  0.00    +0.000 A 
ATOM      2  N   UNL     1       7.622   6.141  16.024  0.00  0.00    +0.000 NA
ATOM      3  N   UNL     1       7.565   6.644  17.302  0.00  0.00    +0.000 NA
ATOM      4  C   UNL     1       6.602   6.015  17.937  0.00  0.00    +0.000 A 
ATOM      5  N   UNL     1       6.117   6.129  19.191  0.00  0.00    +0.000 NA
ATOM      6  N   UNL     1       5.188   5.371  19.566  0.00  0.00    +0.000 NA
ATOM      7  C   UNL     1       4.694   4.376  18.720  0.00  0.00    +0.000 A 
ATOM      8  N   UNL     1       3.691   3.497  19.230  0.00  0.00    +0.000 N 
ATOM      9  N   UNL     1       3.152   3.767  20.453  0.00  0.00    +0.000 NA
ATOM     10  C   UNL     1       2.196   2.851  20.628  0.00  0.00    +0.000 A 
ATOM     11  C   UNL     1       1.356   2.863  21.850  0.00  0.00    +0.000 C 
ATOM     12  C   UNL     1       2.140   1.948  19.551  0.00  0.00    +0.000 A 
ATOM     13  C   UNL     1       3.121   2.357  18.673  0.00  0.00    +0.000 A 
ATOM     14  C   UNL     1       3.552   1.748  17.390  0.00  0.00    +0.000 C 
ATOM     15  N   UNL     1       5.077   4.204  17.479  0.00  0.00    +0.000 NA
ATOM     16  N   UNL     1       6.041   5.082  17.105  0.00  0.00    +0.000 N 
ENDROOT
BRANCH   1  20
ATOM     17  C   UNL     1       5.846   3.242  12.176  0.00  0.00    +0.000 A 
ATOM     18  C   UNL     1       7.107   3.771  12.443  0.00  0.00    +0.000 A 
ATOM     19  C   UNL     1       7.369   4.394  13.666  0.00  0.00    +0.000 A 
ATOM     20  C   UNL     1       6.372   4.509  14.644  0.00  0.00    +0.000 A 
ATOM     21  C   UNL     1       5.101   3.993  14.358  0.00  0.00    +0.000 A 
ATOM     22  C   UNL     1       4.838   3.363  13.132  0.00  0.00    +0.000 A 
BRANCH  17  24
ATOM     23  C   UNL     1       6.048   1.307  10.833  0.00  0.00    +0.000 C 
ATOM     24  O   UNL     1       5.700   2.683  10.937  0.00  0.00    +0.000 OA
ENDBRANCH  17  24
ENDBRANCH   1  20
TORSDOF 2
ENDMDL
MODEL 9
REMARK VINA RESULT:      -6.7      1.352      1.750
REMARK  Name = 
REMARK  5 active torsions:
REMARK  status: ('A' for Active; 'I' for Inactive)
REMARK    1  A    between atoms: C_1  and  O_2
REMARK    2  A    between atoms: O_2  and  C_3
REMARK    3  A    between atoms: C_6  and  C_7
REMARK    4  A    between atoms: C_16  and  C_17
REMARK    5  A    between atoms: C_19  and  C_20
REMARK                            x       y       z     vdW  Elec       q    Type
REMARK                         _______ _______ _______ _____ _____    ______ ____
ROOT
ATOM      1  C   UNL     1       3.294   4.911  18.720  0.00  0.00    +0.000 A 
ATOM      2  N   UNL     1       3.119   3.753  19.340  0.00  0.00    +0.000 NA
ATOM      3  N   UNL     1       2.351   3.967  20.461  0.00  0.00    +0.000 NA
ATOM      4  C   UNL     1       2.045   5.244  20.498  0.00  0.00    +0.000 A 
ATOM      5  N   UNL     1       1.336   5.982  21.378  0.00  0.00    +0.000 NA
ATOM      6  N   UNL     1       1.164   7.207  21.161  0.00  0.00    +0.000 NA
ATOM      7  C   UNL     1       1.647   7.799  19.993  0.00  0.00    +0.000 A 
ATOM      8  N   UNL     1       1.353   9.177  19.767  0.00  0.00    +0.000 N 
ATOM      9  N   UNL     1       0.758   9.888  20.767  0.00  0.00    +0.000 NA
ATOM     10  C   UNL     1       0.690  11.143  20.318  0.00  0.00    +0.000 A 
ATOM     11  C   UNL     1       0.130  12.219  21.171  0.00  0.00    +0.000 C 
ATOM     12  C   UNL     1       1.187  11.253  19.007  0.00  0.00    +0.000 A 
ATOM     13  C   UNL     1       1.586   9.980  18.654  0.00  0.00    +0.000 A 
ATOM     14  C   UNL     1       2.139   9.488  17.368  0.00  0.00    +0.000 C 
ATOM     15  N   UNL     1       2.369   7.177  19.093  0.00  0.00    +0.000 NA
ATOM     16  N   UNL     1       2.574   5.872  19.401  0.00  0.00    +0.000 N 
ENDROOT
BRANCH   1  20
ATOM     17  C   UNL     1       5.782   5.383  15.260  0.00  0.00    +0.000 A 
ATOM     18  C   UNL     1       5.398   4.119  15.703  0.00  0.00    +0.000 A 
ATOM     19  C   UNL     1       4.567   3.981  16.817  0.00  0.00    +0.000 A 
ATOM     20  C   UNL     1       4.110   5.105  17.518  0.00  0.00    +0.000 A 
ATOM     21  C   UNL     1       4.519   6.371  17.079  0.00  0.00    +0.000 A 
ATOM     22  C   UNL     1       5.350   6.511  15.957  0.00  0.00    +0.000 A 
BRANCH  17  24
ATOM     23  C   UNL     1       6.584   4.231  13.358  0.00  0.00    +0.000 C 
ATOM     24  O   UNL     1       6.619   5.393  14.179  0.00  0.00    +0.000 OA
ENDBRANCH  17  24
ENDBRANCH   1  20
TORSDOF 2
ENDMDL
