MODEL 1
REMARK VINA RESULT:      -7.6      0.000      0.000
REMARK  Name = 
REMARK  6 active torsions:
REMARK  status: ('A' for Active; 'I' for Inactive)
REMARK    1  A    between atoms: C_2  and  C_3
REMARK    2  A    between atoms: C_3  and  N_4
REMARK    3  A    between atoms: N_4  and  C_5
REMARK    4  A    between atoms: C_7  and  C_8
REMARK    5  A    between atoms: C_11  and  C_12
REMARK    6  A    between atoms: C_21  and  C_22
REMARK                            x       y       z     vdW  Elec       q    Type
REMARK                         _______ _______ _______ _____ _____    ______ ____
ROOT
ATOM      1  C   UNL     1       5.541   5.622  16.027  0.00  0.00    +0.000 A 
ATOM      2  O   UNL     1       4.382   6.333  16.298  0.00  0.00    +0.000 OA
ATOM      3  C   UNL     1       4.295   6.360  17.687  0.00  0.00    +0.000 A 
ATOM      4  N   UNL     1       5.316   5.790  18.292  0.00  0.00    +0.000 NA
ATOM      5  C   UNL     1       6.091   5.323  17.262  0.00  0.00    +0.000 A 
ENDROOT
BRANCH   3   6
ATOM      6  C   UNL     1       3.196   7.076  18.362  0.00  0.00    +0.000 A 
ATOM      7  C   UNL     1       2.730   6.684  19.632  0.00  0.00    +0.000 A 
ATOM      8  C   UNL     1       1.820   7.487  20.361  0.00  0.00    +0.000 A 
ATOM      9  C   UNL     1       1.345   8.713  19.863  0.00  0.00    +0.000 A 
ATOM     10  C   UNL     1       1.812   9.084  18.591  0.00  0.00    +0.000 A 
ATOM     11  C   UNL     1       2.711   8.283  17.856  0.00  0.00    +0.000 A 
BRANCH   9  12
ATOM     12  C   UNL     1       0.406   9.575  20.637  0.00  0.00    +0.000 A 
ATOM     13  C   UNL     1      -0.282  10.649  20.038  0.00  0.00    +0.000 A 
ATOM     14  C   UNL     1      -1.115  11.499  20.777  0.00  0.00    +0.000 A 
ATOM     15  C   UNL     1      -1.296  11.289  22.139  0.00  0.00    +0.000 A 
ATOM     16  C   UNL     1      -0.660  10.218  22.755  0.00  0.00    +0.000 A 
ATOM     17  C   UNL     1       0.176   9.373  22.013  0.00  0.00    +0.000 A 
ENDBRANCH   9  12
ENDBRANCH   3   6
BRANCH   1  18
ATOM     18  N   UNL     1       5.869   5.327  14.734  0.00  0.00    +0.000 N 
ATOM     19  H   UNL     1       6.291   6.055  14.161  0.00  0.00    +0.000 HD
BRANCH  18  20
ATOM     20  C   UNL     1       6.205   3.951  14.341  0.00  0.00    +0.000 C 
BRANCH  20  22
ATOM     21  C   UNL     1       5.238   3.332  12.094  0.00  0.00    +0.000 C 
ATOM     22  C   UNL     1       6.262   3.771  12.845  0.00  0.00    +0.000 C 
ENDBRANCH  20  22
ENDBRANCH  18  20
ENDBRANCH   1  18
BRANCH   5  23
ATOM     23  C   UNL     1       7.332   4.669  17.550  0.00  0.00    +0.000 C 
ATOM     24  N   UNL     1       8.327   4.144  17.786  0.00  0.00    +0.000 NA
ENDBRANCH   5  23
TORSDOF 6
ENDMDL
MODEL 2
REMARK VINA RESULT:      -7.5      1.950      2.834
REMARK  Name = 
REMARK  6 active torsions:
REMARK  status: ('A' for Active; 'I' for Inactive)
REMARK    1  A    between atoms: C_2  and  C_3
REMARK    2  A    between atoms: C_3  and  N_4
REMARK    3  A    between atoms: N_4  and  C_5
REMARK    4  A    between atoms: C_7  and  C_8
REMARK    5  A    between atoms: C_11  and  C_12
REMARK    6  A    between atoms: C_21  and  C_22
REMARK                            x       y       z     vdW  Elec       q    Type
REMARK                         _______ _______ _______ _____ _____    ______ ____
ROOT
ATOM      1  C   UNL     1       5.151   4.520  18.412  0.00  0.00    +0.000 A 
ATOM      2  O   UNL     1       4.826   5.858  18.573  0.00  0.00    +0.000 OA
ATOM      3  C   UNL     1       3.439   5.880  18.677  0.00  0.00    +0.000 A 
ATOM      4  N   UNL     1       2.888   4.684  18.657  0.00  0.00    +0.000 NA
ATOM      5  C   UNL     1       3.950   3.834  18.486  0.00  0.00    +0.000 A 
ENDROOT
BRANCH   3   6
ATOM      6  C   UNL     1       2.717   7.147  18.902  0.00  0.00    +0.000 A 
ATOM      7  C   UNL     1       2.466   8.050  17.850  0.00  0.00    +0.000 A 
ATOM      8  C   UNL     1       1.604   9.160  18.025  0.00  0.00    +0.000 A 
ATOM      9  C   UNL     1       0.953   9.412  19.245  0.00  0.00    +0.000 A 
ATOM     10  C   UNL     1       1.222   8.507  20.286  0.00  0.00    +0.000 A 
ATOM     11  C   UNL     1       2.087   7.405  20.120  0.00  0.00    +0.000 A 
BRANCH   9  12
ATOM     12  C   UNL     1       0.025  10.565  19.428  0.00  0.00    +0.000 A 
ATOM     13  C   UNL     1      -1.249  10.595  18.828  0.00  0.00    +0.000 A 
ATOM     14  C   UNL     1      -2.097  11.705  18.946  0.00  0.00    +0.000 A 
ATOM     15  C   UNL     1      -1.697  12.814  19.683  0.00  0.00    +0.000 A 
ATOM     16  C   UNL     1      -0.460  12.804  20.316  0.00  0.00    +0.000 A 
ATOM     17  C   UNL     1       0.386  11.694  20.192  0.00  0.00    +0.000 A 
ENDBRANCH   9  12
ENDBRANCH   3   6
BRANCH   1  18
ATOM     18  N   UNL     1       6.449   4.160  18.180  0.00  0.00    +0.000 N 
ATOM     19  H   UNL     1       6.797   3.300  18.597  0.00  0.00    +0.000 HD
BRANCH  18  20
ATOM     20  C   UNL     1       7.134   4.578  16.948  0.00  0.00    +0.000 C 
BRANCH  20  22
ATOM     21  C   UNL     1       5.812   4.903  14.824  0.00  0.00    +0.000 C 
ATOM     22  C   UNL     1       6.434   4.099  15.703  0.00  0.00    +0.000 C 
ENDBRANCH  20  22
ENDBRANCH  18  20
ENDBRANCH   1  18
BRANCH   5  23
ATOM     23  C   UNL     1       3.729   2.420  18.458  0.00  0.00    +0.000 C 
ATOM     24  N   UNL     1       3.555   1.284  18.437  0.00  0.00    +0.000 NA
ENDBRANCH   5  23
TORSDOF 6
ENDMDL
MODEL 3
REMARK VINA RESULT:      -7.5      0.285      1.034
REMARK  Name = 
REMARK  6 active torsions:
REMARK  status: ('A' for Active; 'I' for Inactive)
REMARK    1  A    between atoms: C_2  and  C_3
REMARK    2  A    between atoms: C_3  and  N_4
REMARK    3  A    between atoms: N_4  and  C_5
REMARK    4  A    between atoms: C_7  and  C_8
REMARK    5  A    between atoms: C_11  and  C_12
REMARK    6  A    between atoms: C_21  and  C_22
REMARK                            x       y       z     vdW  Elec       q    Type
REMARK                         _______ _______ _______ _____ _____    ______ ____
ROOT
ATOM      1  C   UNL     1       5.630   5.676  15.994  0.00  0.00    +0.000 A 
ATOM      2  O   UNL     1       4.480   6.417  16.218  0.00  0.00    +0.000 OA
ATOM      3  C   UNL     1       4.346   6.459  17.602  0.00  0.00    +0.000 A 
ATOM      4  N   UNL     1       5.331   5.871  18.248  0.00  0.00    +0.000 NA
ATOM      5  C   UNL     1       6.130   5.376  17.250  0.00  0.00    +0.000 A 
ENDROOT
BRANCH   3   6
ATOM      6  C   UNL     1       3.241   7.207  18.233  0.00  0.00    +0.000 A 
ATOM      7  C   UNL     1       2.770   6.882  19.520  0.00  0.00    +0.000 A 
ATOM      8  C   UNL     1       1.854   7.721  20.201  0.00  0.00    +0.000 A 
ATOM      9  C   UNL     1       1.379   8.917  19.635  0.00  0.00    +0.000 A 
ATOM     10  C   UNL     1       1.852   9.221  18.347  0.00  0.00    +0.000 A 
ATOM     11  C   UNL     1       2.756   8.384  17.661  0.00  0.00    +0.000 A 
BRANCH   9  12
ATOM     12  C   UNL     1       0.434   9.817  20.357  0.00  0.00    +0.000 A 
ATOM     13  C   UNL     1       0.283   9.766  21.757  0.00  0.00    +0.000 A 
ATOM     14  C   UNL     1      -0.649  10.567  22.431  0.00  0.00    +0.000 A 
ATOM     15  C   UNL     1      -1.451  11.453  21.721  0.00  0.00    +0.000 A 
ATOM     16  C   UNL     1      -1.304  11.553  20.342  0.00  0.00    +0.000 A 
ATOM     17  C   UNL     1      -0.373  10.749  19.673  0.00  0.00    +0.000 A 
ENDBRANCH   9  12
ENDBRANCH   3   6
BRANCH   1  18
ATOM     18  N   UNL     1       5.996   5.362  14.715  0.00  0.00    +0.000 N 
ATOM     19  H   UNL     1       6.568   6.024  14.196  0.00  0.00    +0.000 HD
BRANCH  18  20
ATOM     20  C   UNL     1       6.133   3.959  14.298  0.00  0.00    +0.000 C 
BRANCH  20  22
ATOM     21  C   UNL     1       5.550   3.109  11.995  0.00  0.00    +0.000 C 
ATOM     22  C   UNL     1       6.350   3.813  12.813  0.00  0.00    +0.000 C 
ENDBRANCH  20  22
ENDBRANCH  18  20
ENDBRANCH   1  18
BRANCH   5  23
ATOM     23  C   UNL     1       7.344   4.695  17.586  0.00  0.00    +0.000 C 
ATOM     24  N   UNL     1       8.319   4.151  17.860  0.00  0.00    +0.000 NA
ENDBRANCH   5  23
TORSDOF 6
ENDMDL
MODEL 4
REMARK VINA RESULT:      -7.4      2.250      3.309
REMARK  Name = 
REMARK  6 active torsions:
REMARK  status: ('A' for Active; 'I' for Inactive)
REMARK    1  A    between atoms: C_2  and  C_3
REMARK    2  A    between atoms: C_3  and  N_4
REMARK    3  A    between atoms: N_4  and  C_5
REMARK    4  A    between atoms: C_7  and  C_8
REMARK    5  A    between atoms: C_11  and  C_12
REMARK    6  A    between atoms: C_21  and  C_22
REMARK                            x       y       z     vdW  Elec       q    Type
REMARK                         _______ _______ _______ _____ _____    ______ ____
ROOT
ATOM      1  C   UNL     1       4.892   4.233  18.801  0.00  0.00    +0.000 A 
ATOM      2  O   UNL     1       3.791   4.974  19.201  0.00  0.00    +0.000 OA
ATOM      3  C   UNL     1       3.909   6.184  18.524  0.00  0.00    +0.000 A 
ATOM      4  N   UNL     1       4.938   6.233  17.704  0.00  0.00    +0.000 NA
ATOM      5  C   UNL     1       5.557   5.022  17.878  0.00  0.00    +0.000 A 
ENDROOT
BRANCH   3   6
ATOM      6  C   UNL     1       2.881   7.233  18.666  0.00  0.00    +0.000 A 
ATOM      7  C   UNL     1       2.196   7.436  19.880  0.00  0.00    +0.000 A 
ATOM      8  C   UNL     1       1.362   8.564  20.074  0.00  0.00    +0.000 A 
ATOM      9  C   UNL     1       1.184   9.538  19.076  0.00  0.00    +0.000 A 
ATOM     10  C   UNL     1       1.867   9.315  17.869  0.00  0.00    +0.000 A 
ATOM     11  C   UNL     1       2.691   8.188  17.666  0.00  0.00    +0.000 A 
BRANCH   9  12
ATOM     12  C   UNL     1       0.327  10.741  19.284  0.00  0.00    +0.000 A 
ATOM     13  C   UNL     1      -0.803  10.711  20.125  0.00  0.00    +0.000 A 
ATOM     14  C   UNL     1      -1.645  11.822  20.272  0.00  0.00    +0.000 A 
ATOM     15  C   UNL     1      -1.371  13.002  19.590  0.00  0.00    +0.000 A 
ATOM     16  C   UNL     1      -0.245  13.076  18.778  0.00  0.00    +0.000 A 
ATOM     17  C   UNL     1       0.592  11.962  18.631  0.00  0.00    +0.000 A 
ENDBRANCH   9  12
ENDBRANCH   3   6
BRANCH   1  18
ATOM     18  N   UNL     1       5.129   3.012  19.366  0.00  0.00    +0.000 N 
ATOM     19  H   UNL     1       5.960   2.895  19.942  0.00  0.00    +0.000 HD
BRANCH  18  20
ATOM     20  C   UNL     1       4.017   2.105  19.686  0.00  0.00    +0.000 C 
BRANCH  20  22
ATOM     21  C   UNL     1       1.766   1.950  18.555  0.00  0.00    +0.000 C 
ATOM     22  C   UNL     1       3.106   1.864  18.509  0.00  0.00    +0.000 C 
ENDBRANCH  20  22
ENDBRANCH  18  20
ENDBRANCH   1  18
BRANCH   5  23
ATOM     23  C   UNL     1       6.715   4.701  17.100  0.00  0.00    +0.000 C 
ATOM     24  N   UNL     1       7.646   4.447  16.475  0.00  0.00    +0.000 NA
ENDBRANCH   5  23
TORSDOF 6
ENDMDL
MODEL 5
REMARK VINA RESULT:      -7.4      2.317      3.297
REMARK  Name = 
REMARK  6 active torsions:
REMARK  status: ('A' for Active; 'I' for Inactive)
REMARK    1  A    between atoms: C_2  and  C_3
REMARK    2  A    between atoms: C_3  and  N_4
REMARK    3  A    between atoms: N_4  and  C_5
REMARK    4  A    between atoms: C_7  and  C_8
REMARK    5  A    between atoms: C_11  and  C_12
REMARK    6  A    between atoms: C_21  and  C_22
REMARK                            x       y       z     vdW  Elec       q    Type
REMARK                         _______ _______ _______ _____ _____    ______ ____
ROOT
ATOM      1  C   UNL     1       5.060   4.590  18.134  0.00  0.00    +0.000 A 
ATOM      2  O   UNL     1       4.511   5.851  17.952  0.00  0.00    +0.000 OA
ATOM      3  C   UNL     1       3.509   5.946  18.913  0.00  0.00    +0.000 A 
ATOM      4  N   UNL     1       3.431   4.896  19.703  0.00  0.00    +0.000 NA
ATOM      5  C   UNL     1       4.391   4.046  19.217  0.00  0.00    +0.000 A 
ENDROOT
BRANCH   3   6
ATOM      6  C   UNL     1       2.716   7.182  19.059  0.00  0.00    +0.000 A 
ATOM      7  C   UNL     1       2.438   8.015  17.957  0.00  0.00    +0.000 A 
ATOM      8  C   UNL     1       1.515   9.084  18.058  0.00  0.00    +0.000 A 
ATOM      9  C   UNL     1       0.827   9.362  19.251  0.00  0.00    +0.000 A 
ATOM     10  C   UNL     1       1.123   8.528  20.343  0.00  0.00    +0.000 A 
ATOM     11  C   UNL     1       2.048   7.467  20.250  0.00  0.00    +0.000 A 
BRANCH   9  12
ATOM     12  C   UNL     1      -0.165  10.471  19.357  0.00  0.00    +0.000 A 
ATOM     13  C   UNL     1      -1.330  10.502  18.566  0.00  0.00    +0.000 A 
ATOM     14  C   UNL     1      -2.231  11.575  18.617  0.00  0.00    +0.000 A 
ATOM     15  C   UNL     1      -1.998  12.643  19.476  0.00  0.00    +0.000 A 
ATOM     16  C   UNL     1      -0.875  12.627  20.295  0.00  0.00    +0.000 A 
ATOM     17  C   UNL     1       0.025  11.555  20.237  0.00  0.00    +0.000 A 
ENDBRANCH   9  12
ENDBRANCH   3   6
BRANCH   1  18
ATOM     18  N   UNL     1       6.020   4.139  17.273  0.00  0.00    +0.000 N 
ATOM     19  H   UNL     1       5.737   3.842  16.341  0.00  0.00    +0.000 HD
BRANCH  18  20
ATOM     20  C   UNL     1       7.408   4.612  17.382  0.00  0.00    +0.000 C 
BRANCH  20  22
ATOM     21  C   UNL     1       7.990   6.809  18.478  0.00  0.00    +0.000 C 
ATOM     22  C   UNL     1       7.621   5.520  18.566  0.00  0.00    +0.000 C 
ENDBRANCH  20  22
ENDBRANCH  18  20
ENDBRANCH   1  18
BRANCH   5  23
ATOM     23  C   UNL     1       4.624   2.793  19.870  0.00  0.00    +0.000 C 
ATOM     24  N   UNL     1       4.809   1.785  20.390  0.00  0.00    +0.000 NA
ENDBRANCH   5  23
TORSDOF 6
ENDMDL
MODEL 6
REMARK VINA RESULT:      -7.4      2.215      3.312
REMARK  Name = 
REMARK  6 active torsions:
REMARK  status: ('A' for Active; 'I' for Inactive)
REMARK    1  A    between atoms: C_2  and  C_3
REMARK    2  A    between atoms: C_3  and  N_4
REMARK    3  A    between atoms: N_4  and  C_5
REMARK    4  A    between atoms: C_7  and  C_8
REMARK    5  A    between atoms: C_11  and  C_12
REMARK    6  A    between atoms: C_21  and  C_22
REMARK                            x       y       z     vdW  Elec       q    Type
REMARK                         _______ _______ _______ _____ _____    ______ ____
ROOT
ATOM      1  C   UNL     1       4.604   4.153  18.316  0.00  0.00    +0.000 A 
ATOM      2  O   UNL     1       3.542   4.936  18.742  0.00  0.00    +0.000 OA
ATOM      3  C   UNL     1       3.888   6.235  18.381  0.00  0.00    +0.000 A 
ATOM      4  N   UNL     1       5.027   6.316  17.724  0.00  0.00    +0.000 NA
ATOM      5  C   UNL     1       5.479   5.023  17.687  0.00  0.00    +0.000 A 
ENDROOT
BRANCH   3   6
ATOM      6  C   UNL     1       2.970   7.361  18.638  0.00  0.00    +0.000 A 
ATOM      7  C   UNL     1       2.609   8.265  17.619  0.00  0.00    +0.000 A 
ATOM      8  C   UNL     1       1.579   9.217  17.814  0.00  0.00    +0.000 A 
ATOM      9  C   UNL     1       0.863   9.303  19.021  0.00  0.00    +0.000 A 
ATOM     10  C   UNL     1       1.243   8.401  20.029  0.00  0.00    +0.000 A 
ATOM     11  C   UNL     1       2.275   7.456  19.844  0.00  0.00    +0.000 A 
BRANCH   9  12
ATOM     12  C   UNL     1      -0.239  10.288  19.223  0.00  0.00    +0.000 A 
ATOM     13  C   UNL     1      -1.179  10.567  18.212  0.00  0.00    +0.000 A 
ATOM     14  C   UNL     1      -2.177  11.537  18.377  0.00  0.00    +0.000 A 
ATOM     15  C   UNL     1      -2.271  12.248  19.568  0.00  0.00    +0.000 A 
ATOM     16  C   UNL     1      -1.380  11.972  20.599  0.00  0.00    +0.000 A 
ATOM     17  C   UNL     1      -0.382  11.004  20.428  0.00  0.00    +0.000 A 
ENDBRANCH   9  12
ENDBRANCH   3   6
BRANCH   1  18
ATOM     18  N   UNL     1       4.623   2.818  18.608  0.00  0.00    +0.000 N 
ATOM     19  H   UNL     1       5.521   2.367  18.765  0.00  0.00    +0.000 HD
BRANCH  18  20
ATOM     20  C   UNL     1       3.480   2.183  19.281  0.00  0.00    +0.000 C 
BRANCH  20  22
ATOM     21  C   UNL     1       1.038   2.361  18.670  0.00  0.00    +0.000 C 
ATOM     22  C   UNL     1       2.296   1.999  18.366  0.00  0.00    +0.000 C 
ENDBRANCH  20  22
ENDBRANCH  18  20
ENDBRANCH   1  18
BRANCH   5  23
ATOM     23  C   UNL     1       6.698   4.718  17.000  0.00  0.00    +0.000 C 
ATOM     24  N   UNL     1       7.679   4.472  16.453  0.00  0.00    +0.000 NA
ENDBRANCH   5  23
TORSDOF 6
ENDMDL
MODEL 7
REMARK VINA RESULT:      -7.4      2.266      3.250
REMARK  Name = 
REMARK  6 active torsions:
REMARK  status: ('A' for Active; 'I' for Inactive)
REMARK    1  A    between atoms: C_2  and  C_3
REMARK    2  A    between atoms: C_3  and  N_4
REMARK    3  A    between atoms: N_4  and  C_5
REMARK    4  A    between atoms: C_7  and  C_8
REMARK    5  A    between atoms: C_11  and  C_12
REMARK    6  A    between atoms: C_21  and  C_22
REMARK                            x       y       z     vdW  Elec       q    Type
REMARK                         _______ _______ _______ _____ _____    ______ ____
ROOT
ATOM      1  C   UNL     1       4.930   4.457  18.089  0.00  0.00    +0.000 A 
ATOM      2  O   UNL     1       4.307   5.678  17.876  0.00  0.00    +0.000 OA
ATOM      3  C   UNL     1       3.330   5.759  18.863  0.00  0.00    +0.000 A 
ATOM      4  N   UNL     1       3.333   4.738  19.695  0.00  0.00    +0.000 NA
ATOM      5  C   UNL     1       4.324   3.922  19.213  0.00  0.00    +0.000 A 
ENDROOT
BRANCH   3   6
ATOM      6  C   UNL     1       2.475   6.955  18.985  0.00  0.00    +0.000 A 
ATOM      7  C   UNL     1       1.948   7.362  20.226  0.00  0.00    +0.000 A 
ATOM      8  C   UNL     1       1.300   8.612  20.375  0.00  0.00    +0.000 A 
ATOM      9  C   UNL     1       1.159   9.509  19.302  0.00  0.00    +0.000 A 
ATOM     10  C   UNL     1       1.681   9.083  18.069  0.00  0.00    +0.000 A 
ATOM     11  C   UNL     1       2.320   7.835  17.913  0.00  0.00    +0.000 A 
BRANCH   9  12
ATOM     12  C   UNL     1       0.499  10.838  19.458  0.00  0.00    +0.000 A 
ATOM     13  C   UNL     1       0.777  11.680  20.553  0.00  0.00    +0.000 A 
ATOM     14  C   UNL     1       0.112  12.901  20.735  0.00  0.00    +0.000 A 
ATOM     15  C   UNL     1      -0.843  13.320  19.817  0.00  0.00    +0.000 A 
ATOM     16  C   UNL     1      -1.117  12.528  18.707  0.00  0.00    +0.000 A 
ATOM     17  C   UNL     1      -0.453  11.308  18.531  0.00  0.00    +0.000 A 
ENDBRANCH   9  12
ENDBRANCH   3   6
BRANCH   1  18
ATOM     18  N   UNL     1       5.887   4.023  17.216  0.00  0.00    +0.000 N 
ATOM     19  H   UNL     1       5.597   3.487  16.402  0.00  0.00    +0.000 HD
BRANCH  18  20
ATOM     20  C   UNL     1       7.148   4.763  17.058  0.00  0.00    +0.000 C 
BRANCH  20  22
ATOM     21  C   UNL     1       7.923   6.603  18.600  0.00  0.00    +0.000 C 
ATOM     22  C   UNL     1       7.672   5.305  18.363  0.00  0.00    +0.000 C 
ENDBRANCH  20  22
ENDBRANCH  18  20
ENDBRANCH   1  18
BRANCH   5  23
ATOM     23  C   UNL     1       4.643   2.711  19.906  0.00  0.00    +0.000 C 
ATOM     24  N   UNL     1       4.904   1.740  20.464  0.00  0.00    +0.000 NA
ENDBRANCH   5  23
TORSDOF 6
ENDMDL
MODEL 8
REMARK VINA RESULT:      -7.3      1.926      2.935
REMARK  Name = 
REMARK  6 active torsions:
REMARK  status: ('A' for Active; 'I' for Inactive)
REMARK    1  A    between atoms: C_2  and  C_3
REMARK    2  A    between atoms: C_3  and  N_4
REMARK    3  A    between atoms: N_4  and  C_5
REMARK    4  A    between atoms: C_7  and  C_8
REMARK    5  A    between atoms: C_11  and  C_12
REMARK    6  A    between atoms: C_21  and  C_22
REMARK                            x       y       z     vdW  Elec       q    Type
REMARK                         _______ _______ _______ _____ _____    ______ ____
ROOT
ATOM      1  C   UNL     1       4.338   4.537  17.367  0.00  0.00    +0.000 A 
ATOM      2  O   UNL     1       3.242   5.045  18.049  0.00  0.00    +0.000 OA
ATOM      3  C   UNL     1       3.470   6.415  18.123  0.00  0.00    +0.000 A 
ATOM      4  N   UNL     1       4.564   6.804  17.502  0.00  0.00    +0.000 NA
ATOM      5  C   UNL     1       5.111   5.637  17.035  0.00  0.00    +0.000 A 
ENDROOT
BRANCH   3   6
ATOM      6  C   UNL     1       2.483   7.313  18.752  0.00  0.00    +0.000 A 
ATOM      7  C   UNL     1       2.099   7.159  20.099  0.00  0.00    +0.000 A 
ATOM      8  C   UNL     1       1.311   8.136  20.755  0.00  0.00    +0.000 A 
ATOM      9  C   UNL     1       0.881   9.305  20.103  0.00  0.00    +0.000 A 
ATOM     10  C   UNL     1       1.264   9.438  18.758  0.00  0.00    +0.000 A 
ATOM     11  C   UNL     1       2.041   8.463  18.097  0.00  0.00    +0.000 A 
BRANCH   9  12
ATOM     12  C   UNL     1       0.072  10.349  20.796  0.00  0.00    +0.000 A 
ATOM     13  C   UNL     1      -0.392  11.497  20.123  0.00  0.00    +0.000 A 
ATOM     14  C   UNL     1      -1.098  12.509  20.787  0.00  0.00    +0.000 A 
ATOM     15  C   UNL     1      -1.373  12.394  22.144  0.00  0.00    +0.000 A 
ATOM     16  C   UNL     1      -0.960  11.259  22.831  0.00  0.00    +0.000 A 
ATOM     17  C   UNL     1      -0.251  10.251  22.164  0.00  0.00    +0.000 A 
ENDBRANCH   9  12
ENDBRANCH   3   6
BRANCH   1  18
ATOM     18  N   UNL     1       4.473   3.187  17.209  0.00  0.00    +0.000 N 
ATOM     19  H   UNL     1       5.352   2.824  16.848  0.00  0.00    +0.000 HD
BRANCH  18  20
ATOM     20  C   UNL     1       3.715   2.254  18.056  0.00  0.00    +0.000 C 
BRANCH  20  22
ATOM     21  C   UNL     1       3.330   2.598  20.526  0.00  0.00    +0.000 C 
ATOM     22  C   UNL     1       4.145   2.299  19.500  0.00  0.00    +0.000 C 
ENDBRANCH  20  22
ENDBRANCH  18  20
ENDBRANCH   1  18
BRANCH   5  23
ATOM     23  C   UNL     1       6.314   5.679  16.260  0.00  0.00    +0.000 C 
ATOM     24  N   UNL     1       7.282   5.712  15.640  0.00  0.00    +0.000 NA
ENDBRANCH   5  23
TORSDOF 6
ENDMDL
MODEL 9
REMARK VINA RESULT:      -7.3      2.143      3.324
REMARK  Name = 
REMARK  6 active torsions:
REMARK  status: ('A' for Active; 'I' for Inactive)
REMARK    1  A    between atoms: C_2  and  C_3
REMARK    2  A    between atoms: C_3  and  N_4
REMARK    3  A    between atoms: N_4  and  C_5
REMARK    4  A    between atoms: C_7  and  C_8
REMARK    5  A    between atoms: C_11  and  C_12
REMARK    6  A    between atoms: C_21  and  C_22
REMARK                            x       y       z     vdW  Elec       q    Type
REMARK                         _______ _______ _______ _____ _____    ______ ____
ROOT
ATOM      1  C   UNL     1       4.261   4.320  17.646  0.00  0.00    +0.000 A 
ATOM      2  O   UNL     1       3.254   5.092  18.205  0.00  0.00    +0.000 OA
ATOM      3  C   UNL     1       3.685   6.406  18.055  0.00  0.00    +0.000 A 
ATOM      4  N   UNL     1       4.826   6.518  17.407  0.00  0.00    +0.000 NA
ATOM      5  C   UNL     1       5.191   5.221  17.155  0.00  0.00    +0.000 A 
ENDROOT
BRANCH   3   6
ATOM      6  C   UNL     1       2.845   7.534  18.501  0.00  0.00    +0.000 A 
ATOM      7  C   UNL     1       2.490   8.581  17.627  0.00  0.00    +0.000 A 
ATOM      8  C   UNL     1       1.526   9.550  17.995  0.00  0.00    +0.000 A 
ATOM      9  C   UNL     1       0.870   9.513  19.237  0.00  0.00    +0.000 A 
ATOM     10  C   UNL     1       1.242   8.468  20.100  0.00  0.00    +0.000 A 
ATOM     11  C   UNL     1       2.209   7.505  19.743  0.00  0.00    +0.000 A 
BRANCH   9  12
ATOM     12  C   UNL     1      -0.165  10.516  19.620  0.00  0.00    +0.000 A 
ATOM     13  C   UNL     1      -0.136  11.174  20.866  0.00  0.00    +0.000 A 
ATOM     14  C   UNL     1      -1.142  12.070  21.253  0.00  0.00    +0.000 A 
ATOM     15  C   UNL     1      -2.202  12.344  20.396  0.00  0.00    +0.000 A 
ATOM     16  C   UNL     1      -2.242  11.738  19.145  0.00  0.00    +0.000 A 
ATOM     17  C   UNL     1      -1.237  10.841  18.764  0.00  0.00    +0.000 A 
ENDBRANCH   9  12
ENDBRANCH   3   6
BRANCH   1  18
ATOM     18  N   UNL     1       4.190   2.957  17.719  0.00  0.00    +0.000 N 
ATOM     19  H   UNL     1       4.961   2.409  17.343  0.00  0.00    +0.000 HD
BRANCH  18  20
ATOM     20  C   UNL     1       3.423   2.303  18.789  0.00  0.00    +0.000 C 
BRANCH  20  22
ATOM     21  C   UNL     1       0.911   2.537  18.786  0.00  0.00    +0.000 C 
ATOM     22  C   UNL     1       2.029   1.927  18.358  0.00  0.00    +0.000 C 
ENDBRANCH  20  22
ENDBRANCH  18  20
ENDBRANCH   1  18
BRANCH   5  23
ATOM     23  C   UNL     1       6.386   4.952  16.415  0.00  0.00    +0.000 C 
ATOM     24  N   UNL     1       7.348   4.734  15.823  0.00  0.00    +0.000 NA
ENDBRANCH   5  23
TORSDOF 6
ENDMDL
