MODEL 1
REMARK VINA RESULT:      -7.5      0.000      0.000
REMARK  Name = 
REMARK  4 active torsions:
REMARK  status: ('A' for Active; 'I' for Inactive)
REMARK    1  A    between atoms: N_3  and  C_4
REMARK    2  A    between atoms: N_12  and  C_13
REMARK    3  A    between atoms: N_16  and  C_17
REMARK    4  A    between atoms: C_17  and  C_18
REMARK                            x       y       z     vdW  Elec       q    Type
REMARK                         _______ _______ _______ _____ _____    ______ ____
ROOT
ATOM      1  C   UNL     1       0.094  10.449  20.415  0.00  0.00    +0.000 C 
ATOM      2  C   UNL     1      -0.096   9.208  21.286  0.00  0.00    +0.000 C 
ATOM      3  C   UNL     1       1.087   8.244  21.197  0.00  0.00    +0.000 C 
ATOM      4  N   UNL     1       1.370   7.853  19.809  0.00  0.00    +0.000 NA
ATOM      5  C   UNL     1       1.629   9.036  18.967  0.00  0.00    +0.000 C 
ATOM      6  C   UNL     1       0.473  10.039  18.991  0.00  0.00    +0.000 C 
ENDROOT
BRANCH   1  10
ATOM      7  O   UNL     1       2.430  13.121  21.184  0.00  0.00    +0.000 OA
ATOM      8  C   UNL     1       1.461  12.612  20.632  0.00  0.00    +0.000 C 
ATOM      9  N   UNL     1       0.663  13.223  19.701  0.00  0.00    +0.000 N 
ATOM     10  N   UNL     1       1.082  11.357  21.006  0.00  0.00    +0.000 N 
ATOM     11  H   UNL     1      -0.313  12.991  19.834  0.00  0.00    +0.000 HD
ATOM     12  H   UNL     1       1.745  10.968  21.665  0.00  0.00    +0.000 HD
BRANCH   9  13
ATOM     13  C   UNL     1       0.880  14.575  19.301  0.00  0.00    +0.000 A 
ATOM     14  C   UNL     1       2.003  15.009  18.582  0.00  0.00    +0.000 A 
ATOM     15 CL   UNL     1       3.172  13.943  17.891  0.00  0.00    +0.000 Cl
ATOM     16  C   UNL     1       2.114  16.369  18.296  0.00  0.00    +0.000 A 
ATOM     17  N   UNL     1       1.200  17.305  18.652  0.00  0.00    +0.000 NA
ATOM     18  C   UNL     1       0.108  16.855  19.309  0.00  0.00    +0.000 A 
ATOM     19  C   UNL     1      -0.100  15.522  19.636  0.00  0.00    +0.000 A 
ATOM     20 CL   UNL     1      -1.538  15.078  20.484  0.00  0.00    +0.000 Cl
ENDBRANCH   9  13
ENDBRANCH   1  10
BRANCH   4  21
ATOM     21  C   UNL     1       2.538   6.943  19.733  0.00  0.00    +0.000 C 
BRANCH  21  22
ATOM     22  C   UNL     1       2.197   5.497  19.377  0.00  0.00    +0.000 C 
ATOM     23  C   UNL     1       1.607   4.712  20.306  0.00  0.00    +0.000 C 
ATOM     24  C   UNL     1       1.107   3.290  20.272  0.00  0.00    +0.000 C 
ATOM     25  C   UNL     1       1.086   2.513  18.958  0.00  0.00    +0.000 C 
ATOM     26  C   UNL     1       2.430   1.934  18.517  0.00  0.00    +0.000 C 
ATOM     27  C   UNL     1       3.661   2.820  18.686  0.00  0.00    +0.000 C 
ATOM     28  C   UNL     1       3.693   4.075  17.817  0.00  0.00    +0.000 C 
ATOM     29  C   UNL     1       2.545   5.079  17.967  0.00  0.00    +0.000 C 
ENDBRANCH  21  22
ENDBRANCH   4  21
TORSDOF 4
ENDMDL
MODEL 2
REMARK VINA RESULT:      -7.5      0.629      1.843
REMARK  Name = 
REMARK  4 active torsions:
REMARK  status: ('A' for Active; 'I' for Inactive)
REMARK    1  A    between atoms: N_3  and  C_4
REMARK    2  A    between atoms: N_12  and  C_13
REMARK    3  A    between atoms: N_16  and  C_17
REMARK    4  A    between atoms: C_17  and  C_18
REMARK                            x       y       z     vdW  Elec       q    Type
REMARK                         _______ _______ _______ _____ _____    ______ ____
ROOT
ATOM      1  C   UNL     1       0.243  10.797  19.907  0.00  0.00    +0.000 C 
ATOM      2  C   UNL     1      -0.224   9.571  20.692  0.00  0.00    +0.000 C 
ATOM      3  C   UNL     1       0.874   8.519  20.841  0.00  0.00    +0.000 C 
ATOM      4  N   UNL     1       1.422   8.112  19.539  0.00  0.00    +0.000 NA
ATOM      5  C   UNL     1       1.945   9.274  18.798  0.00  0.00    +0.000 C 
ATOM      6  C   UNL     1       0.891  10.363  18.592  0.00  0.00    +0.000 C 
ENDROOT
BRANCH   1  10
ATOM      7  O   UNL     1       2.524  13.296  21.227  0.00  0.00    +0.000 OA
ATOM      8  C   UNL     1       1.654  12.865  20.478  0.00  0.00    +0.000 C 
ATOM      9  N   UNL     1       1.085  13.554  19.440  0.00  0.00    +0.000 N 
ATOM     10  N   UNL     1       1.144  11.624  20.716  0.00  0.00    +0.000 N 
ATOM     11  H   UNL     1       0.091  13.377  19.373  0.00  0.00    +0.000 HD
ATOM     12  H   UNL     1       1.645  11.173  21.472  0.00  0.00    +0.000 HD
BRANCH   9  13
ATOM     13  C   UNL     1       1.447  14.904  19.149  0.00  0.00    +0.000 A 
ATOM     14  C   UNL     1       0.702  16.020  19.556  0.00  0.00    +0.000 A 
ATOM     15 CL   UNL     1      -0.635  15.938  20.645  0.00  0.00    +0.000 Cl
ATOM     16  C   UNL     1       1.145  17.282  19.163  0.00  0.00    +0.000 A 
ATOM     17  N   UNL     1       2.259  17.510  18.425  0.00  0.00    +0.000 NA
ATOM     18  C   UNL     1       2.980  16.419  18.080  0.00  0.00    +0.000 A 
ATOM     19  C   UNL     1       2.630  15.122  18.426  0.00  0.00    +0.000 A 
ATOM     20 CL   UNL     1       3.636  13.814  17.917  0.00  0.00    +0.000 Cl
ENDBRANCH   9  13
ENDBRANCH   1  10
BRANCH   4  21
ATOM     21  C   UNL     1       2.507   7.114  19.699  0.00  0.00    +0.000 C 
BRANCH  21  22
ATOM     22  C   UNL     1       2.092   5.671  19.422  0.00  0.00    +0.000 C 
ATOM     23  C   UNL     1       1.703   4.887  20.453  0.00  0.00    +0.000 C 
ATOM     24  C   UNL     1       1.200   3.469  20.523  0.00  0.00    +0.000 C 
ATOM     25  C   UNL     1       0.901   2.693  19.241  0.00  0.00    +0.000 C 
ATOM     26  C   UNL     1       2.121   2.108  18.530  0.00  0.00    +0.000 C 
ATOM     27  C   UNL     1       3.365   2.987  18.439  0.00  0.00    +0.000 C 
ATOM     28  C   UNL     1       3.221   4.243  17.583  0.00  0.00    +0.000 C 
ATOM     29  C   UNL     1       2.136   5.253  17.969  0.00  0.00    +0.000 C 
ENDBRANCH  21  22
ENDBRANCH   4  21
TORSDOF 4
ENDMDL
MODEL 3
REMARK VINA RESULT:      -7.5      0.698      1.397
REMARK  Name = 
REMARK  4 active torsions:
REMARK  status: ('A' for Active; 'I' for Inactive)
REMARK    1  A    between atoms: N_3  and  C_4
REMARK    2  A    between atoms: N_12  and  C_13
REMARK    3  A    between atoms: N_16  and  C_17
REMARK    4  A    between atoms: C_17  and  C_18
REMARK                            x       y       z     vdW  Elec       q    Type
REMARK                         _______ _______ _______ _____ _____    ______ ____
ROOT
ATOM      1  C   UNL     1       0.030  10.315  20.460  0.00  0.00    +0.000 C 
ATOM      2  C   UNL     1       0.094   8.963  21.171  0.00  0.00    +0.000 C 
ATOM      3  C   UNL     1       1.354   8.174  20.817  0.00  0.00    +0.000 C 
ATOM      4  N   UNL     1       1.495   7.992  19.365  0.00  0.00    +0.000 NA
ATOM      5  C   UNL     1       1.509   9.291  18.667  0.00  0.00    +0.000 C 
ATOM      6  C   UNL     1       0.264  10.130  18.960  0.00  0.00    +0.000 C 
ENDROOT
BRANCH   1  10
ATOM      7  O   UNL     1       2.213  13.106  21.255  0.00  0.00    +0.000 OA
ATOM      8  C   UNL     1       1.255  12.556  20.722  0.00  0.00    +0.000 C 
ATOM      9  N   UNL     1       0.374  13.152  19.860  0.00  0.00    +0.000 N 
ATOM     10  N   UNL     1       0.981  11.262  21.050  0.00  0.00    +0.000 N 
ATOM     11  H   UNL     1      -0.576  12.846  20.024  0.00  0.00    +0.000 HD
ATOM     12  H   UNL     1       1.700  10.890  21.659  0.00  0.00    +0.000 HD
BRANCH   9  13
ATOM     13  C   UNL     1       0.479  14.533  19.517  0.00  0.00    +0.000 A 
ATOM     14  C   UNL     1       1.530  15.076  18.764  0.00  0.00    +0.000 A 
ATOM     15 CL   UNL     1       2.727  14.126  17.962  0.00  0.00    +0.000 Cl
ATOM     16  C   UNL     1       1.534  16.453  18.542  0.00  0.00    +0.000 A 
ATOM     17  N   UNL     1       0.581  17.306  18.991  0.00  0.00    +0.000 NA
ATOM     18  C   UNL     1      -0.441  16.751  19.680  0.00  0.00    +0.000 A 
ATOM     19  C   UNL     1      -0.543  15.393  19.949  0.00  0.00    +0.000 A 
ATOM     20 CL   UNL     1      -1.899  14.812  20.847  0.00  0.00    +0.000 Cl
ENDBRANCH   9  13
ENDBRANCH   1  10
BRANCH   4  21
ATOM     21  C   UNL     1       2.735   7.252  19.033  0.00  0.00    +0.000 C 
BRANCH  21  22
ATOM     22  C   UNL     1       2.580   5.733  18.991  0.00  0.00    +0.000 C 
ATOM     23  C   UNL     1       2.019   5.158  17.904  0.00  0.00    +0.000 C 
ATOM     24  C   UNL     1       1.765   3.721  17.527  0.00  0.00    +0.000 C 
ATOM     25  C   UNL     1       2.313   2.589  18.392  0.00  0.00    +0.000 C 
ATOM     26  C   UNL     1       1.510   2.283  19.657  0.00  0.00    +0.000 C 
ATOM     27  C   UNL     1       0.992   3.473  20.460  0.00  0.00    +0.000 C 
ATOM     28  C   UNL     1       2.064   4.343  21.112  0.00  0.00    +0.000 C 
ATOM     29  C   UNL     1       3.109   4.996  20.201  0.00  0.00    +0.000 C 
ENDBRANCH  21  22
ENDBRANCH   4  21
TORSDOF 4
ENDMDL
MODEL 4
REMARK VINA RESULT:      -7.5      1.733      2.398
REMARK  Name = 
REMARK  4 active torsions:
REMARK  status: ('A' for Active; 'I' for Inactive)
REMARK    1  A    between atoms: N_3  and  C_4
REMARK    2  A    between atoms: N_12  and  C_13
REMARK    3  A    between atoms: N_16  and  C_17
REMARK    4  A    between atoms: C_17  and  C_18
REMARK                            x       y       z     vdW  Elec       q    Type
REMARK                         _______ _______ _______ _____ _____    ______ ____
ROOT
ATOM      1  C   UNL     1       0.177  10.511  19.989  0.00  0.00    +0.000 C 
ATOM      2  C   UNL     1       0.165   9.202  20.778  0.00  0.00    +0.000 C 
ATOM      3  C   UNL     1       1.417   8.360  20.534  0.00  0.00    +0.000 C 
ATOM      4  N   UNL     1       1.625   8.090  19.104  0.00  0.00    +0.000 NA
ATOM      5  C   UNL     1       1.712   9.346  18.336  0.00  0.00    +0.000 C 
ATOM      6  C   UNL     1       0.479  10.233  18.516  0.00  0.00    +0.000 C 
ENDROOT
BRANCH   1  10
ATOM      7  O   UNL     1       1.969  13.429  21.197  0.00  0.00    +0.000 OA
ATOM      8  C   UNL     1       0.979  12.789  20.858  0.00  0.00    +0.000 C 
ATOM      9  N   UNL     1      -0.301  13.274  20.802  0.00  0.00    +0.000 N 
ATOM     10  N   UNL     1       1.124  11.465  20.573  0.00  0.00    +0.000 N 
ATOM     11  H   UNL     1      -0.974  12.594  21.129  0.00  0.00    +0.000 HD
ATOM     12  H   UNL     1       2.102  11.201  20.601  0.00  0.00    +0.000 HD
BRANCH   9  13
ATOM     13  C   UNL     1      -0.611  14.615  21.181  0.00  0.00    +0.000 A 
ATOM     14  C   UNL     1      -0.474  15.722  20.331  0.00  0.00    +0.000 A 
ATOM     15 CL   UNL     1      -0.121  15.600  18.646  0.00  0.00    +0.000 Cl
ATOM     16  C   UNL     1      -0.769  16.983  20.846  0.00  0.00    +0.000 A 
ATOM     17  N   UNL     1      -1.195  17.216  22.112  0.00  0.00    +0.000 NA
ATOM     18  C   UNL     1      -1.356  16.128  22.897  0.00  0.00    +0.000 A 
ATOM     19  C   UNL     1      -1.098  14.830  22.480  0.00  0.00    +0.000 A 
ATOM     20 CL   UNL     1      -1.340  13.526  23.587  0.00  0.00    +0.000 Cl
ENDBRANCH   9  13
ENDBRANCH   1  10
BRANCH   4  21
ATOM     21  C   UNL     1       2.858   7.299  18.878  0.00  0.00    +0.000 C 
BRANCH  21  22
ATOM     22  C   UNL     1       2.655   5.786  18.888  0.00  0.00    +0.000 C 
ATOM     23  C   UNL     1       2.094   5.189  17.813  0.00  0.00    +0.000 C 
ATOM     24  C   UNL     1       1.800   3.748  17.483  0.00  0.00    +0.000 C 
ATOM     25  C   UNL     1       2.298   2.632  18.397  0.00  0.00    +0.000 C 
ATOM     26  C   UNL     1       1.466   2.397  19.658  0.00  0.00    +0.000 C 
ATOM     27  C   UNL     1       0.973   3.630  20.409  0.00  0.00    +0.000 C 
ATOM     28  C   UNL     1       2.061   4.490  21.048  0.00  0.00    +0.000 C 
ATOM     29  C   UNL     1       3.140   5.076  20.132  0.00  0.00    +0.000 C 
ENDBRANCH  21  22
ENDBRANCH   4  21
TORSDOF 4
ENDMDL
MODEL 5
REMARK VINA RESULT:      -7.4      0.744      2.261
REMARK  Name = 
REMARK  4 active torsions:
REMARK  status: ('A' for Active; 'I' for Inactive)
REMARK    1  A    between atoms: N_3  and  C_4
REMARK    2  A    between atoms: N_12  and  C_13
REMARK    3  A    between atoms: N_16  and  C_17
REMARK    4  A    between atoms: C_17  and  C_18
REMARK                            x       y       z     vdW  Elec       q    Type
REMARK                         _______ _______ _______ _____ _____    ______ ____
ROOT
ATOM      1  C   UNL     1       0.110  10.255  20.411  0.00  0.00    +0.000 C 
ATOM      2  C   UNL     1       0.066   8.927  21.165  0.00  0.00    +0.000 C 
ATOM      3  C   UNL     1       1.330   8.093  20.955  0.00  0.00    +0.000 C 
ATOM      4  N   UNL     1       1.602   7.860  19.529  0.00  0.00    +0.000 NA
ATOM      5  C   UNL     1       1.720   9.135  18.798  0.00  0.00    +0.000 C 
ATOM      6  C   UNL     1       0.478  10.016  18.946  0.00  0.00    +0.000 C 
ENDROOT
BRANCH   1  10
ATOM      7  O   UNL     1       2.187  13.069  21.390  0.00  0.00    +0.000 OA
ATOM      8  C   UNL     1       1.246  12.520  20.828  0.00  0.00    +0.000 C 
ATOM      9  N   UNL     1       0.330  13.141  20.020  0.00  0.00    +0.000 N 
ATOM     10  N   UNL     1       1.029  11.195  21.061  0.00  0.00    +0.000 N 
ATOM     11  H   UNL     1      -0.605  12.784  20.170  0.00  0.00    +0.000 HD
ATOM     12  H   UNL     1       1.770  10.810  21.634  0.00  0.00    +0.000 HD
BRANCH   9  13
ATOM     13  C   UNL     1       0.375  14.547  19.780  0.00  0.00    +0.000 A 
ATOM     14  C   UNL     1      -0.435  15.481  20.443  0.00  0.00    +0.000 A 
ATOM     15 CL   UNL     1      -1.442  15.094  21.791  0.00  0.00    +0.000 Cl
ATOM     16  C   UNL     1      -0.322  16.822  20.078  0.00  0.00    +0.000 A 
ATOM     17  N   UNL     1       0.530  17.292  19.134  0.00  0.00    +0.000 NA
ATOM     18  C   UNL     1       1.327  16.376  18.539  0.00  0.00    +0.000 A 
ATOM     19  C   UNL     1       1.298  15.020  18.835  0.00  0.00    +0.000 A 
ATOM     20 CL   UNL     1       2.366  13.952  17.997  0.00  0.00    +0.000 Cl
ENDBRANCH   9  13
ENDBRANCH   1  10
BRANCH   4  21
ATOM     21  C   UNL     1       2.845   7.077  19.338  0.00  0.00    +0.000 C 
BRANCH  21  22
ATOM     22  C   UNL     1       2.630   5.580  19.127  0.00  0.00    +0.000 C 
ATOM     23  C   UNL     1       2.252   5.134  17.908  0.00  0.00    +0.000 C 
ATOM     24  C   UNL     1       2.005   3.753  17.358  0.00  0.00    +0.000 C 
ATOM     25  C   UNL     1       2.331   2.520  18.198  0.00  0.00    +0.000 C 
ATOM     26  C   UNL     1       1.296   2.160  19.264  0.00  0.00    +0.000 C 
ATOM     27  C   UNL     1       0.695   3.309  20.069  0.00  0.00    +0.000 C 
ATOM     28  C   UNL     1       1.667   4.053  20.981  0.00  0.00    +0.000 C 
ATOM     29  C   UNL     1       2.891   4.712  20.337  0.00  0.00    +0.000 C 
ENDBRANCH  21  22
ENDBRANCH   4  21
TORSDOF 4
ENDMDL
MODEL 6
REMARK VINA RESULT:      -7.4      1.655      2.707
REMARK  Name = 
REMARK  4 active torsions:
REMARK  status: ('A' for Active; 'I' for Inactive)
REMARK    1  A    between atoms: N_3  and  C_4
REMARK    2  A    between atoms: N_12  and  C_13
REMARK    3  A    between atoms: N_16  and  C_17
REMARK    4  A    between atoms: C_17  and  C_18
REMARK                            x       y       z     vdW  Elec       q    Type
REMARK                         _______ _______ _______ _____ _____    ______ ____
ROOT
ATOM      1  C   UNL     1       0.217  10.287  19.907  0.00  0.00    +0.000 C 
ATOM      2  C   UNL     1       0.118   9.023  20.762  0.00  0.00    +0.000 C 
ATOM      3  C   UNL     1       1.390   8.177  20.704  0.00  0.00    +0.000 C 
ATOM      4  N   UNL     1       1.753   7.830  19.322  0.00  0.00    +0.000 NA
ATOM      5  C   UNL     1       1.925   9.041  18.499  0.00  0.00    +0.000 C 
ATOM      6  C   UNL     1       0.679   9.930  18.494  0.00  0.00    +0.000 C 
ENDROOT
BRANCH   1  10
ATOM      7  O   UNL     1       1.831  13.273  21.198  0.00  0.00    +0.000 OA
ATOM      8  C   UNL     1       0.886  12.596  20.808  0.00  0.00    +0.000 C 
ATOM      9  N   UNL     1      -0.406  13.033  20.678  0.00  0.00    +0.000 N 
ATOM     10  N   UNL     1       1.095  11.277  20.538  0.00  0.00    +0.000 N 
ATOM     11  H   UNL     1      -1.071  12.330  20.971  0.00  0.00    +0.000 HD
ATOM     12  H   UNL     1       2.078  11.049  20.622  0.00  0.00    +0.000 HD
BRANCH   9  13
ATOM     13  C   UNL     1      -0.786  14.362  21.033  0.00  0.00    +0.000 A 
ATOM     14  C   UNL     1      -1.236  14.736  22.308  0.00  0.00    +0.000 A 
ATOM     15 CL   UNL     1      -1.190  13.695  23.685  0.00  0.00    +0.000 Cl
ATOM     16  C   UNL     1      -1.620  16.061  22.505  0.00  0.00    +0.000 A 
ATOM     17  N   UNL     1      -1.575  17.024  21.552  0.00  0.00    +0.000 NA
ATOM     18  C   UNL     1      -1.101  16.647  20.344  0.00  0.00    +0.000 A 
ATOM     19  C   UNL     1      -0.686  15.356  20.047  0.00  0.00    +0.000 A 
ATOM     20 CL   UNL     1      -0.104  15.003  18.459  0.00  0.00    +0.000 Cl
ENDBRANCH   9  13
ENDBRANCH   1  10
BRANCH   4  21
ATOM     21  C   UNL     1       3.003   7.035  19.277  0.00  0.00    +0.000 C 
BRANCH  21  22
ATOM     22  C   UNL     1       2.798   5.533  19.094  0.00  0.00    +0.000 C 
ATOM     23  C   UNL     1       2.589   5.044  17.851  0.00  0.00    +0.000 C 
ATOM     24  C   UNL     1       2.401   3.644  17.323  0.00  0.00    +0.000 C 
ATOM     25  C   UNL     1       2.588   2.442  18.245  0.00  0.00    +0.000 C 
ATOM     26  C   UNL     1       1.409   2.134  19.168  0.00  0.00    +0.000 C 
ATOM     27  C   UNL     1       0.718   3.318  19.837  0.00  0.00    +0.000 C 
ATOM     28  C   UNL     1       1.563   4.088  20.849  0.00  0.00    +0.000 C 
ATOM     29  C   UNL     1       2.875   4.710  20.360  0.00  0.00    +0.000 C 
ENDBRANCH  21  22
ENDBRANCH   4  21
TORSDOF 4
ENDMDL
MODEL 7
REMARK VINA RESULT:      -7.3      1.603      1.931
REMARK  Name = 
REMARK  4 active torsions:
REMARK  status: ('A' for Active; 'I' for Inactive)
REMARK    1  A    between atoms: N_3  and  C_4
REMARK    2  A    between atoms: N_12  and  C_13
REMARK    3  A    between atoms: N_16  and  C_17
REMARK    4  A    between atoms: C_17  and  C_18
REMARK                            x       y       z     vdW  Elec       q    Type
REMARK                         _______ _______ _______ _____ _____    ______ ____
ROOT
ATOM      1  C   UNL     1       0.189  10.708  19.700  0.00  0.00    +0.000 C 
ATOM      2  C   UNL     1      -0.063   9.620  20.743  0.00  0.00    +0.000 C 
ATOM      3  C   UNL     1       1.086   8.616  20.831  0.00  0.00    +0.000 C 
ATOM      4  N   UNL     1       1.384   8.010  19.524  0.00  0.00    +0.000 NA
ATOM      5  C   UNL     1       1.702   9.042  18.522  0.00  0.00    +0.000 C 
ATOM      6  C   UNL     1       0.583  10.074  18.365  0.00  0.00    +0.000 C 
ENDROOT
BRANCH   1  10
ATOM      7  O   UNL     1       2.098  13.624  20.720  0.00  0.00    +0.000 OA
ATOM      8  C   UNL     1       1.078  12.979  20.502  0.00  0.00    +0.000 C 
ATOM      9  N   UNL     1      -0.202  13.449  20.626  0.00  0.00    +0.000 N 
ATOM     10  N   UNL     1       1.197  11.662  20.173  0.00  0.00    +0.000 N 
ATOM     11  H   UNL     1      -0.820  12.754  21.025  0.00  0.00    +0.000 HD
ATOM     12  H   UNL     1       2.172  11.409  20.066  0.00  0.00    +0.000 HD
BRANCH   9  13
ATOM     13  C   UNL     1      -0.472  14.778  21.071  0.00  0.00    +0.000 A 
ATOM     14  C   UNL     1      -0.365  15.914  20.257  0.00  0.00    +0.000 A 
ATOM     15 CL   UNL     1      -0.104  15.852  18.551  0.00  0.00    +0.000 Cl
ATOM     16  C   UNL     1      -0.613  17.159  20.833  0.00  0.00    +0.000 A 
ATOM     17  N   UNL     1      -0.968  17.350  22.127  0.00  0.00    +0.000 NA
ATOM     18  C   UNL     1      -1.103  16.235  22.880  0.00  0.00    +0.000 A 
ATOM     19  C   UNL     1      -0.886  14.951  22.401  0.00  0.00    +0.000 A 
ATOM     20 CL   UNL     1      -1.087  13.609  23.470  0.00  0.00    +0.000 Cl
ENDBRANCH   9  13
ENDBRANCH   1  10
BRANCH   4  21
ATOM     21  C   UNL     1       2.519   7.061  19.617  0.00  0.00    +0.000 C 
BRANCH  21  22
ATOM     22  C   UNL     1       2.147   5.597  19.389  0.00  0.00    +0.000 C 
ATOM     23  C   UNL     1       1.697   4.862  20.431  0.00  0.00    +0.000 C 
ATOM     24  C   UNL     1       1.212   3.440  20.542  0.00  0.00    +0.000 C 
ATOM     25  C   UNL     1       1.018   2.592  19.287  0.00  0.00    +0.000 C 
ATOM     26  C   UNL     1       2.295   1.993  18.697  0.00  0.00    +0.000 C 
ATOM     27  C   UNL     1       3.528   2.890  18.647  0.00  0.00    +0.000 C 
ATOM     28  C   UNL     1       3.428   4.096  17.716  0.00  0.00    +0.000 C 
ATOM     29  C   UNL     1       2.302   5.104  17.968  0.00  0.00    +0.000 C 
ENDBRANCH  21  22
ENDBRANCH   4  21
TORSDOF 4
ENDMDL
MODEL 8
REMARK VINA RESULT:      -7.3      1.883      2.612
REMARK  Name = 
REMARK  4 active torsions:
REMARK  status: ('A' for Active; 'I' for Inactive)
REMARK    1  A    between atoms: N_3  and  C_4
REMARK    2  A    between atoms: N_12  and  C_13
REMARK    3  A    between atoms: N_16  and  C_17
REMARK    4  A    between atoms: C_17  and  C_18
REMARK                            x       y       z     vdW  Elec       q    Type
REMARK                         _______ _______ _______ _____ _____    ______ ____
ROOT
ATOM      1  C   UNL     1       0.143  10.112  20.206  0.00  0.00    +0.000 C 
ATOM      2  C   UNL     1       0.474   8.740  20.792  0.00  0.00    +0.000 C 
ATOM      3  C   UNL     1       1.787   8.174  20.251  0.00  0.00    +0.000 C 
ATOM      4  N   UNL     1       1.792   8.115  18.782  0.00  0.00    +0.000 NA
ATOM      5  C   UNL     1       1.546   9.445  18.197  0.00  0.00    +0.000 C 
ATOM      6  C   UNL     1       0.234  10.067  18.680  0.00  0.00    +0.000 C 
ENDROOT
BRANCH   1  10
ATOM      7  O   UNL     1       1.728  13.189  21.305  0.00  0.00    +0.000 OA
ATOM      8  C   UNL     1       0.791  12.482  20.951  0.00  0.00    +0.000 C 
ATOM      9  N   UNL     1      -0.501  12.903  20.776  0.00  0.00    +0.000 N 
ATOM     10  N   UNL     1       1.009  11.148  20.777  0.00  0.00    +0.000 N 
ATOM     11  H   UNL     1      -1.167  12.218  21.109  0.00  0.00    +0.000 HD
ATOM     12  H   UNL     1       1.992  10.932  20.888  0.00  0.00    +0.000 HD
BRANCH   9  13
ATOM     13  C   UNL     1      -0.891  14.251  21.033  0.00  0.00    +0.000 A 
ATOM     14  C   UNL     1      -1.357  14.710  22.273  0.00  0.00    +0.000 A 
ATOM     15 CL   UNL     1      -1.323  13.768  23.720  0.00  0.00    +0.000 Cl
ATOM     16  C   UNL     1      -1.749  16.044  22.373  0.00  0.00    +0.000 A 
ATOM     17  N   UNL     1      -1.696  16.939  21.356  0.00  0.00    +0.000 NA
ATOM     18  C   UNL     1      -1.206  16.481  20.183  0.00  0.00    +0.000 A 
ATOM     19  C   UNL     1      -0.782  15.175  19.981  0.00  0.00    +0.000 A 
ATOM     20 CL   UNL     1      -0.180  14.715  18.429  0.00  0.00    +0.000 Cl
ENDBRANCH   9  13
ENDBRANCH   1  10
BRANCH   4  21
ATOM     21  C   UNL     1       3.081   7.593  18.268  0.00  0.00    +0.000 C 
BRANCH  21  22
ATOM     22  C   UNL     1       3.107   6.085  18.026  0.00  0.00    +0.000 C 
ATOM     23  C   UNL     1       1.952   5.386  18.098  0.00  0.00    +0.000 C 
ATOM     24  C   UNL     1       1.623   3.932  17.873  0.00  0.00    +0.000 C 
ATOM     25  C   UNL     1       2.684   2.978  17.330  0.00  0.00    +0.000 C 
ATOM     26  C   UNL     1       3.700   2.475  18.355  0.00  0.00    +0.000 C 
ATOM     27  C   UNL     1       4.244   3.491  19.355  0.00  0.00    +0.000 C 
ATOM     28  C   UNL     1       5.100   4.607  18.760  0.00  0.00    +0.000 C 
ATOM     29  C   UNL     1       4.464   5.506  17.695  0.00  0.00    +0.000 C 
ENDBRANCH  21  22
ENDBRANCH   4  21
TORSDOF 4
ENDMDL
MODEL 9
REMARK VINA RESULT:      -7.3      1.557      2.313
REMARK  Name = 
REMARK  4 active torsions:
REMARK  status: ('A' for Active; 'I' for Inactive)
REMARK    1  A    between atoms: N_3  and  C_4
REMARK    2  A    between atoms: N_12  and  C_13
REMARK    3  A    between atoms: N_16  and  C_17
REMARK    4  A    between atoms: C_17  and  C_18
REMARK                            x       y       z     vdW  Elec       q    Type
REMARK                         _______ _______ _______ _____ _____    ______ ____
ROOT
ATOM      1  C   UNL     1       0.090  10.691  20.023  0.00  0.00    +0.000 C 
ATOM      2  C   UNL     1      -0.242   9.496  20.916  0.00  0.00    +0.000 C 
ATOM      3  C   UNL     1       0.904   8.489  20.997  0.00  0.00    +0.000 C 
ATOM      4  N   UNL     1       1.324   8.029  19.665  0.00  0.00    +0.000 NA
ATOM      5  C   UNL     1       1.719   9.164  18.812  0.00  0.00    +0.000 C 
ATOM      6  C   UNL     1       0.608  10.206  18.668  0.00  0.00    +0.000 C 
ENDROOT
BRANCH   1  10
ATOM      7  O   UNL     1       1.940  13.501  21.390  0.00  0.00    +0.000 OA
ATOM      8  C   UNL     1       0.945  12.917  20.974  0.00  0.00    +0.000 C 
ATOM      9  N   UNL     1      -0.301  13.469  20.833  0.00  0.00    +0.000 N 
ATOM     10  N   UNL     1       1.042  11.589  20.684  0.00  0.00    +0.000 N 
ATOM     11  H   UNL     1      -1.030  12.822  21.103  0.00  0.00    +0.000 HD
ATOM     12  H   UNL     1       2.000  11.274  20.778  0.00  0.00    +0.000 HD
BRANCH   9  13
ATOM     13  C   UNL     1      -0.567  14.820  21.206  0.00  0.00    +0.000 A 
ATOM     14  C   UNL     1      -1.044  15.206  22.467  0.00  0.00    +0.000 A 
ATOM     15 CL   UNL     1      -1.170  14.135  23.815  0.00  0.00    +0.000 Cl
ATOM     16  C   UNL     1      -1.307  16.558  22.683  0.00  0.00    +0.000 A 
ATOM     17  N   UNL     1      -1.120  17.534  21.761  0.00  0.00    +0.000 NA
ATOM     18  C   UNL     1      -0.622  17.140  20.567  0.00  0.00    +0.000 A 
ATOM     19  C   UNL     1      -0.321  15.822  20.254  0.00  0.00    +0.000 A 
ATOM     20 CL   UNL     1       0.306  15.451  18.688  0.00  0.00    +0.000 Cl
ENDBRANCH   9  13
ENDBRANCH   1  10
BRANCH   4  21
ATOM     21  C   UNL     1       2.456   7.076  19.757  0.00  0.00    +0.000 C 
BRANCH  21  22
ATOM     22  C   UNL     1       2.097   5.627  19.436  0.00  0.00    +0.000 C 
ATOM     23  C   UNL     1       1.650   4.824  20.428  0.00  0.00    +0.000 C 
ATOM     24  C   UNL     1       1.176   3.394  20.448  0.00  0.00    +0.000 C 
ATOM     25  C   UNL     1       0.994   2.624  19.142  0.00  0.00    +0.000 C 
ATOM     26  C   UNL     1       2.278   2.074  18.521  0.00  0.00    +0.000 C 
ATOM     27  C   UNL     1       3.504   2.983  18.532  0.00  0.00    +0.000 C 
ATOM     28  C   UNL     1       3.397   4.244  17.678  0.00  0.00    +0.000 C 
ATOM     29  C   UNL     1       2.262   5.224  17.988  0.00  0.00    +0.000 C 
ENDBRANCH  21  22
ENDBRANCH   4  21
TORSDOF 4
ENDMDL
