MODEL 1
REMARK VINA RESULT:      -7.9      0.000      0.000
REMARK  Name = 
REMARK  7 active torsions:
REMARK  status: ('A' for Active; 'I' for Inactive)
REMARK    1  A    between atoms: C_1  and  C_2
REMARK    2  A    between atoms: C_9  and  C_10
REMARK    3  A    between atoms: C_14  and  S_15
REMARK    4  A    between atoms: S_15  and  C_16
REMARK    5  A    between atoms: C_16  and  C_17
REMARK    6  A    between atoms: N_19  and  C_20
REMARK    7  A    between atoms: C_20  and  C_21
REMARK                            x       y       z     vdW  Elec       q    Type
REMARK                         _______ _______ _______ _____ _____    ______ ____
ROOT
ATOM      1  C   UNL     1       0.951   9.690  18.656  0.00  0.00    +0.000 C 
ATOM      2  C   UNL     1       1.804   8.459  18.742  0.00  0.00    +0.000 A 
ATOM      3  C   UNL     1       2.963   8.322  17.975  0.00  0.00    +0.000 A 
ATOM      4  C   UNL     1       3.755   7.168  18.065  0.00  0.00    +0.000 A 
ATOM      5  C   UNL     1       3.392   6.136  18.930  0.00  0.00    +0.000 A 
ATOM      6  C   UNL     1       2.225   6.267  19.704  0.00  0.00    +0.000 A 
ATOM      7  C   UNL     1       1.439   7.423  19.606  0.00  0.00    +0.000 A 
ATOM      8  C   UNL     1       1.808   5.200  20.617  0.00  0.00    +0.000 A 
ATOM      9  C   UNL     1       2.530   4.075  20.771  0.00  0.00    +0.000 A 
ATOM     10  C   UNL     1       2.029   3.006  21.712  0.00  0.00    +0.000 C 
ATOM     11  C   UNL     1       3.737   3.941  20.017  0.00  0.00    +0.000 A 
ATOM     12  N   UNL     1       4.613   2.956  20.012  0.00  0.00    +0.000 NA
ATOM     13  N   UNL     1       5.564   3.238  19.074  0.00  0.00    +0.000 NA
ATOM     14  C   UNL     1       5.275   4.402  18.534  0.00  0.00    +0.000 A 
ATOM     15  N   UNL     1       4.128   4.928  19.108  0.00  0.00    +0.000 N 
ENDROOT
BRANCH  14  16
ATOM     16  S   UNL     1       6.240   5.115  17.284  0.00  0.00    +0.000 S 
BRANCH  16  17
ATOM     17  C   UNL     1       7.435   6.092  18.237  0.00  0.00    +0.000 C 
BRANCH  17  18
ATOM     18  C   UNL     1       7.521   7.508  17.698  0.00  0.00    +0.000 C 
ATOM     19  O   UNL     1       6.853   7.879  16.736  0.00  0.00    +0.000 OA
ATOM     20  N   UNL     1       8.404   8.334  18.356  0.00  0.00    +0.000 N 
ATOM     21  H   UNL     1       8.931   7.980  19.149  0.00  0.00    +0.000 HD
BRANCH  20  22
ATOM     22  C   UNL     1       8.555   9.722  17.975  0.00  0.00    +0.000 C 
BRANCH  22  23
ATOM     23  C   UNL     1       9.333  10.467  18.996  0.00  0.00    +0.000 A 
ATOM     24  C   UNL     1      10.528  11.157  18.982  0.00  0.00    +0.000 A 
ATOM     25  C   UNL     1      10.708  11.695  20.277  0.00  0.00    +0.000 A 
ATOM     26  C   UNL     1       9.605  11.318  20.998  0.00  0.00    +0.000 A 
ATOM     27  O   UNL     1       8.767  10.567  20.235  0.00  0.00    +0.000 OA
ENDBRANCH  22  23
ENDBRANCH  20  22
ENDBRANCH  17  18
ENDBRANCH  16  17
ENDBRANCH  14  16
TORSDOF 5
ENDMDL
MODEL 2
REMARK VINA RESULT:      -7.7      1.395      1.862
REMARK  Name = 
REMARK  7 active torsions:
REMARK  status: ('A' for Active; 'I' for Inactive)
REMARK    1  A    between atoms: C_1  and  C_2
REMARK    2  A    between atoms: C_9  and  C_10
REMARK    3  A    between atoms: C_14  and  S_15
REMARK    4  A    between atoms: S_15  and  C_16
REMARK    5  A    between atoms: C_16  and  C_17
REMARK    6  A    between atoms: N_19  and  C_20
REMARK    7  A    between atoms: C_20  and  C_21
REMARK                            x       y       z     vdW  Elec       q    Type
REMARK                         _______ _______ _______ _____ _____    ______ ____
ROOT
ATOM      1  C   UNL     1       1.095  10.417  19.110  0.00  0.00    +0.000 C 
ATOM      2  C   UNL     1       1.759   9.085  18.921  0.00  0.00    +0.000 A 
ATOM      3  C   UNL     1       2.608   8.842  17.839  0.00  0.00    +0.000 A 
ATOM      4  C   UNL     1       3.225   7.594  17.673  0.00  0.00    +0.000 A 
ATOM      5  C   UNL     1       2.998   6.573  18.596  0.00  0.00    +0.000 A 
ATOM      6  C   UNL     1       2.143   6.810  19.687  0.00  0.00    +0.000 A 
ATOM      7  C   UNL     1       1.529   8.060  19.843  0.00  0.00    +0.000 A 
ATOM      8  C   UNL     1       1.874   5.759  20.671  0.00  0.00    +0.000 A 
ATOM      9  C   UNL     1       2.448   4.545  20.588  0.00  0.00    +0.000 A 
ATOM     10  C   UNL     1       2.107   3.501  21.623  0.00  0.00    +0.000 C 
ATOM     11  C   UNL     1       3.346   4.298  19.504  0.00  0.00    +0.000 A 
ATOM     12  N   UNL     1       4.038   3.212  19.224  0.00  0.00    +0.000 NA
ATOM     13  N   UNL     1       4.697   3.419  18.046  0.00  0.00    +0.000 NA
ATOM     14  C   UNL     1       4.423   4.636  17.631  0.00  0.00    +0.000 A 
ATOM     15  N   UNL     1       3.581   5.274  18.530  0.00  0.00    +0.000 N 
ENDROOT
BRANCH  14  16
ATOM     16  S   UNL     1       5.061   5.285  16.157  0.00  0.00    +0.000 S 
BRANCH  16  17
ATOM     17  C   UNL     1       6.799   4.770  16.236  0.00  0.00    +0.000 C 
BRANCH  17  18
ATOM     18  C   UNL     1       7.443   5.252  17.524  0.00  0.00    +0.000 C 
ATOM     19  O   UNL     1       7.715   4.482  18.442  0.00  0.00    +0.000 OA
ATOM     20  N   UNL     1       7.686   6.605  17.588  0.00  0.00    +0.000 N 
ATOM     21  H   UNL     1       7.446   7.199  16.800  0.00  0.00    +0.000 HD
BRANCH  20  22
ATOM     22  C   UNL     1       8.335   7.194  18.739  0.00  0.00    +0.000 C 
BRANCH  22  23
ATOM     23  C   UNL     1       8.479   8.662  18.570  0.00  0.00    +0.000 A 
ATOM     24  C   UNL     1       9.250   9.631  19.178  0.00  0.00    +0.000 A 
ATOM     25  C   UNL     1       8.964  10.853  18.529  0.00  0.00    +0.000 A 
ATOM     26  C   UNL     1       8.049  10.555  17.551  0.00  0.00    +0.000 A 
ATOM     27  O   UNL     1       7.742   9.231  17.570  0.00  0.00    +0.000 OA
ENDBRANCH  22  23
ENDBRANCH  20  22
ENDBRANCH  17  18
ENDBRANCH  16  17
ENDBRANCH  14  16
TORSDOF 5
ENDMDL
MODEL 3
REMARK VINA RESULT:      -7.5      3.036      6.645
REMARK  Name = 
REMARK  7 active torsions:
REMARK  status: ('A' for Active; 'I' for Inactive)
REMARK    1  A    between atoms: C_1  and  C_2
REMARK    2  A    between atoms: C_9  and  C_10
REMARK    3  A    between atoms: C_14  and  S_15
REMARK    4  A    between atoms: S_15  and  C_16
REMARK    5  A    between atoms: C_16  and  C_17
REMARK    6  A    between atoms: N_19  and  C_20
REMARK    7  A    between atoms: C_20  and  C_21
REMARK                            x       y       z     vdW  Elec       q    Type
REMARK                         _______ _______ _______ _____ _____    ______ ____
ROOT
ATOM      1  C   UNL     1       6.116   3.852  12.233  0.00  0.00    +0.000 C 
ATOM      2  C   UNL     1       6.006   3.991  13.722  0.00  0.00    +0.000 A 
ATOM      3  C   UNL     1       5.196   3.138  14.475  0.00  0.00    +0.000 A 
ATOM      4  C   UNL     1       5.103   3.276  15.867  0.00  0.00    +0.000 A 
ATOM      5  C   UNL     1       5.826   4.272  16.523  0.00  0.00    +0.000 A 
ATOM      6  C   UNL     1       6.642   5.136  15.771  0.00  0.00    +0.000 A 
ATOM      7  C   UNL     1       6.727   4.992  14.379  0.00  0.00    +0.000 A 
ATOM      8  C   UNL     1       7.410   6.199  16.423  0.00  0.00    +0.000 A 
ATOM      9  C   UNL     1       7.386   6.376  17.757  0.00  0.00    +0.000 A 
ATOM     10  C   UNL     1       8.181   7.507  18.361  0.00  0.00    +0.000 C 
ATOM     11  C   UNL     1       6.587   5.485  18.539  0.00  0.00    +0.000 A 
ATOM     12  N   UNL     1       6.420   5.443  19.846  0.00  0.00    +0.000 NA
ATOM     13  N   UNL     1       5.504   4.470  20.127  0.00  0.00    +0.000 NA
ATOM     14  C   UNL     1       5.140   3.911  18.995  0.00  0.00    +0.000 A 
ATOM     15  N   UNL     1       5.813   4.492  17.931  0.00  0.00    +0.000 N 
ENDROOT
BRANCH  14  16
ATOM     16  S   UNL     1       3.975   2.631  18.919  0.00  0.00    +0.000 S 
BRANCH  16  17
ATOM     17  C   UNL     1       3.003   2.911  20.425  0.00  0.00    +0.000 C 
BRANCH  17  18
ATOM     18  C   UNL     1       2.065   4.091  20.246  0.00  0.00    +0.000 C 
ATOM     19  O   UNL     1       0.998   3.986  19.644  0.00  0.00    +0.000 OA
ATOM     20  N   UNL     1       2.501   5.276  20.793  0.00  0.00    +0.000 N 
ATOM     21  H   UNL     1       3.389   5.309  21.284  0.00  0.00    +0.000 HD
BRANCH  20  22
ATOM     22  C   UNL     1       1.686   6.470  20.733  0.00  0.00    +0.000 C 
BRANCH  22  23
ATOM     23  C   UNL     1       2.032   7.286  19.542  0.00  0.00    +0.000 A 
ATOM     24  C   UNL     1       1.581   8.486  19.032  0.00  0.00    +0.000 A 
ATOM     25  C   UNL     1       2.354   8.761  17.881  0.00  0.00    +0.000 A 
ATOM     26  C   UNL     1       3.242   7.722  17.766  0.00  0.00    +0.000 A 
ATOM     27  O   UNL     1       3.053   6.818  18.764  0.00  0.00    +0.000 OA
ENDBRANCH  22  23
ENDBRANCH  20  22
ENDBRANCH  17  18
ENDBRANCH  16  17
ENDBRANCH  14  16
TORSDOF 5
ENDMDL
MODEL 4
REMARK VINA RESULT:      -7.4      3.442      6.894
REMARK  Name = 
REMARK  7 active torsions:
REMARK  status: ('A' for Active; 'I' for Inactive)
REMARK    1  A    between atoms: C_1  and  C_2
REMARK    2  A    between atoms: C_9  and  C_10
REMARK    3  A    between atoms: C_14  and  S_15
REMARK    4  A    between atoms: S_15  and  C_16
REMARK    5  A    between atoms: C_16  and  C_17
REMARK    6  A    between atoms: N_19  and  C_20
REMARK    7  A    between atoms: C_20  and  C_21
REMARK                            x       y       z     vdW  Elec       q    Type
REMARK                         _______ _______ _______ _____ _____    ______ ____
ROOT
ATOM      1  C   UNL     1       6.831   4.228  11.971  0.00  0.00    +0.000 C 
ATOM      2  C   UNL     1       6.517   4.252  13.438  0.00  0.00    +0.000 A 
ATOM      3  C   UNL     1       5.568   3.390  13.993  0.00  0.00    +0.000 A 
ATOM      4  C   UNL     1       5.284   3.418  15.366  0.00  0.00    +0.000 A 
ATOM      5  C   UNL     1       5.953   4.314  16.201  0.00  0.00    +0.000 A 
ATOM      6  C   UNL     1       6.908   5.186  15.648  0.00  0.00    +0.000 A 
ATOM      7  C   UNL     1       7.183   5.151  14.274  0.00  0.00    +0.000 A 
ATOM      8  C   UNL     1       7.623   6.146  16.492  0.00  0.00    +0.000 A 
ATOM      9  C   UNL     1       7.418   6.214  17.820  0.00  0.00    +0.000 A 
ATOM     10  C   UNL     1       8.172   7.244  18.626  0.00  0.00    +0.000 C 
ATOM     11  C   UNL     1       6.475   5.312  18.403  0.00  0.00    +0.000 A 
ATOM     12  N   UNL     1       6.122   5.174  19.665  0.00  0.00    +0.000 NA
ATOM     13  N   UNL     1       5.131   4.237  19.730  0.00  0.00    +0.000 NA
ATOM     14  C   UNL     1       4.905   3.794  18.513  0.00  0.00    +0.000 A 
ATOM     15  N   UNL     1       5.750   4.419  17.608  0.00  0.00    +0.000 N 
ENDROOT
BRANCH  14  16
ATOM     16  S   UNL     1       3.705   2.595  18.164  0.00  0.00    +0.000 S 
BRANCH  16  17
ATOM     17  C   UNL     1       2.248   3.611  17.796  0.00  0.00    +0.000 C 
BRANCH  17  18
ATOM     18  C   UNL     1       1.684   4.221  19.066  0.00  0.00    +0.000 C 
ATOM     19  O   UNL     1       0.784   3.679  19.703  0.00  0.00    +0.000 OA
ATOM     20  N   UNL     1       2.245   5.421  19.441  0.00  0.00    +0.000 N 
ATOM     21  H   UNL     1       2.990   5.826  18.881  0.00  0.00    +0.000 HD
BRANCH  20  22
ATOM     22  C   UNL     1       1.834   6.092  20.654  0.00  0.00    +0.000 C 
BRANCH  22  23
ATOM     23  C   UNL     1       1.493   7.511  20.383  0.00  0.00    +0.000 A 
ATOM     24  C   UNL     1       1.796   8.398  19.371  0.00  0.00    +0.000 A 
ATOM     25  C   UNL     1       1.121   9.605  19.664  0.00  0.00    +0.000 A 
ATOM     26  C   UNL     1       0.432   9.377  20.827  0.00  0.00    +0.000 A 
ATOM     27  O   UNL     1       0.654   8.114  21.277  0.00  0.00    +0.000 OA
ENDBRANCH  22  23
ENDBRANCH  20  22
ENDBRANCH  17  18
ENDBRANCH  16  17
ENDBRANCH  14  16
TORSDOF 5
ENDMDL
MODEL 5
REMARK VINA RESULT:      -7.3      4.571      7.648
REMARK  Name = 
REMARK  7 active torsions:
REMARK  status: ('A' for Active; 'I' for Inactive)
REMARK    1  A    between atoms: C_1  and  C_2
REMARK    2  A    between atoms: C_9  and  C_10
REMARK    3  A    between atoms: C_14  and  S_15
REMARK    4  A    between atoms: S_15  and  C_16
REMARK    5  A    between atoms: C_16  and  C_17
REMARK    6  A    between atoms: N_19  and  C_20
REMARK    7  A    between atoms: C_20  and  C_21
REMARK                            x       y       z     vdW  Elec       q    Type
REMARK                         _______ _______ _______ _____ _____    ______ ____
ROOT
ATOM      1  C   UNL     1       6.423   4.944  14.772  0.00  0.00    +0.000 C 
ATOM      2  C   UNL     1       5.500   5.225  15.921  0.00  0.00    +0.000 A 
ATOM      3  C   UNL     1       4.895   6.474  16.080  0.00  0.00    +0.000 A 
ATOM      4  C   UNL     1       4.031   6.724  17.155  0.00  0.00    +0.000 A 
ATOM      5  C   UNL     1       3.761   5.721  18.086  0.00  0.00    +0.000 A 
ATOM      6  C   UNL     1       4.369   4.461  17.932  0.00  0.00    +0.000 A 
ATOM      7  C   UNL     1       5.232   4.221  16.855  0.00  0.00    +0.000 A 
ATOM      8  C   UNL     1       4.116   3.386  18.895  0.00  0.00    +0.000 A 
ATOM      9  C   UNL     1       3.282   3.548  19.938  0.00  0.00    +0.000 A 
ATOM     10  C   UNL     1       3.087   2.405  20.904  0.00  0.00    +0.000 C 
ATOM     11  C   UNL     1       2.631   4.811  20.089  0.00  0.00    +0.000 A 
ATOM     12  N   UNL     1       1.766   5.200  21.004  0.00  0.00    +0.000 NA
ATOM     13  N   UNL     1       1.478   6.517  20.786  0.00  0.00    +0.000 NA
ATOM     14  C   UNL     1       2.149   6.912  19.726  0.00  0.00    +0.000 A 
ATOM     15  N   UNL     1       2.893   5.864  19.207  0.00  0.00    +0.000 N 
ENDROOT
BRANCH  14  16
ATOM     16  S   UNL     1       2.065   8.534  19.122  0.00  0.00    +0.000 S 
BRANCH  16  17
ATOM     17  C   UNL     1       1.256   9.409  20.489  0.00  0.00    +0.000 C 
BRANCH  17  18
ATOM     18  C   UNL     1       0.436  10.575  19.968  0.00  0.00    +0.000 C 
ATOM     19  O   UNL     1       0.855  11.730  20.000  0.00  0.00    +0.000 OA
ATOM     20  N   UNL     1      -0.805  10.245  19.473  0.00  0.00    +0.000 N 
ATOM     21  H   UNL     1      -1.104   9.274  19.465  0.00  0.00    +0.000 HD
BRANCH  20  22
ATOM     22  C   UNL     1      -1.675  11.252  18.904  0.00  0.00    +0.000 C 
BRANCH  22  23
ATOM     23  C   UNL     1      -2.339  10.745  17.677  0.00  0.00    +0.000 A 
ATOM     24  C   UNL     1      -3.230   9.724  17.416  0.00  0.00    +0.000 A 
ATOM     25  C   UNL     1      -3.528   9.782  16.036  0.00  0.00    +0.000 A 
ATOM     26  C   UNL     1      -2.817  10.844  15.540  0.00  0.00    +0.000 A 
ATOM     27  O   UNL     1      -2.086  11.432  16.524  0.00  0.00    +0.000 OA
ENDBRANCH  22  23
ENDBRANCH  20  22
ENDBRANCH  17  18
ENDBRANCH  16  17
ENDBRANCH  14  16
TORSDOF 5
ENDMDL
MODEL 6
REMARK VINA RESULT:      -7.3      4.127      7.026
REMARK  Name = 
REMARK  7 active torsions:
REMARK  status: ('A' for Active; 'I' for Inactive)
REMARK    1  A    between atoms: C_1  and  C_2
REMARK    2  A    between atoms: C_9  and  C_10
REMARK    3  A    between atoms: C_14  and  S_15
REMARK    4  A    between atoms: S_15  and  C_16
REMARK    5  A    between atoms: C_16  and  C_17
REMARK    6  A    between atoms: N_19  and  C_20
REMARK    7  A    between atoms: C_20  and  C_21
REMARK                            x       y       z     vdW  Elec       q    Type
REMARK                         _______ _______ _______ _____ _____    ______ ____
ROOT
ATOM      1  C   UNL     1       1.377   2.434  21.732  0.00  0.00    +0.000 C 
ATOM      2  C   UNL     1       2.200   3.322  20.845  0.00  0.00    +0.000 A 
ATOM      3  C   UNL     1       3.490   2.960  20.450  0.00  0.00    +0.000 A 
ATOM      4  C   UNL     1       4.249   3.796  19.618  0.00  0.00    +0.000 A 
ATOM      5  C   UNL     1       3.720   5.006  19.171  0.00  0.00    +0.000 A 
ATOM      6  C   UNL     1       2.422   5.377  19.567  0.00  0.00    +0.000 A 
ATOM      7  C   UNL     1       1.672   4.536  20.400  0.00  0.00    +0.000 A 
ATOM      8  C   UNL     1       1.837   6.645  19.124  0.00  0.00    +0.000 A 
ATOM      9  C   UNL     1       2.499   7.485  18.308  0.00  0.00    +0.000 A 
ATOM     10  C   UNL     1       1.846   8.787  17.910  0.00  0.00    +0.000 C 
ATOM     11  C   UNL     1       3.806   7.108  17.869  0.00  0.00    +0.000 A 
ATOM     12  N   UNL     1       4.632   7.744  17.062  0.00  0.00    +0.000 NA
ATOM     13  N   UNL     1       5.796   7.033  16.998  0.00  0.00    +0.000 NA
ATOM     14  C   UNL     1       5.662   5.959  17.745  0.00  0.00    +0.000 A 
ATOM     15  N   UNL     1       4.399   5.924  18.317  0.00  0.00    +0.000 N 
ENDROOT
BRANCH  14  16
ATOM     16  S   UNL     1       6.930   4.794  17.939  0.00  0.00    +0.000 S 
BRANCH  16  17
ATOM     17  C   UNL     1       7.528   4.596  16.238  0.00  0.00    +0.000 C 
BRANCH  17  18
ATOM     18  C   UNL     1       6.426   4.063  15.340  0.00  0.00    +0.000 C 
ATOM     19  O   UNL     1       5.474   3.427  15.788  0.00  0.00    +0.000 OA
ATOM     20  N   UNL     1       6.578   4.336  14.000  0.00  0.00    +0.000 N 
ATOM     21  H   UNL     1       7.381   4.869  13.681  0.00  0.00    +0.000 HD
BRANCH  20  22
ATOM     22  C   UNL     1       5.579   3.925  13.036  0.00  0.00    +0.000 C 
BRANCH  22  23
ATOM     23  C   UNL     1       6.138   2.925  12.092  0.00  0.00    +0.000 A 
ATOM     24  C   UNL     1       7.378   2.727  11.520  0.00  0.00    +0.000 A 
ATOM     25  C   UNL     1       7.287   1.555  10.736  0.00  0.00    +0.000 A 
ATOM     26  C   UNL     1       6.004   1.097  10.889  0.00  0.00    +0.000 A 
ATOM     27  O   UNL     1       5.295   1.922  11.704  0.00  0.00    +0.000 OA
ENDBRANCH  22  23
ENDBRANCH  20  22
ENDBRANCH  17  18
ENDBRANCH  16  17
ENDBRANCH  14  16
TORSDOF 5
ENDMDL
MODEL 7
REMARK VINA RESULT:      -7.3      3.965      6.243
REMARK  Name = 
REMARK  7 active torsions:
REMARK  status: ('A' for Active; 'I' for Inactive)
REMARK    1  A    between atoms: C_1  and  C_2
REMARK    2  A    between atoms: C_9  and  C_10
REMARK    3  A    between atoms: C_14  and  S_15
REMARK    4  A    between atoms: S_15  and  C_16
REMARK    5  A    between atoms: C_16  and  C_17
REMARK    6  A    between atoms: N_19  and  C_20
REMARK    7  A    between atoms: C_20  and  C_21
REMARK                            x       y       z     vdW  Elec       q    Type
REMARK                         _______ _______ _______ _____ _____    ______ ____
ROOT
ATOM      1  C   UNL     1       1.312   9.602  18.061  0.00  0.00    +0.000 C 
ATOM      2  C   UNL     1       2.035   8.319  18.342  0.00  0.00    +0.000 A 
ATOM      3  C   UNL     1       3.271   8.036  17.755  0.00  0.00    +0.000 A 
ATOM      4  C   UNL     1       3.940   6.834  18.027  0.00  0.00    +0.000 A 
ATOM      5  C   UNL     1       3.376   5.900  18.896  0.00  0.00    +0.000 A 
ATOM      6  C   UNL     1       2.130   6.177  19.488  0.00  0.00    +0.000 A 
ATOM      7  C   UNL     1       1.468   7.380  19.209  0.00  0.00    +0.000 A 
ATOM      8  C   UNL     1       1.503   5.216  20.398  0.00  0.00    +0.000 A 
ATOM      9  C   UNL     1       2.097   4.052  20.722  0.00  0.00    +0.000 A 
ATOM     10  C   UNL     1       1.383   3.097  21.647  0.00  0.00    +0.000 C 
ATOM     11  C   UNL     1       3.378   3.770  20.154  0.00  0.00    +0.000 A 
ATOM     12  N   UNL     1       4.158   2.723  20.333  0.00  0.00    +0.000 NA
ATOM     13  N   UNL     1       5.248   2.861  19.522  0.00  0.00    +0.000 NA
ATOM     14  C   UNL     1       5.137   4.000  18.876  0.00  0.00    +0.000 A 
ATOM     15  N   UNL     1       3.973   4.655  19.249  0.00  0.00    +0.000 N 
ENDROOT
BRANCH  14  16
ATOM     16  S   UNL     1       6.320   4.543  17.732  0.00  0.00    +0.000 S 
BRANCH  16  17
ATOM     17  C   UNL     1       5.398   4.477  16.171  0.00  0.00    +0.000 C 
BRANCH  17  18
ATOM     18  C   UNL     1       6.348   4.496  14.987  0.00  0.00    +0.000 C 
ATOM     19  O   UNL     1       7.557   4.666  15.126  0.00  0.00    +0.000 OA
ATOM     20  N   UNL     1       5.755   4.322  13.757  0.00  0.00    +0.000 N 
ATOM     21  H   UNL     1       4.751   4.181  13.695  0.00  0.00    +0.000 HD
BRANCH  20  22
ATOM     22  C   UNL     1       6.546   4.275  12.546  0.00  0.00    +0.000 C 
BRANCH  22  23
ATOM     23  C   UNL     1       6.448   2.940  11.904  0.00  0.00    +0.000 A 
ATOM     24  C   UNL     1       5.418   2.048  11.688  0.00  0.00    +0.000 A 
ATOM     25  C   UNL     1       5.960   0.960  10.966  0.00  0.00    +0.000 A 
ATOM     26  C   UNL     1       7.283   1.260  10.769  0.00  0.00    +0.000 A 
ATOM     27  O   UNL     1       7.594   2.455  11.338  0.00  0.00    +0.000 OA
ENDBRANCH  22  23
ENDBRANCH  20  22
ENDBRANCH  17  18
ENDBRANCH  16  17
ENDBRANCH  14  16
TORSDOF 5
ENDMDL
MODEL 8
REMARK VINA RESULT:      -7.2      4.517      8.034
REMARK  Name = 
REMARK  7 active torsions:
REMARK  status: ('A' for Active; 'I' for Inactive)
REMARK    1  A    between atoms: C_1  and  C_2
REMARK    2  A    between atoms: C_9  and  C_10
REMARK    3  A    between atoms: C_14  and  S_15
REMARK    4  A    between atoms: S_15  and  C_16
REMARK    5  A    between atoms: C_16  and  C_17
REMARK    6  A    between atoms: N_19  and  C_20
REMARK    7  A    between atoms: C_20  and  C_21
REMARK                            x       y       z     vdW  Elec       q    Type
REMARK                         _______ _______ _______ _____ _____    ______ ____
ROOT
ATOM      1  C   UNL     1       6.694   4.423  14.316  0.00  0.00    +0.000 C 
ATOM      2  C   UNL     1       5.791   4.881  15.422  0.00  0.00    +0.000 A 
ATOM      3  C   UNL     1       5.295   6.187  15.463  0.00  0.00    +0.000 A 
ATOM      4  C   UNL     1       4.449   6.605  16.501  0.00  0.00    +0.000 A 
ATOM      5  C   UNL     1       4.087   5.714  17.511  0.00  0.00    +0.000 A 
ATOM      6  C   UNL     1       4.584   4.398  17.477  0.00  0.00    +0.000 A 
ATOM      7  C   UNL     1       5.431   3.990  16.437  0.00  0.00    +0.000 A 
ATOM      8  C   UNL     1       4.233   3.437  18.525  0.00  0.00    +0.000 A 
ATOM      9  C   UNL     1       3.409   3.761  19.538  0.00  0.00    +0.000 A 
ATOM     10  C   UNL     1       3.109   2.729  20.598  0.00  0.00    +0.000 C 
ATOM     11  C   UNL     1       2.869   5.084  19.569  0.00  0.00    +0.000 A 
ATOM     12  N   UNL     1       2.035   5.625  20.435  0.00  0.00    +0.000 NA
ATOM     13  N   UNL     1       1.864   6.938  20.098  0.00  0.00    +0.000 NA
ATOM     14  C   UNL     1       2.574   7.180  19.018  0.00  0.00    +0.000 A 
ATOM     15  N   UNL     1       3.227   6.029  18.603  0.00  0.00    +0.000 N 
ENDROOT
BRANCH  14  16
ATOM     16  S   UNL     1       2.636   8.742  18.273  0.00  0.00    +0.000 S 
BRANCH  16  17
ATOM     17  C   UNL     1       0.919   8.975  17.735  0.00  0.00    +0.000 C 
BRANCH  17  18
ATOM     18  C   UNL     1       0.309  10.195  18.403  0.00  0.00    +0.000 C 
ATOM     19  O   UNL     1       1.000  11.044  18.960  0.00  0.00    +0.000 OA
ATOM     20  N   UNL     1      -1.064  10.269  18.346  0.00  0.00    +0.000 N 
ATOM     21  H   UNL     1      -1.590   9.542  17.870  0.00  0.00    +0.000 HD
BRANCH  20  22
ATOM     22  C   UNL     1      -1.775  11.400  18.904  0.00  0.00    +0.000 C 
BRANCH  22  23
ATOM     23  C   UNL     1      -3.123  11.527  18.296  0.00  0.00    +0.000 A 
ATOM     24  C   UNL     1      -4.359  11.921  18.766  0.00  0.00    +0.000 A 
ATOM     25  C   UNL     1      -5.251  11.874  17.670  0.00  0.00    +0.000 A 
ATOM     26  C   UNL     1      -4.504  11.471  16.593  0.00  0.00    +0.000 A 
ATOM     27  O   UNL     1      -3.213  11.251  16.960  0.00  0.00    +0.000 OA
ENDBRANCH  22  23
ENDBRANCH  20  22
ENDBRANCH  17  18
ENDBRANCH  16  17
ENDBRANCH  14  16
TORSDOF 5
ENDMDL
MODEL 9
REMARK VINA RESULT:      -7.2      3.128      6.695
REMARK  Name = 
REMARK  7 active torsions:
REMARK  status: ('A' for Active; 'I' for Inactive)
REMARK    1  A    between atoms: C_1  and  C_2
REMARK    2  A    between atoms: C_9  and  C_10
REMARK    3  A    between atoms: C_14  and  S_15
REMARK    4  A    between atoms: S_15  and  C_16
REMARK    5  A    between atoms: C_16  and  C_17
REMARK    6  A    between atoms: N_19  and  C_20
REMARK    7  A    between atoms: C_20  and  C_21
REMARK                            x       y       z     vdW  Elec       q    Type
REMARK                         _______ _______ _______ _____ _____    ______ ____
ROOT
ATOM      1  C   UNL     1       6.379   3.789  12.158  0.00  0.00    +0.000 C 
ATOM      2  C   UNL     1       6.211   3.949  13.640  0.00  0.00    +0.000 A 
ATOM      3  C   UNL     1       5.382   3.098  14.374  0.00  0.00    +0.000 A 
ATOM      4  C   UNL     1       5.235   3.254  15.760  0.00  0.00    +0.000 A 
ATOM      5  C   UNL     1       5.922   4.268  16.427  0.00  0.00    +0.000 A 
ATOM      6  C   UNL     1       6.757   5.129  15.693  0.00  0.00    +0.000 A 
ATOM      7  C   UNL     1       6.896   4.967  14.309  0.00  0.00    +0.000 A 
ATOM      8  C   UNL     1       7.488   6.211  16.359  0.00  0.00    +0.000 A 
ATOM      9  C   UNL     1       7.412   6.406  17.688  0.00  0.00    +0.000 A 
ATOM     10  C   UNL     1       8.172   7.555  18.304  0.00  0.00    +0.000 C 
ATOM     11  C   UNL     1       6.594   5.518  18.453  0.00  0.00    +0.000 A 
ATOM     12  N   UNL     1       6.378   5.493  19.753  0.00  0.00    +0.000 NA
ATOM     13  N   UNL     1       5.463   4.514  20.014  0.00  0.00    +0.000 NA
ATOM     14  C   UNL     1       5.147   3.935  18.877  0.00  0.00    +0.000 A 
ATOM     15  N   UNL     1       5.854   4.508  17.831  0.00  0.00    +0.000 N 
ENDROOT
BRANCH  14  16
ATOM     16  S   UNL     1       4.000   2.641  18.777  0.00  0.00    +0.000 S 
BRANCH  16  17
ATOM     17  C   UNL     1       2.475   3.438  19.352  0.00  0.00    +0.000 C 
BRANCH  17  18
ATOM     18  C   UNL     1       2.281   4.780  18.669  0.00  0.00    +0.000 C 
ATOM     19  O   UNL     1       1.889   4.867  17.508  0.00  0.00    +0.000 OA
ATOM     20  N   UNL     1       2.586   5.879  19.439  0.00  0.00    +0.000 N 
ATOM     21  H   UNL     1       2.904   5.754  20.395  0.00  0.00    +0.000 HD
BRANCH  20  22
ATOM     22  C   UNL     1       2.406   7.221  18.929  0.00  0.00    +0.000 C 
BRANCH  22  23
ATOM     23  C   UNL     1       1.677   8.065  19.909  0.00  0.00    +0.000 A 
ATOM     24  C   UNL     1       1.192   7.860  21.184  0.00  0.00    +0.000 A 
ATOM     25  C   UNL     1       0.629   9.083  21.613  0.00  0.00    +0.000 A 
ATOM     26  C   UNL     1       0.819   9.967  20.581  0.00  0.00    +0.000 A 
ATOM     27  O   UNL     1       1.447   9.360  19.540  0.00  0.00    +0.000 OA
ENDBRANCH  22  23
ENDBRANCH  20  22
ENDBRANCH  17  18
ENDBRANCH  16  17
ENDBRANCH  14  16
TORSDOF 5
ENDMDL
