MODEL 1
REMARK VINA RESULT:      -8.4      0.000      0.000
REMARK  Name = 
REMARK  6 active torsions:
REMARK  status: ('A' for Active; 'I' for Inactive)
REMARK    1  A    between atoms: C_1  and  C_2
REMARK    2  A    between atoms: C_3  and  C_4
REMARK    3  A    between atoms: C_7  and  C_8
REMARK    4  A    between atoms: N_10  and  C_11
REMARK    5  A    between atoms: C_11  and  C_12
REMARK    6  A    between atoms: C_12  and  C_13
REMARK                            x       y       z     vdW  Elec       q    Type
REMARK                         _______ _______ _______ _____ _____    ______ ____
ROOT
ATOM      1  C   UNL     1       4.581   4.549  17.726  0.00  0.00    +0.000 A 
ATOM      2  N   UNL     1       4.640   3.524  18.588  0.00  0.00    +0.000 NA
ATOM      3  O   UNL     1       3.790   3.916  19.625  0.00  0.00    +0.000 OA
ATOM      4  C   UNL     1       3.293   5.135  19.276  0.00  0.00    +0.000 A 
ATOM      5  N   UNL     1       3.749   5.576  18.121  0.00  0.00    +0.000 NA
ENDROOT
BRANCH   1   8
ATOM      6  C   UNL     1       7.232   6.246  16.961  0.00  0.00    +0.000 C 
ATOM      7  C   UNL     1       6.455   5.309  16.109  0.00  0.00    +0.000 A 
ATOM      8  C   UNL     1       5.330   4.553  16.427  0.00  0.00    +0.000 A 
ATOM      9  O   UNL     1       4.969   3.789  15.346  0.00  0.00    +0.000 OA
ATOM     10  C   UNL     1       5.823   4.074  14.330  0.00  0.00    +0.000 A 
ATOM     11  C   UNL     1       5.780   3.521  13.051  0.00  0.00    +0.000 A 
ATOM     12  C   UNL     1       6.752   3.963  12.145  0.00  0.00    +0.000 A 
ATOM     13  C   UNL     1       7.711   4.906  12.519  0.00  0.00    +0.000 A 
ATOM     14  C   UNL     1       7.731   5.438  13.816  0.00  0.00    +0.000 A 
ATOM     15  C   UNL     1       6.759   5.010  14.742  0.00  0.00    +0.000 A 
ENDBRANCH   1   8
BRANCH   4  16
ATOM     16  C   UNL     1       2.334   5.791  20.142  0.00  0.00    +0.000 C 
ATOM     17  O   UNL     1       1.525   5.189  20.847  0.00  0.00    +0.000 OA
ATOM     18  N   UNL     1       2.375   7.183  20.121  0.00  0.00    +0.000 N 
ATOM     19  H   UNL     1       3.022   7.627  19.479  0.00  0.00    +0.000 HD
BRANCH  18  20
ATOM     20  C   UNL     1       1.406   7.960  20.876  0.00  0.00    +0.000 C 
BRANCH  20  21
ATOM     21  C   UNL     1       0.939   9.224  20.153  0.00  0.00    +0.000 C 
BRANCH  21  22
ATOM     22  C   UNL     1       0.011  10.056  21.006  0.00  0.00    +0.000 A 
ATOM     23  C   UNL     1      -0.627  11.187  20.475  0.00  0.00    +0.000 A 
ATOM     24  C   UNL     1      -1.466  11.971  21.270  0.00  0.00    +0.000 A 
ATOM     25  C   UNL     1      -1.671  11.634  22.605  0.00  0.00    +0.000 A 
ATOM     26 CL   UNL     1      -2.700  12.604  23.586  0.00  0.00    +0.000 Cl
ATOM     27  C   UNL     1      -1.045  10.516  23.151  0.00  0.00    +0.000 A 
ATOM     28  C   UNL     1      -0.203   9.731  22.355  0.00  0.00    +0.000 A 
ENDBRANCH  21  22
ENDBRANCH  20  21
ENDBRANCH  18  20
ENDBRANCH   4  16
TORSDOF 5
ENDMDL
MODEL 2
REMARK VINA RESULT:      -8.3      7.231      9.695
REMARK  Name = 
REMARK  6 active torsions:
REMARK  status: ('A' for Active; 'I' for Inactive)
REMARK    1  A    between atoms: C_1  and  C_2
REMARK    2  A    between atoms: C_3  and  C_4
REMARK    3  A    between atoms: C_7  and  C_8
REMARK    4  A    between atoms: N_10  and  C_11
REMARK    5  A    between atoms: C_11  and  C_12
REMARK    6  A    between atoms: C_12  and  C_13
REMARK                            x       y       z     vdW  Elec       q    Type
REMARK                         _______ _______ _______ _____ _____    ______ ____
ROOT
ATOM      1  C   UNL     1       9.226  11.595  18.530  0.00  0.00    +0.000 A 
ATOM      2  N   UNL     1       9.759  10.972  19.591  0.00  0.00    +0.000 NA
ATOM      3  O   UNL     1       9.311   9.655  19.459  0.00  0.00    +0.000 OA
ATOM      4  C   UNL     1       8.561   9.615  18.322  0.00  0.00    +0.000 A 
ATOM      5  N   UNL     1       8.469  10.780  17.714  0.00  0.00    +0.000 NA
ENDROOT
BRANCH   1   8
ATOM      6  C   UNL     1      11.754  12.935  17.010  0.00  0.00    +0.000 C 
ATOM      7  C   UNL     1      10.572  13.606  17.610  0.00  0.00    +0.000 A 
ATOM      8  C   UNL     1       9.466  13.047  18.245  0.00  0.00    +0.000 A 
ATOM      9  O   UNL     1       8.591  14.041  18.604  0.00  0.00    +0.000 OA
ATOM     10  C   UNL     1       9.139  15.230  18.245  0.00  0.00    +0.000 A 
ATOM     11  C   UNL     1       8.572  16.485  18.456  0.00  0.00    +0.000 A 
ATOM     12  C   UNL     1       9.312  17.589  18.016  0.00  0.00    +0.000 A 
ATOM     13  C   UNL     1      10.551  17.425  17.394  0.00  0.00    +0.000 A 
ATOM     14  C   UNL     1      11.091  16.148  17.191  0.00  0.00    +0.000 A 
ATOM     15  C   UNL     1      10.365  15.023  17.630  0.00  0.00    +0.000 A 
ENDBRANCH   1   8
BRANCH   4  16
ATOM     16  C   UNL     1       7.988   8.357  17.888  0.00  0.00    +0.000 C 
ATOM     17  O   UNL     1       7.255   8.242  16.906  0.00  0.00    +0.000 OA
ATOM     18  N   UNL     1       8.313   7.257  18.677  0.00  0.00    +0.000 N 
ATOM     19  H   UNL     1       8.874   7.419  19.506  0.00  0.00    +0.000 HD
BRANCH  18  20
ATOM     20  C   UNL     1       7.729   5.954  18.402  0.00  0.00    +0.000 C 
BRANCH  20  21
ATOM     21  C   UNL     1       6.818   5.444  19.519  0.00  0.00    +0.000 C 
BRANCH  21  22
ATOM     22  C   UNL     1       5.420   5.157  19.024  0.00  0.00    +0.000 A 
ATOM     23  C   UNL     1       4.846   3.889  19.201  0.00  0.00    +0.000 A 
ATOM     24  C   UNL     1       3.563   3.614  18.722  0.00  0.00    +0.000 A 
ATOM     25  C   UNL     1       2.844   4.604  18.058  0.00  0.00    +0.000 A 
ATOM     26 CL   UNL     1       1.266   4.264  17.462  0.00  0.00    +0.000 Cl
ATOM     27  C   UNL     1       3.398   5.869  17.870  0.00  0.00    +0.000 A 
ATOM     28  C   UNL     1       4.684   6.143  18.350  0.00  0.00    +0.000 A 
ENDBRANCH  21  22
ENDBRANCH  20  21
ENDBRANCH  18  20
ENDBRANCH   4  16
TORSDOF 5
ENDMDL
MODEL 3
REMARK VINA RESULT:      -8.1      1.951      2.372
REMARK  Name = 
REMARK  6 active torsions:
REMARK  status: ('A' for Active; 'I' for Inactive)
REMARK    1  A    between atoms: C_1  and  C_2
REMARK    2  A    between atoms: C_3  and  C_4
REMARK    3  A    between atoms: C_7  and  C_8
REMARK    4  A    between atoms: N_10  and  C_11
REMARK    5  A    between atoms: C_11  and  C_12
REMARK    6  A    between atoms: C_12  and  C_13
REMARK                            x       y       z     vdW  Elec       q    Type
REMARK                         _______ _______ _______ _____ _____    ______ ____
ROOT
ATOM      1  C   UNL     1       4.495   5.166  17.763  0.00  0.00    +0.000 A 
ATOM      2  N   UNL     1       4.651   4.353  18.817  0.00  0.00    +0.000 NA
ATOM      3  O   UNL     1       3.787   4.887  19.776  0.00  0.00    +0.000 OA
ATOM      4  C   UNL     1       3.186   5.964  19.196  0.00  0.00    +0.000 A 
ATOM      5  N   UNL     1       3.588   6.187  17.962  0.00  0.00    +0.000 NA
ENDROOT
BRANCH   1   8
ATOM      6  C   UNL     1       7.296   6.490  16.814  0.00  0.00    +0.000 C 
ATOM      7  C   UNL     1       6.415   5.553  16.069  0.00  0.00    +0.000 A 
ATOM      8  C   UNL     1       5.223   4.956  16.469  0.00  0.00    +0.000 A 
ATOM      9  O   UNL     1       4.770   4.123  15.477  0.00  0.00    +0.000 OA
ATOM     10  C   UNL     1       5.634   4.209  14.433  0.00  0.00    +0.000 A 
ATOM     11  C   UNL     1       5.517   3.532  13.221  0.00  0.00    +0.000 A 
ATOM     12  C   UNL     1       6.516   3.773  12.270  0.00  0.00    +0.000 A 
ATOM     13  C   UNL     1       7.573   4.645  12.539  0.00  0.00    +0.000 A 
ATOM     14  C   UNL     1       7.665   5.306  13.771  0.00  0.00    +0.000 A 
ATOM     15  C   UNL     1       6.667   5.081  14.741  0.00  0.00    +0.000 A 
ENDBRANCH   1   8
BRANCH   4  16
ATOM     16  C   UNL     1       2.189   6.711  19.937  0.00  0.00    +0.000 C 
ATOM     17  O   UNL     1       1.505   6.230  20.839  0.00  0.00    +0.000 OA
ATOM     18  N   UNL     1       2.038   8.040  19.548  0.00  0.00    +0.000 N 
ATOM     19  H   UNL     1       2.588   8.367  18.761  0.00  0.00    +0.000 HD
BRANCH  18  20
ATOM     20  C   UNL     1       1.010   8.872  20.151  0.00  0.00    +0.000 C 
BRANCH  20  21
ATOM     21  C   UNL     1       0.934  10.278  19.555  0.00  0.00    +0.000 C 
BRANCH  21  22
ATOM     22  C   UNL     1      -0.413  10.557  18.931  0.00  0.00    +0.000 A 
ATOM     23  C   UNL     1      -0.814   9.887  17.765  0.00  0.00    +0.000 A 
ATOM     24  C   UNL     1      -2.049  10.163  17.174  0.00  0.00    +0.000 A 
ATOM     25  C   UNL     1      -2.892  11.115  17.740  0.00  0.00    +0.000 A 
ATOM     26 CL   UNL     1      -4.411  11.460  17.007  0.00  0.00    +0.000 Cl
ATOM     27  C   UNL     1      -2.510  11.794  18.895  0.00  0.00    +0.000 A 
ATOM     28  C   UNL     1      -1.272  11.517  19.487  0.00  0.00    +0.000 A 
ENDBRANCH  21  22
ENDBRANCH  20  21
ENDBRANCH  18  20
ENDBRANCH   4  16
TORSDOF 5
ENDMDL
MODEL 4
REMARK VINA RESULT:      -8.0      5.830      8.823
REMARK  Name = 
REMARK  6 active torsions:
REMARK  status: ('A' for Active; 'I' for Inactive)
REMARK    1  A    between atoms: C_1  and  C_2
REMARK    2  A    between atoms: C_3  and  C_4
REMARK    3  A    between atoms: C_7  and  C_8
REMARK    4  A    between atoms: N_10  and  C_11
REMARK    5  A    between atoms: C_11  and  C_12
REMARK    6  A    between atoms: C_12  and  C_13
REMARK                            x       y       z     vdW  Elec       q    Type
REMARK                         _______ _______ _______ _____ _____    ______ ____
ROOT
ATOM      1  C   UNL     1       5.978   5.498  18.866  0.00  0.00    +0.000 A 
ATOM      2  N   UNL     1       7.050   5.220  19.621  0.00  0.00    +0.000 NA
ATOM      3  O   UNL     1       7.992   6.170  19.218  0.00  0.00    +0.000 OA
ATOM      4  C   UNL     1       7.385   6.935  18.267  0.00  0.00    +0.000 A 
ATOM      5  N   UNL     1       6.149   6.563  18.006  0.00  0.00    +0.000 NA
ENDROOT
BRANCH   1   8
ATOM      6  C   UNL     1       4.582   3.608  16.636  0.00  0.00    +0.000 C 
ATOM      7  C   UNL     1       4.097   3.944  18.000  0.00  0.00    +0.000 A 
ATOM      8  C   UNL     1       4.694   4.733  18.979  0.00  0.00    +0.000 A 
ATOM      9  O   UNL     1       3.913   4.732  20.108  0.00  0.00    +0.000 OA
ATOM     10  C   UNL     1       2.808   3.987  19.851  0.00  0.00    +0.000 A 
ATOM     11  C   UNL     1       1.757   3.757  20.736  0.00  0.00    +0.000 A 
ATOM     12  C   UNL     1       0.703   2.965  20.265  0.00  0.00    +0.000 A 
ATOM     13  C   UNL     1       0.720   2.435  18.974  0.00  0.00    +0.000 A 
ATOM     14  C   UNL     1       1.796   2.681  18.110  0.00  0.00    +0.000 A 
ATOM     15  C   UNL     1       2.865   3.479  18.562  0.00  0.00    +0.000 A 
ENDBRANCH   1   8
BRANCH   4  16
ATOM     16  C   UNL     1       8.103   8.049  17.681  0.00  0.00    +0.000 C 
ATOM     17  O   UNL     1       8.571   8.037  16.543  0.00  0.00    +0.000 OA
ATOM     18  N   UNL     1       8.247   9.160  18.508  0.00  0.00    +0.000 N 
ATOM     19  H   UNL     1       7.891   9.093  19.455  0.00  0.00    +0.000 HD
BRANCH  18  20
ATOM     20  C   UNL     1       9.024  10.308  18.071  0.00  0.00    +0.000 C 
BRANCH  20  21
ATOM     21  C   UNL     1      10.016  10.809  19.122  0.00  0.00    +0.000 C 
BRANCH  21  22
ATOM     22  C   UNL     1      10.576  12.168  18.770  0.00  0.00    +0.000 A 
ATOM     23  C   UNL     1      10.416  12.695  17.480  0.00  0.00    +0.000 A 
ATOM     24  C   UNL     1      10.955  13.941  17.147  0.00  0.00    +0.000 A 
ATOM     25  C   UNL     1      11.662  14.668  18.101  0.00  0.00    +0.000 A 
ATOM     26 CL   UNL     1      12.331  16.199  17.690  0.00  0.00    +0.000 Cl
ATOM     27  C   UNL     1      11.834  14.160  19.387  0.00  0.00    +0.000 A 
ATOM     28  C   UNL     1      11.294  12.911  19.720  0.00  0.00    +0.000 A 
ENDBRANCH  21  22
ENDBRANCH  20  21
ENDBRANCH  18  20
ENDBRANCH   4  16
TORSDOF 5
ENDMDL
MODEL 5
REMARK VINA RESULT:      -7.9      5.801      8.600
REMARK  Name = 
REMARK  6 active torsions:
REMARK  status: ('A' for Active; 'I' for Inactive)
REMARK    1  A    between atoms: C_1  and  C_2
REMARK    2  A    between atoms: C_3  and  C_4
REMARK    3  A    between atoms: C_7  and  C_8
REMARK    4  A    between atoms: N_10  and  C_11
REMARK    5  A    between atoms: C_11  and  C_12
REMARK    6  A    between atoms: C_12  and  C_13
REMARK                            x       y       z     vdW  Elec       q    Type
REMARK                         _______ _______ _______ _____ _____    ______ ____
ROOT
ATOM      1  C   UNL     1       8.709   9.351  18.446  0.00  0.00    +0.000 A 
ATOM      2  N   UNL     1       8.954   8.361  19.316  0.00  0.00    +0.000 NA
ATOM      3  O   UNL     1       8.272   7.269  18.774  0.00  0.00    +0.000 OA
ATOM      4  C   UNL     1       7.694   7.709  17.621  0.00  0.00    +0.000 A 
ATOM      5  N   UNL     1       7.924   8.982  17.373  0.00  0.00    +0.000 NA
ENDROOT
BRANCH   1   8
ATOM      6  C   UNL     1       9.133  11.010  21.196  0.00  0.00    +0.000 C 
ATOM      7  C   UNL     1       9.427  11.436  19.803  0.00  0.00    +0.000 A 
ATOM      8  C   UNL     1       9.275  10.729  18.613  0.00  0.00    +0.000 A 
ATOM      9  O   UNL     1       9.715  11.496  17.564  0.00  0.00    +0.000 OA
ATOM     10  C   UNL     1      10.110  12.696  18.061  0.00  0.00    +0.000 A 
ATOM     11  C   UNL     1      10.603  13.764  17.314  0.00  0.00    +0.000 A 
ATOM     12  C   UNL     1      10.943  14.921  18.025  0.00  0.00    +0.000 A 
ATOM     13  C   UNL     1      10.796  14.986  19.412  0.00  0.00    +0.000 A 
ATOM     14  C   UNL     1      10.302  13.891  20.134  0.00  0.00    +0.000 A 
ATOM     15  C   UNL     1       9.950  12.718  19.438  0.00  0.00    +0.000 A 
ENDBRANCH   1   8
BRANCH   4  16
ATOM     16  C   UNL     1       6.944   6.782  16.799  0.00  0.00    +0.000 C 
ATOM     17  O   UNL     1       7.422   6.177  15.840  0.00  0.00    +0.000 OA
ATOM     18  N   UNL     1       5.609   6.620  17.160  0.00  0.00    +0.000 N 
ATOM     19  H   UNL     1       5.254   7.186  17.923  0.00  0.00    +0.000 HD
BRANCH  18  20
ATOM     20  C   UNL     1       4.725   5.787  16.361  0.00  0.00    +0.000 C 
BRANCH  20  21
ATOM     21  C   UNL     1       4.816   4.299  16.700  0.00  0.00    +0.000 C 
BRANCH  21  22
ATOM     22  C   UNL     1       3.887   3.916  17.827  0.00  0.00    +0.000 A 
ATOM     23  C   UNL     1       2.527   4.258  17.781  0.00  0.00    +0.000 A 
ATOM     24  C   UNL     1       1.672   3.926  18.835  0.00  0.00    +0.000 A 
ATOM     25  C   UNL     1       2.170   3.252  19.947  0.00  0.00    +0.000 A 
ATOM     26 CL   UNL     1       1.119   2.849  21.248  0.00  0.00    +0.000 Cl
ATOM     27  C   UNL     1       3.518   2.906  20.012  0.00  0.00    +0.000 A 
ATOM     28  C   UNL     1       4.375   3.240  18.957  0.00  0.00    +0.000 A 
ENDBRANCH  21  22
ENDBRANCH  20  21
ENDBRANCH  18  20
ENDBRANCH   4  16
TORSDOF 5
ENDMDL
MODEL 6
REMARK VINA RESULT:      -7.9      5.653      7.972
REMARK  Name = 
REMARK  6 active torsions:
REMARK  status: ('A' for Active; 'I' for Inactive)
REMARK    1  A    between atoms: C_1  and  C_2
REMARK    2  A    between atoms: C_3  and  C_4
REMARK    3  A    between atoms: C_7  and  C_8
REMARK    4  A    between atoms: N_10  and  C_11
REMARK    5  A    between atoms: C_11  and  C_12
REMARK    6  A    between atoms: C_12  and  C_13
REMARK                            x       y       z     vdW  Elec       q    Type
REMARK                         _______ _______ _______ _____ _____    ______ ____
ROOT
ATOM      1  C   UNL     1       8.499   9.835  18.148  0.00  0.00    +0.000 A 
ATOM      2  N   UNL     1       9.033   9.110  19.141  0.00  0.00    +0.000 NA
ATOM      3  O   UNL     1       8.593   7.812  18.875  0.00  0.00    +0.000 OA
ATOM      4  C   UNL     1       7.846   7.883  17.738  0.00  0.00    +0.000 A 
ATOM      5  N   UNL     1       7.748   9.103  17.251  0.00  0.00    +0.000 NA
ENDROOT
BRANCH   1   8
ATOM      6  C   UNL     1      11.331  11.404  18.044  0.00  0.00    +0.000 C 
ATOM      7  C   UNL     1       9.957  11.969  17.993  0.00  0.00    +0.000 A 
ATOM      8  C   UNL     1       8.731  11.310  18.012  0.00  0.00    +0.000 A 
ATOM      9  O   UNL     1       7.716  12.226  17.899  0.00  0.00    +0.000 OA
ATOM     10  C   UNL     1       8.273  13.463  17.848  0.00  0.00    +0.000 A 
ATOM     11  C   UNL     1       7.577  14.667  17.755  0.00  0.00    +0.000 A 
ATOM     12  C   UNL     1       8.348  15.835  17.727  0.00  0.00    +0.000 A 
ATOM     13  C   UNL     1       9.742  15.782  17.786  0.00  0.00    +0.000 A 
ATOM     14  C   UNL     1      10.412  14.554  17.874  0.00  0.00    +0.000 A 
ATOM     15  C   UNL     1       9.655  13.366  17.907  0.00  0.00    +0.000 A 
ENDBRANCH   1   8
BRANCH   4  16
ATOM     16  C   UNL     1       7.280   6.672  17.177  0.00  0.00    +0.000 C 
ATOM     17  O   UNL     1       7.455   6.311  16.015  0.00  0.00    +0.000 OA
ATOM     18  N   UNL     1       6.493   5.929  18.052  0.00  0.00    +0.000 N 
ATOM     19  H   UNL     1       6.336   6.303  18.982  0.00  0.00    +0.000 HD
BRANCH  18  20
ATOM     20  C   UNL     1       5.795   4.741  17.588  0.00  0.00    +0.000 C 
BRANCH  20  21
ATOM     21  C   UNL     1       4.380   5.022  17.083  0.00  0.00    +0.000 C 
BRANCH  21  22
ATOM     22  C   UNL     1       3.560   5.793  18.092  0.00  0.00    +0.000 A 
ATOM     23  C   UNL     1       3.152   5.191  19.291  0.00  0.00    +0.000 A 
ATOM     24  C   UNL     1       2.374   5.894  20.214  0.00  0.00    +0.000 A 
ATOM     25  C   UNL     1       1.992   7.205  19.942  0.00  0.00    +0.000 A 
ATOM     26 CL   UNL     1       1.028   8.070  21.075  0.00  0.00    +0.000 Cl
ATOM     27  C   UNL     1       2.385   7.820  18.755  0.00  0.00    +0.000 A 
ATOM     28  C   UNL     1       3.164   7.114  17.831  0.00  0.00    +0.000 A 
ENDBRANCH  21  22
ENDBRANCH  20  21
ENDBRANCH  18  20
ENDBRANCH   4  16
TORSDOF 5
ENDMDL
MODEL 7
REMARK VINA RESULT:      -7.9      0.805      1.225
REMARK  Name = 
REMARK  6 active torsions:
REMARK  status: ('A' for Active; 'I' for Inactive)
REMARK    1  A    between atoms: C_1  and  C_2
REMARK    2  A    between atoms: C_3  and  C_4
REMARK    3  A    between atoms: C_7  and  C_8
REMARK    4  A    between atoms: N_10  and  C_11
REMARK    5  A    between atoms: C_11  and  C_12
REMARK    6  A    between atoms: C_12  and  C_13
REMARK                            x       y       z     vdW  Elec       q    Type
REMARK                         _______ _______ _______ _____ _____    ______ ____
ROOT
ATOM      1  C   UNL     1       4.749   4.917  17.858  0.00  0.00    +0.000 A 
ATOM      2  N   UNL     1       5.313   4.468  18.988  0.00  0.00    +0.000 NA
ATOM      3  O   UNL     1       4.366   4.766  19.971  0.00  0.00    +0.000 OA
ATOM      4  C   UNL     1       3.317   5.353  19.330  0.00  0.00    +0.000 A 
ATOM      5  N   UNL     1       3.501   5.478  18.031  0.00  0.00    +0.000 NA
ENDROOT
BRANCH   1   8
ATOM      6  C   UNL     1       7.392   6.449  16.780  0.00  0.00    +0.000 C 
ATOM      7  C   UNL     1       6.533   5.469  16.065  0.00  0.00    +0.000 A 
ATOM      8  C   UNL     1       5.410   4.783  16.520  0.00  0.00    +0.000 A 
ATOM      9  O   UNL     1       4.956   3.942  15.535  0.00  0.00    +0.000 OA
ATOM     10  C   UNL     1       5.749   4.108  14.445  0.00  0.00    +0.000 A 
ATOM     11  C   UNL     1       5.605   3.450  13.226  0.00  0.00    +0.000 A 
ATOM     12  C   UNL     1       6.527   3.778  12.225  0.00  0.00    +0.000 A 
ATOM     13  C   UNL     1       7.537   4.715  12.452  0.00  0.00    +0.000 A 
ATOM     14  C   UNL     1       7.657   5.356  13.693  0.00  0.00    +0.000 A 
ATOM     15  C   UNL     1       6.737   5.043  14.713  0.00  0.00    +0.000 A 
ENDBRANCH   1   8
BRANCH   4  16
ATOM     16  C   UNL     1       2.143   5.741  20.086  0.00  0.00    +0.000 C 
ATOM     17  O   UNL     1       1.213   4.978  20.343  0.00  0.00    +0.000 OA
ATOM     18  N   UNL     1       2.124   7.068  20.506  0.00  0.00    +0.000 N 
ATOM     19  H   UNL     1       2.890   7.666  20.217  0.00  0.00    +0.000 HD
BRANCH  18  20
ATOM     20  C   UNL     1       0.962   7.606  21.195  0.00  0.00    +0.000 C 
BRANCH  20  21
ATOM     21  C   UNL     1       1.253   8.893  21.968  0.00  0.00    +0.000 C 
BRANCH  21  22
ATOM     22  C   UNL     1       0.243   9.975  21.668  0.00  0.00    +0.000 A 
ATOM     23  C   UNL     1      -0.409  10.653  22.709  0.00  0.00    +0.000 A 
ATOM     24  C   UNL     1      -1.361  11.638  22.432  0.00  0.00    +0.000 A 
ATOM     25  C   UNL     1      -1.673  11.950  21.111  0.00  0.00    +0.000 A 
ATOM     26 CL   UNL     1      -2.850  13.157  20.771  0.00  0.00    +0.000 Cl
ATOM     27  C   UNL     1      -1.039  11.285  20.064  0.00  0.00    +0.000 A 
ATOM     28  C   UNL     1      -0.085  10.299  20.342  0.00  0.00    +0.000 A 
ENDBRANCH  21  22
ENDBRANCH  20  21
ENDBRANCH  18  20
ENDBRANCH   4  16
TORSDOF 5
ENDMDL
MODEL 8
REMARK VINA RESULT:      -7.9      6.617      9.141
REMARK  Name = 
REMARK  6 active torsions:
REMARK  status: ('A' for Active; 'I' for Inactive)
REMARK    1  A    between atoms: C_1  and  C_2
REMARK    2  A    between atoms: C_3  and  C_4
REMARK    3  A    between atoms: C_7  and  C_8
REMARK    4  A    between atoms: N_10  and  C_11
REMARK    5  A    between atoms: C_11  and  C_12
REMARK    6  A    between atoms: C_12  and  C_13
REMARK                            x       y       z     vdW  Elec       q    Type
REMARK                         _______ _______ _______ _____ _____    ______ ____
ROOT
ATOM      1  C   UNL     1       8.897  10.665  18.357  0.00  0.00    +0.000 A 
ATOM      2  N   UNL     1       9.377   9.977  19.403  0.00  0.00    +0.000 NA
ATOM      3  O   UNL     1       8.929   8.674  19.175  0.00  0.00    +0.000 OA
ATOM      4  C   UNL     1       8.234   8.704  18.004  0.00  0.00    +0.000 A 
ATOM      5  N   UNL     1       8.175   9.903  17.461  0.00  0.00    +0.000 NA
ENDROOT
BRANCH   1   8
ATOM      6  C   UNL     1      11.700  12.111  17.622  0.00  0.00    +0.000 C 
ATOM      7  C   UNL     1      10.375  12.734  17.875  0.00  0.00    +0.000 A 
ATOM      8  C   UNL     1       9.157  12.128  18.167  0.00  0.00    +0.000 A 
ATOM      9  O   UNL     1       8.182  13.088  18.279  0.00  0.00    +0.000 OA
ATOM     10  C   UNL     1       8.767  14.300  18.101  0.00  0.00    +0.000 A 
ATOM     11  C   UNL     1       8.120  15.533  18.160  0.00  0.00    +0.000 A 
ATOM     12  C   UNL     1       8.915  16.667  17.957  0.00  0.00    +0.000 A 
ATOM     13  C   UNL     1      10.283  16.554  17.706  0.00  0.00    +0.000 A 
ATOM     14  C   UNL     1      10.903  15.298  17.648  0.00  0.00    +0.000 A 
ATOM     15  C   UNL     1      10.122  14.143  17.852  0.00  0.00    +0.000 A 
ENDBRANCH   1   8
BRANCH   4  16
ATOM     16  C   UNL     1       7.675   7.477  17.472  0.00  0.00    +0.000 C 
ATOM     17  O   UNL     1       7.933   7.038  16.352  0.00  0.00    +0.000 OA
ATOM     18  N   UNL     1       6.795   6.813  18.322  0.00  0.00    +0.000 N 
ATOM     19  H   UNL     1       6.576   7.250  19.210  0.00  0.00    +0.000 HD
BRANCH  18  20
ATOM     20  C   UNL     1       6.098   5.619  17.873  0.00  0.00    +0.000 C 
BRANCH  20  21
ATOM     21  C   UNL     1       4.790   5.915  17.139  0.00  0.00    +0.000 C 
BRANCH  21  22
ATOM     22  C   UNL     1       3.688   4.960  17.536  0.00  0.00    +0.000 A 
ATOM     23  C   UNL     1       2.633   5.388  18.357  0.00  0.00    +0.000 A 
ATOM     24  C   UNL     1       1.627   4.500  18.745  0.00  0.00    +0.000 A 
ATOM     25  C   UNL     1       1.669   3.175  18.319  0.00  0.00    +0.000 A 
ATOM     26 CL   UNL     1       0.433   2.080  18.802  0.00  0.00    +0.000 Cl
ATOM     27  C   UNL     1       2.709   2.731  17.506  0.00  0.00    +0.000 A 
ATOM     28  C   UNL     1       3.718   3.621  17.118  0.00  0.00    +0.000 A 
ENDBRANCH  21  22
ENDBRANCH  20  21
ENDBRANCH  18  20
ENDBRANCH   4  16
TORSDOF 5
ENDMDL
MODEL 9
REMARK VINA RESULT:      -7.8      3.408      9.707
REMARK  Name = 
REMARK  6 active torsions:
REMARK  status: ('A' for Active; 'I' for Inactive)
REMARK    1  A    between atoms: C_1  and  C_2
REMARK    2  A    between atoms: C_3  and  C_4
REMARK    3  A    between atoms: C_7  and  C_8
REMARK    4  A    between atoms: N_10  and  C_11
REMARK    5  A    between atoms: C_11  and  C_12
REMARK    6  A    between atoms: C_12  and  C_13
REMARK                            x       y       z     vdW  Elec       q    Type
REMARK                         _______ _______ _______ _____ _____    ______ ____
ROOT
ATOM      1  C   UNL     1       1.497   8.923  19.700  0.00  0.00    +0.000 A 
ATOM      2  N   UNL     1       1.630   9.020  18.369  0.00  0.00    +0.000 NA
ATOM      3  O   UNL     1       2.219   7.806  18.007  0.00  0.00    +0.000 OA
ATOM      4  C   UNL     1       2.369   7.092  19.158  0.00  0.00    +0.000 A 
ATOM      5  N   UNL     1       1.949   7.732  20.230  0.00  0.00    +0.000 NA
ENDROOT
BRANCH   1   8
ATOM      6  C   UNL     1      -0.569   8.603  22.174  0.00  0.00    +0.000 C 
ATOM      7  C   UNL     1      -0.029   9.851  21.574  0.00  0.00    +0.000 A 
ATOM      8  C   UNL     1       0.876  10.007  20.529  0.00  0.00    +0.000 A 
ATOM      9  O   UNL     1       1.129  11.342  20.335  0.00  0.00    +0.000 OA
ATOM     10  C   UNL     1       0.368  12.042  21.215  0.00  0.00    +0.000 A 
ATOM     11  C   UNL     1       0.319  13.431  21.325  0.00  0.00    +0.000 A 
ATOM     12  C   UNL     1      -0.544  13.953  22.295  0.00  0.00    +0.000 A 
ATOM     13  C   UNL     1      -1.308  13.113  23.108  0.00  0.00    +0.000 A 
ATOM     14  C   UNL     1      -1.232  11.719  22.976  0.00  0.00    +0.000 A 
ATOM     15  C   UNL     1      -0.371  11.173  22.003  0.00  0.00    +0.000 A 
ENDBRANCH   1   8
BRANCH   4  16
ATOM     16  C   UNL     1       2.920   5.753  19.102  0.00  0.00    +0.000 C 
ATOM     17  O   UNL     1       3.380   5.161  20.077  0.00  0.00    +0.000 OA
ATOM     18  N   UNL     1       2.908   5.163  17.840  0.00  0.00    +0.000 N 
ATOM     19  H   UNL     1       2.569   5.718  17.062  0.00  0.00    +0.000 HD
BRANCH  18  20
ATOM     20  C   UNL     1       3.513   3.858  17.631  0.00  0.00    +0.000 C 
BRANCH  20  21
ATOM     21  C   UNL     1       4.758   3.896  16.744  0.00  0.00    +0.000 C 
BRANCH  21  22
ATOM     22  C   UNL     1       5.724   4.977  17.167  0.00  0.00    +0.000 A 
ATOM     23  C   UNL     1       6.554   4.797  18.284  0.00  0.00    +0.000 A 
ATOM     24  C   UNL     1       7.431   5.805  18.691  0.00  0.00    +0.000 A 
ATOM     25  C   UNL     1       7.482   7.006  17.988  0.00  0.00    +0.000 A 
ATOM     26 CL   UNL     1       8.556   8.251  18.494  0.00  0.00    +0.000 Cl
ATOM     27  C   UNL     1       6.663   7.206  16.879  0.00  0.00    +0.000 A 
ATOM     28  C   UNL     1       5.784   6.195  16.471  0.00  0.00    +0.000 A 
ENDBRANCH  21  22
ENDBRANCH  20  21
ENDBRANCH  18  20
ENDBRANCH   4  16
TORSDOF 5
ENDMDL
