MODEL 1
REMARK VINA RESULT:      -8.1      0.000      0.000
REMARK  Name = 
REMARK  6 active torsions:
REMARK  status: ('A' for Active; 'I' for Inactive)
REMARK    1  A    between atoms: C_1  and  C_2
REMARK    2  A    between atoms: C_2  and  N_3
REMARK    3  A    between atoms: C_4  and  C_6
REMARK    4  A    between atoms: C_9  and  C_10
REMARK    5  A    between atoms: C_15  and  C_16
REMARK    6  A    between atoms: C_16  and  N_17
REMARK                            x       y       z     vdW  Elec       q    Type
REMARK                         _______ _______ _______ _____ _____    ______ ____
ROOT
ATOM      1  C   UNL     1       3.540   3.973  19.370  0.00  0.00    +0.000 A 
ATOM      2  C   UNL     1       3.584   3.000  20.405  0.00  0.00    +0.000 A 
ATOM      3  C   UNL     1       2.469   2.648  21.178  0.00  0.00    +0.000 A 
ATOM      4  C   UNL     1       1.243   3.229  20.926  0.00  0.00    +0.000 A 
ATOM      5  C   UNL     1       1.150   4.189  19.932  0.00  0.00    +0.000 A 
ATOM      6  C   UNL     1       2.288   4.629  19.192  0.00  0.00    +0.000 A 
ENDROOT
BRANCH   1  10
ATOM      7  C   UNL     1       6.211   4.427  16.427  0.00  0.00    +0.000 A 
ATOM      8  C   UNL     1       6.840   4.834  17.585  0.00  0.00    +0.000 A 
ATOM      9  C   UNL     1       6.035   4.637  18.767  0.00  0.00    +0.000 A 
ATOM     10  C   UNL     1       4.764   4.156  18.500  0.00  0.00    +0.000 A 
ATOM     11  S   UNL     1       4.680   3.762  16.800  0.00  0.00    +0.000 S 
BRANCH   7  13
ATOM     12  N   UNL     1       6.172   3.623  14.156  0.00  0.00    +0.000 N 
ATOM     13  C   UNL     1       6.721   4.523  15.052  0.00  0.00    +0.000 C 
ATOM     14  O   UNL     1       7.556   5.352  14.701  0.00  0.00    +0.000 OA
ATOM     15  H   UNL     1       5.452   3.008  14.510  0.00  0.00    +0.000 HD
BRANCH  12  17
ATOM     16  C   UNL     1       5.217   3.219  11.927  0.00  0.00    +0.000 C 
ATOM     17  C   UNL     1       6.441   3.609  12.734  0.00  0.00    +0.000 C 
ENDBRANCH  12  17
ENDBRANCH   7  13
ENDBRANCH   1  10
BRANCH   6  18
ATOM     18  C   UNL     1       2.010   5.872  18.349  0.00  0.00    +0.000 C 
BRANCH  18  19
ATOM     19  N   UNL     1       2.651   7.088  18.882  0.00  0.00    +0.000 NA
ATOM     20  C   UNL     1       2.110   7.643  20.141  0.00  0.00    +0.000 C 
ATOM     21  C   UNL     1       0.937   8.618  19.981  0.00  0.00    +0.000 C 
ATOM     22  O   UNL     1       1.333   9.726  19.175  0.00  0.00    +0.000 OA
ATOM     23  C   UNL     1       1.741   9.297  17.876  0.00  0.00    +0.000 C 
ATOM     24  C   UNL     1       2.785   8.157  17.876  0.00  0.00    +0.000 C 
ENDBRANCH  18  19
ENDBRANCH   6  18
TORSDOF 5
ENDMDL
MODEL 2
REMARK VINA RESULT:      -7.3      2.442      6.418
REMARK  Name = 
REMARK  6 active torsions:
REMARK  status: ('A' for Active; 'I' for Inactive)
REMARK    1  A    between atoms: C_1  and  C_2
REMARK    2  A    between atoms: C_2  and  N_3
REMARK    3  A    between atoms: C_4  and  C_6
REMARK    4  A    between atoms: C_9  and  C_10
REMARK    5  A    between atoms: C_15  and  C_16
REMARK    6  A    between atoms: C_16  and  N_17
REMARK                            x       y       z     vdW  Elec       q    Type
REMARK                         _______ _______ _______ _____ _____    ______ ____
ROOT
ATOM      1  C   UNL     1       2.564   4.591  19.034  0.00  0.00    +0.000 A 
ATOM      2  C   UNL     1       1.464   3.766  18.677  0.00  0.00    +0.000 A 
ATOM      3  C   UNL     1       1.574   2.384  18.467  0.00  0.00    +0.000 A 
ATOM      4  C   UNL     1       2.790   1.754  18.643  0.00  0.00    +0.000 A 
ATOM      5  C   UNL     1       3.894   2.517  18.984  0.00  0.00    +0.000 A 
ATOM      6  C   UNL     1       3.827   3.936  19.115  0.00  0.00    +0.000 A 
ENDROOT
BRANCH   1  10
ATOM      7  C   UNL     1       1.813   8.519  19.116  0.00  0.00    +0.000 A 
ATOM      8  C   UNL     1       1.529   8.045  20.380  0.00  0.00    +0.000 A 
ATOM      9  C   UNL     1       1.847   6.647  20.546  0.00  0.00    +0.000 A 
ATOM     10  C   UNL     1       2.295   6.037  19.387  0.00  0.00    +0.000 A 
ATOM     11  S   UNL     1       2.509   7.275  18.172  0.00  0.00    +0.000 S 
BRANCH   7  13
ATOM     12  N   UNL     1       0.703  10.644  19.342  0.00  0.00    +0.000 N 
ATOM     13  C   UNL     1       1.574   9.872  18.595  0.00  0.00    +0.000 C 
ATOM     14  O   UNL     1       2.118  10.311  17.586  0.00  0.00    +0.000 OA
ATOM     15  H   UNL     1       0.336  10.231  20.188  0.00  0.00    +0.000 HD
BRANCH  12  17
ATOM     16  C   UNL     1      -0.959  12.220  18.445  0.00  0.00    +0.000 C 
ATOM     17  C   UNL     1       0.407  12.037  19.082  0.00  0.00    +0.000 C 
ENDBRANCH  12  17
ENDBRANCH   7  13
ENDBRANCH   1  10
BRANCH   6  18
ATOM     18  C   UNL     1       5.201   4.593  19.224  0.00  0.00    +0.000 C 
BRANCH  18  19
ATOM     19  N   UNL     1       6.003   4.465  17.994  0.00  0.00    +0.000 NA
ATOM     20  C   UNL     1       7.374   5.019  18.018  0.00  0.00    +0.000 C 
ATOM     21  C   UNL     1       7.492   6.504  17.657  0.00  0.00    +0.000 C 
ATOM     22  O   UNL     1       6.977   6.728  16.346  0.00  0.00    +0.000 OA
ATOM     23  C   UNL     1       5.602   6.352  16.263  0.00  0.00    +0.000 C 
ATOM     24  C   UNL     1       5.292   4.933  16.790  0.00  0.00    +0.000 C 
ENDBRANCH  18  19
ENDBRANCH   6  18
TORSDOF 5
ENDMDL
MODEL 3
REMARK VINA RESULT:      -7.2      2.568      6.915
REMARK  Name = 
REMARK  6 active torsions:
REMARK  status: ('A' for Active; 'I' for Inactive)
REMARK    1  A    between atoms: C_1  and  C_2
REMARK    2  A    between atoms: C_2  and  N_3
REMARK    3  A    between atoms: C_4  and  C_6
REMARK    4  A    between atoms: C_9  and  C_10
REMARK    5  A    between atoms: C_15  and  C_16
REMARK    6  A    between atoms: C_16  and  N_17
REMARK                            x       y       z     vdW  Elec       q    Type
REMARK                         _______ _______ _______ _____ _____    ______ ____
ROOT
ATOM      1  C   UNL     1       3.002   4.510  18.508  0.00  0.00    +0.000 A 
ATOM      2  C   UNL     1       2.122   3.549  17.940  0.00  0.00    +0.000 A 
ATOM      3  C   UNL     1       2.401   2.176  17.905  0.00  0.00    +0.000 A 
ATOM      4  C   UNL     1       3.563   1.693  18.475  0.00  0.00    +0.000 A 
ATOM      5  C   UNL     1       4.456   2.591  19.035  0.00  0.00    +0.000 A 
ATOM      6  C   UNL     1       4.237   4.000  19.002  0.00  0.00    +0.000 A 
ENDROOT
BRANCH   1  10
ATOM      7  C   UNL     1       1.720   8.117  19.667  0.00  0.00    +0.000 A 
ATOM      8  C   UNL     1       2.205   8.274  18.385  0.00  0.00    +0.000 A 
ATOM      9  C   UNL     1       2.618   7.030  17.780  0.00  0.00    +0.000 A 
ATOM     10  C   UNL     1       2.525   5.940  18.628  0.00  0.00    +0.000 A 
ATOM     11  S   UNL     1       1.723   6.461  20.092  0.00  0.00    +0.000 S 
BRANCH   7  13
ATOM     12  N   UNL     1       1.046   8.765  21.887  0.00  0.00    +0.000 N 
ATOM     13  C   UNL     1       1.258   9.170  20.581  0.00  0.00    +0.000 C 
ATOM     14  O   UNL     1       1.089  10.336  20.235  0.00  0.00    +0.000 OA
ATOM     15  H   UNL     1       1.257   7.801  22.105  0.00  0.00    +0.000 HD
BRANCH  12  17
ATOM     16  C   UNL     1      -0.804   9.811  23.123  0.00  0.00    +0.000 C 
ATOM     17  C   UNL     1       0.698   9.650  22.978  0.00  0.00    +0.000 C 
ENDBRANCH  12  17
ENDBRANCH   7  13
ENDBRANCH   1  10
BRANCH   6  18
ATOM     18  C   UNL     1       5.463   4.806  19.427  0.00  0.00    +0.000 C 
BRANCH  18  19
ATOM     19  N   UNL     1       6.614   4.629  18.523  0.00  0.00    +0.000 NA
ATOM     20  C   UNL     1       7.776   5.521  18.722  0.00  0.00    +0.000 C 
ATOM     21  C   UNL     1       7.709   6.865  17.988  0.00  0.00    +0.000 C 
ATOM     22  O   UNL     1       7.590   6.646  16.583  0.00  0.00    +0.000 OA
ATOM     23  C   UNL     1       6.408   5.907  16.277  0.00  0.00    +0.000 C 
ATOM     24  C   UNL     1       6.231   4.610  17.099  0.00  0.00    +0.000 C 
ENDBRANCH  18  19
ENDBRANCH   6  18
TORSDOF 5
ENDMDL
MODEL 4
REMARK VINA RESULT:      -7.2      1.240      1.822
REMARK  Name = 
REMARK  6 active torsions:
REMARK  status: ('A' for Active; 'I' for Inactive)
REMARK    1  A    between atoms: C_1  and  C_2
REMARK    2  A    between atoms: C_2  and  N_3
REMARK    3  A    between atoms: C_4  and  C_6
REMARK    4  A    between atoms: C_9  and  C_10
REMARK    5  A    between atoms: C_15  and  C_16
REMARK    6  A    between atoms: C_16  and  N_17
REMARK                            x       y       z     vdW  Elec       q    Type
REMARK                         _______ _______ _______ _____ _____    ______ ____
ROOT
ATOM      1  C   UNL     1       3.137   5.022  18.807  0.00  0.00    +0.000 A 
ATOM      2  C   UNL     1       2.944   3.631  19.026  0.00  0.00    +0.000 A 
ATOM      3  C   UNL     1       1.982   3.117  19.907  0.00  0.00    +0.000 A 
ATOM      4  C   UNL     1       1.139   3.975  20.585  0.00  0.00    +0.000 A 
ATOM      5  C   UNL     1       1.294   5.340  20.411  0.00  0.00    +0.000 A 
ATOM      6  C   UNL     1       2.322   5.890  19.589  0.00  0.00    +0.000 A 
ENDROOT
BRANCH   1  10
ATOM      7  C   UNL     1       5.629   5.335  15.694  0.00  0.00    +0.000 A 
ATOM      8  C   UNL     1       5.227   6.620  15.996  0.00  0.00    +0.000 A 
ATOM      9  C   UNL     1       4.394   6.690  17.173  0.00  0.00    +0.000 A 
ATOM     10  C   UNL     1       4.095   5.452  17.718  0.00  0.00    +0.000 A 
ATOM     11  S   UNL     1       5.036   4.247  16.871  0.00  0.00    +0.000 S 
BRANCH   7  13
ATOM     12  N   UNL     1       5.845   3.959  13.729  0.00  0.00    +0.000 N 
ATOM     13  C   UNL     1       6.441   4.901  14.549  0.00  0.00    +0.000 C 
ATOM     14  O   UNL     1       7.559   5.347  14.308  0.00  0.00    +0.000 OA
ATOM     15  H   UNL     1       4.903   3.680  13.964  0.00  0.00    +0.000 HD
BRANCH  12  17
ATOM     16  C   UNL     1       5.420   2.631  11.703  0.00  0.00    +0.000 C 
ATOM     17  C   UNL     1       6.410   3.472  12.489  0.00  0.00    +0.000 C 
ENDBRANCH  12  17
ENDBRANCH   7  13
ENDBRANCH   1  10
BRANCH   6  18
ATOM     18  C   UNL     1       2.479   7.400  19.756  0.00  0.00    +0.000 C 
BRANCH  18  19
ATOM     19  N   UNL     1       1.337   8.163  19.220  0.00  0.00    +0.000 NA
ATOM     20  C   UNL     1       1.539   8.876  17.941  0.00  0.00    +0.000 C 
ATOM     21  C   UNL     1       2.123  10.289  18.059  0.00  0.00    +0.000 C 
ATOM     22  O   UNL     1       1.266  11.103  18.857  0.00  0.00    +0.000 OA
ATOM     23  C   UNL     1       1.123  10.564  20.171  0.00  0.00    +0.000 C 
ATOM     24  C   UNL     1       0.732   9.069  20.213  0.00  0.00    +0.000 C 
ENDBRANCH  18  19
ENDBRANCH   6  18
TORSDOF 5
ENDMDL
MODEL 5
REMARK VINA RESULT:      -7.1      2.719      6.857
REMARK  Name = 
REMARK  6 active torsions:
REMARK  status: ('A' for Active; 'I' for Inactive)
REMARK    1  A    between atoms: C_1  and  C_2
REMARK    2  A    between atoms: C_2  and  N_3
REMARK    3  A    between atoms: C_4  and  C_6
REMARK    4  A    between atoms: C_9  and  C_10
REMARK    5  A    between atoms: C_15  and  C_16
REMARK    6  A    between atoms: C_16  and  N_17
REMARK                            x       y       z     vdW  Elec       q    Type
REMARK                         _______ _______ _______ _____ _____    ______ ____
ROOT
ATOM      1  C   UNL     1       2.779   4.510  18.727  0.00  0.00    +0.000 A 
ATOM      2  C   UNL     1       1.808   3.584  18.256  0.00  0.00    +0.000 A 
ATOM      3  C   UNL     1       2.043   2.205  18.160  0.00  0.00    +0.000 A 
ATOM      4  C   UNL     1       3.254   1.681  18.569  0.00  0.00    +0.000 A 
ATOM      5  C   UNL     1       4.234   2.544  19.028  0.00  0.00    +0.000 A 
ATOM      6  C   UNL     1       4.052   3.959  19.051  0.00  0.00    +0.000 A 
ENDROOT
BRANCH   1  10
ATOM      7  C   UNL     1       1.669   8.097  20.106  0.00  0.00    +0.000 A 
ATOM      8  C   UNL     1       2.120   8.301  18.818  0.00  0.00    +0.000 A 
ATOM      9  C   UNL     1       2.468   7.076  18.139  0.00  0.00    +0.000 A 
ATOM     10  C   UNL     1       2.359   5.948  18.934  0.00  0.00    +0.000 A 
ATOM     11  S   UNL     1       1.624   6.422  20.447  0.00  0.00    +0.000 S 
BRANCH   7  13
ATOM     12  N   UNL     1       0.846  10.317  20.547  0.00  0.00    +0.000 N 
ATOM     13  C   UNL     1       1.276   9.118  21.087  0.00  0.00    +0.000 C 
ATOM     14  O   UNL     1       1.299   8.930  22.300  0.00  0.00    +0.000 OA
ATOM     15  H   UNL     1       0.807  10.376  19.539  0.00  0.00    +0.000 HD
BRANCH  12  17
ATOM     16  C   UNL     1      -1.170  11.631  21.051  0.00  0.00    +0.000 C 
ATOM     17  C   UNL     1       0.309  11.420  21.315  0.00  0.00    +0.000 C 
ENDBRANCH  12  17
ENDBRANCH   7  13
ENDBRANCH   1  10
BRANCH   6  18
ATOM     18  C   UNL     1       5.343   4.725  19.332  0.00  0.00    +0.000 C 
BRANCH  18  19
ATOM     19  N   UNL     1       6.273   4.732  18.188  0.00  0.00    +0.000 NA
ATOM     20  C   UNL     1       7.607   5.330  18.403  0.00  0.00    +0.000 C 
ATOM     21  C   UNL     1       7.695   6.844  18.179  0.00  0.00    +0.000 C 
ATOM     22  O   UNL     1       7.309   7.161  16.843  0.00  0.00    +0.000 OA
ATOM     23  C   UNL     1       5.969   6.744  16.583  0.00  0.00    +0.000 C 
ATOM     24  C   UNL     1       5.669   5.275  16.957  0.00  0.00    +0.000 C 
ENDBRANCH  18  19
ENDBRANCH   6  18
TORSDOF 5
ENDMDL
MODEL 6
REMARK VINA RESULT:      -7.1      3.195      7.093
REMARK  Name = 
REMARK  6 active torsions:
REMARK  status: ('A' for Active; 'I' for Inactive)
REMARK    1  A    between atoms: C_1  and  C_2
REMARK    2  A    between atoms: C_2  and  N_3
REMARK    3  A    between atoms: C_4  and  C_6
REMARK    4  A    between atoms: C_9  and  C_10
REMARK    5  A    between atoms: C_15  and  C_16
REMARK    6  A    between atoms: C_16  and  N_17
REMARK                            x       y       z     vdW  Elec       q    Type
REMARK                         _______ _______ _______ _____ _____    ______ ____
ROOT
ATOM      1  C   UNL     1       3.917   6.561  17.773  0.00  0.00    +0.000 A 
ATOM      2  C   UNL     1       4.423   7.064  16.543  0.00  0.00    +0.000 A 
ATOM      3  C   UNL     1       5.222   6.309  15.673  0.00  0.00    +0.000 A 
ATOM      4  C   UNL     1       5.522   4.996  15.977  0.00  0.00    +0.000 A 
ATOM      5  C   UNL     1       5.058   4.462  17.167  0.00  0.00    +0.000 A 
ATOM      6  C   UNL     1       4.320   5.237  18.111  0.00  0.00    +0.000 A 
ENDROOT
BRANCH   1  10
ATOM      7  C   UNL     1       1.096   9.091  19.052  0.00  0.00    +0.000 A 
ATOM      8  C   UNL     1       1.349   8.233  20.103  0.00  0.00    +0.000 A 
ATOM      9  C   UNL     1       2.427   7.312  19.833  0.00  0.00    +0.000 A 
ATOM     10  C   UNL     1       2.939   7.413  18.551  0.00  0.00    +0.000 A 
ATOM     11  S   UNL     1       2.203   8.800  17.783  0.00  0.00    +0.000 S 
BRANCH   7  13
ATOM     12  N   UNL     1      -0.646  10.158  17.775  0.00  0.00    +0.000 N 
ATOM     13  C   UNL     1       0.048  10.118  18.972  0.00  0.00    +0.000 C 
ATOM     14  O   UNL     1      -0.223  10.878  19.897  0.00  0.00    +0.000 OA
ATOM     15  H   UNL     1      -0.400   9.465  17.082  0.00  0.00    +0.000 HD
BRANCH  12  17
ATOM     16  C   UNL     1      -3.101  10.277  17.718  0.00  0.00    +0.000 C 
ATOM     17  C   UNL     1      -1.787  11.008  17.513  0.00  0.00    +0.000 C 
ENDBRANCH  12  17
ENDBRANCH   7  13
ENDBRANCH   1  10
BRANCH   6  18
ATOM     18  C   UNL     1       4.148   4.537  19.457  0.00  0.00    +0.000 C 
BRANCH  18  19
ATOM     19  N   UNL     1       3.240   3.377  19.395  0.00  0.00    +0.000 NA
ATOM     20  C   UNL     1       1.823   3.642  19.067  0.00  0.00    +0.000 C 
ATOM     21  C   UNL     1       0.923   3.982  20.260  0.00  0.00    +0.000 C 
ATOM     22  O   UNL     1       0.937   2.910  21.201  0.00  0.00    +0.000 OA
ATOM     23  C   UNL     1       2.258   2.671  21.688  0.00  0.00    +0.000 C 
ATOM     24  C   UNL     1       3.329   2.511  20.584  0.00  0.00    +0.000 C 
ENDBRANCH  18  19
ENDBRANCH   6  18
TORSDOF 5
ENDMDL
MODEL 7
REMARK VINA RESULT:      -7.0      2.433      6.546
REMARK  Name = 
REMARK  6 active torsions:
REMARK  status: ('A' for Active; 'I' for Inactive)
REMARK    1  A    between atoms: C_1  and  C_2
REMARK    2  A    between atoms: C_2  and  N_3
REMARK    3  A    between atoms: C_4  and  C_6
REMARK    4  A    between atoms: C_9  and  C_10
REMARK    5  A    between atoms: C_15  and  C_16
REMARK    6  A    between atoms: C_16  and  N_17
REMARK                            x       y       z     vdW  Elec       q    Type
REMARK                         _______ _______ _______ _____ _____    ______ ____
ROOT
ATOM      1  C   UNL     1       2.128   5.179  20.006  0.00  0.00    +0.000 A 
ATOM      2  C   UNL     1       1.019   4.312  20.196  0.00  0.00    +0.000 A 
ATOM      3  C   UNL     1       1.138   2.918  20.284  0.00  0.00    +0.000 A 
ATOM      4  C   UNL     1       2.384   2.327  20.223  0.00  0.00    +0.000 A 
ATOM      5  C   UNL     1       3.496   3.130  20.032  0.00  0.00    +0.000 A 
ATOM      6  C   UNL     1       3.392   4.541  19.850  0.00  0.00    +0.000 A 
ENDROOT
BRANCH   1  10
ATOM      7  C   UNL     1       1.581   9.088  19.357  0.00  0.00    +0.000 A 
ATOM      8  C   UNL     1       1.125   8.842  20.636  0.00  0.00    +0.000 A 
ATOM      9  C   UNL     1       1.347   7.481  21.064  0.00  0.00    +0.000 A 
ATOM     10  C   UNL     1       1.896   6.672  20.084  0.00  0.00    +0.000 A 
ATOM     11  S   UNL     1       2.317   7.682  18.722  0.00  0.00    +0.000 S 
BRANCH   7  13
ATOM     12  N   UNL     1       0.870  11.388  19.272  0.00  0.00    +0.000 N 
ATOM     13  C   UNL     1       1.478  10.343  18.599  0.00  0.00    +0.000 C 
ATOM     14  O   UNL     1       1.914  10.479  17.460  0.00  0.00    +0.000 OA
ATOM     15  H   UNL     1       0.585  11.213  20.225  0.00  0.00    +0.000 HD
BRANCH  12  17
ATOM     16  C   UNL     1      -0.621  13.024  18.202  0.00  0.00    +0.000 C 
ATOM     17  C   UNL     1       0.759  12.739  18.765  0.00  0.00    +0.000 C 
ENDBRANCH  12  17
ENDBRANCH   7  13
ENDBRANCH   1  10
BRANCH   6  18
ATOM     18  C   UNL     1       4.698   5.183  19.387  0.00  0.00    +0.000 C 
BRANCH  18  19
ATOM     19  N   UNL     1       5.206   4.616  18.124  0.00  0.00    +0.000 NA
ATOM     20  C   UNL     1       6.664   4.677  17.892  0.00  0.00    +0.000 C 
ATOM     21  C   UNL     1       7.176   5.968  17.242  0.00  0.00    +0.000 C 
ATOM     22  O   UNL     1       6.546   6.158  15.976  0.00  0.00    +0.000 OA
ATOM     23  C   UNL     1       5.129   6.255  16.117  0.00  0.00    +0.000 C 
ATOM     24  C   UNL     1       4.485   5.115  16.938  0.00  0.00    +0.000 C 
ENDBRANCH  18  19
ENDBRANCH   6  18
TORSDOF 5
ENDMDL
MODEL 8
REMARK VINA RESULT:      -7.0      2.194      6.610
REMARK  Name = 
REMARK  6 active torsions:
REMARK  status: ('A' for Active; 'I' for Inactive)
REMARK    1  A    between atoms: C_1  and  C_2
REMARK    2  A    between atoms: C_2  and  N_3
REMARK    3  A    between atoms: C_4  and  C_6
REMARK    4  A    between atoms: C_9  and  C_10
REMARK    5  A    between atoms: C_15  and  C_16
REMARK    6  A    between atoms: C_16  and  N_17
REMARK                            x       y       z     vdW  Elec       q    Type
REMARK                         _______ _______ _______ _____ _____    ______ ____
ROOT
ATOM      1  C   UNL     1       2.413   4.611  19.087  0.00  0.00    +0.000 A 
ATOM      2  C   UNL     1       1.272   3.767  19.021  0.00  0.00    +0.000 A 
ATOM      3  C   UNL     1       1.351   2.377  18.856  0.00  0.00    +0.000 A 
ATOM      4  C   UNL     1       2.584   1.760  18.786  0.00  0.00    +0.000 A 
ATOM      5  C   UNL     1       3.726   2.541  18.838  0.00  0.00    +0.000 A 
ATOM      6  C   UNL     1       3.671   3.964  18.915  0.00  0.00    +0.000 A 
ENDROOT
BRANCH   1  10
ATOM      7  C   UNL     1       1.747   8.555  19.135  0.00  0.00    +0.000 A 
ATOM      8  C   UNL     1       1.591   8.122  20.435  0.00  0.00    +0.000 A 
ATOM      9  C   UNL     1       1.900   6.722  20.607  0.00  0.00    +0.000 A 
ATOM     10  C   UNL     1       2.210   6.072  19.425  0.00  0.00    +0.000 A 
ATOM     11  S   UNL     1       2.316   7.272  18.159  0.00  0.00    +0.000 S 
BRANCH   7  13
ATOM     12  N   UNL     1       0.504  10.613  19.276  0.00  0.00    +0.000 N 
ATOM     13  C   UNL     1       1.480   9.899  18.604  0.00  0.00    +0.000 C 
ATOM     14  O   UNL     1       2.084  10.378  17.649  0.00  0.00    +0.000 OA
ATOM     15  H   UNL     1       0.089  10.171  20.084  0.00  0.00    +0.000 HD
BRANCH  12  17
ATOM     16  C   UNL     1       0.377  12.887  20.203  0.00  0.00    +0.000 C 
ATOM     17  C   UNL     1       0.154  11.990  18.999  0.00  0.00    +0.000 C 
ENDBRANCH  12  17
ENDBRANCH   7  13
ENDBRANCH   1  10
BRANCH   6  18
ATOM     18  C   UNL     1       5.026   4.630  18.687  0.00  0.00    +0.000 C 
BRANCH  18  19
ATOM     19  N   UNL     1       5.110   5.347  17.402  0.00  0.00    +0.000 NA
ATOM     20  C   UNL     1       5.541   4.571  16.220  0.00  0.00    +0.000 C 
ATOM     21  C   UNL     1       7.056   4.490  16.001  0.00  0.00    +0.000 C 
ATOM     22  O   UNL     1       7.598   5.802  15.856  0.00  0.00    +0.000 OA
ATOM     23  C   UNL     1       7.353   6.590  17.021  0.00  0.00    +0.000 C 
ATOM     24  C   UNL     1       5.880   6.601  17.490  0.00  0.00    +0.000 C 
ENDBRANCH  18  19
ENDBRANCH   6  18
TORSDOF 5
ENDMDL
MODEL 9
REMARK VINA RESULT:      -7.0      2.352      4.264
REMARK  Name = 
REMARK  6 active torsions:
REMARK  status: ('A' for Active; 'I' for Inactive)
REMARK    1  A    between atoms: C_1  and  C_2
REMARK    2  A    between atoms: C_2  and  N_3
REMARK    3  A    between atoms: C_4  and  C_6
REMARK    4  A    between atoms: C_9  and  C_10
REMARK    5  A    between atoms: C_15  and  C_16
REMARK    6  A    between atoms: C_16  and  N_17
REMARK                            x       y       z     vdW  Elec       q    Type
REMARK                         _______ _______ _______ _____ _____    ______ ____
ROOT
ATOM      1  C   UNL     1       3.668   7.101  18.017  0.00  0.00    +0.000 A 
ATOM      2  C   UNL     1       3.163   8.330  17.515  0.00  0.00    +0.000 A 
ATOM      3  C   UNL     1       2.116   9.038  18.122  0.00  0.00    +0.000 A 
ATOM      4  C   UNL     1       1.549   8.564  19.288  0.00  0.00    +0.000 A 
ATOM      5  C   UNL     1       2.002   7.366  19.813  0.00  0.00    +0.000 A 
ATOM      6  C   UNL     1       3.003   6.583  19.165  0.00  0.00    +0.000 A 
ENDROOT
BRANCH   1  10
ATOM      7  C   UNL     1       6.451   5.560  15.591  0.00  0.00    +0.000 A 
ATOM      8  C   UNL     1       7.119   5.991  16.719  0.00  0.00    +0.000 A 
ATOM      9  C   UNL     1       6.234   6.488  17.746  0.00  0.00    +0.000 A 
ATOM     10  C   UNL     1       4.901   6.510  17.369  0.00  0.00    +0.000 A 
ATOM     11  S   UNL     1       4.763   5.714  15.820  0.00  0.00    +0.000 S 
BRANCH   7  13
ATOM     12  N   UNL     1       6.283   4.086  13.693  0.00  0.00    +0.000 N 
ATOM     13  C   UNL     1       7.040   5.041  14.349  0.00  0.00    +0.000 C 
ATOM     14  O   UNL     1       8.113   5.431  13.898  0.00  0.00    +0.000 OA
ATOM     15  H   UNL     1       5.387   3.855  14.100  0.00  0.00    +0.000 HD
BRANCH  12  17
ATOM     16  C   UNL     1       5.443   2.759  11.801  0.00  0.00    +0.000 C 
ATOM     17  C   UNL     1       6.611   3.519  12.403  0.00  0.00    +0.000 C 
ENDBRANCH  12  17
ENDBRANCH   7  13
ENDBRANCH   1  10
BRANCH   6  18
ATOM     18  C   UNL     1       3.152   5.186  19.765  0.00  0.00    +0.000 C 
BRANCH  18  19
ATOM     19  N   UNL     1       3.559   4.171  18.776  0.00  0.00    +0.000 NA
ATOM     20  C   UNL     1       2.489   3.358  18.160  0.00  0.00    +0.000 C 
ATOM     21  C   UNL     1       2.090   2.097  18.936  0.00  0.00    +0.000 C 
ATOM     22  O   UNL     1       3.222   1.244  19.092  0.00  0.00    +0.000 OA
ATOM     23  C   UNL     1       4.266   1.902  19.810  0.00  0.00    +0.000 C 
ATOM     24  C   UNL     1       4.643   3.297  19.260  0.00  0.00    +0.000 C 
ENDBRANCH  18  19
ENDBRANCH   6  18
TORSDOF 5
ENDMDL
