MODEL 1
REMARK VINA RESULT:      -8.7      0.000      0.000
REMARK  Name = 
REMARK  8 active torsions:
REMARK  status: ('A' for Active; 'I' for Inactive)
REMARK    1  A    between atoms: C_1  and  C_2
REMARK    2  A    between atoms: N_8  and  C_9
REMARK    3  A    between atoms: C_10  and  C_11
REMARK    4  A    between atoms: N_13  and  C_14
REMARK    5  A    between atoms: C_14  and  C_15
REMARK    6  A    between atoms: C_18  and  O_19
REMARK    7  A    between atoms: O_19  and  C_20
REMARK    8  A    between atoms: C_23  and  C_24
REMARK                            x       y       z     vdW  Elec       q    Type
REMARK                         _______ _______ _______ _____ _____    ______ ____
ROOT
ATOM      1  C   UNL     1       2.365   7.287  19.345  0.00  0.00    +0.000 A 
ATOM      2  C   UNL     1       2.390   7.943  18.102  0.00  0.00    +0.000 A 
ATOM      3  C   UNL     1       1.715   9.161  17.921  0.00  0.00    +0.000 A 
ATOM      4  C   UNL     1       1.002   9.729  18.977  0.00  0.00    +0.000 A 
ATOM      5  C   UNL     1       1.005   9.105  20.222  0.00  0.00    +0.000 A 
ATOM      6  C   UNL     1       1.662   7.886  20.401  0.00  0.00    +0.000 A 
ENDROOT
BRANCH   1   7
ATOM      7  C   UNL     1       3.094   5.987  19.576  0.00  0.00    +0.000 C 
BRANCH   7  10
ATOM      8  C   UNL     1       4.698   4.552  18.356  0.00  0.00    +0.000 C 
ATOM      9  O   UNL     1       4.314   3.533  18.925  0.00  0.00    +0.000 OA
ATOM     10  N   UNL     1       4.165   5.796  18.628  0.00  0.00    +0.000 N 
ATOM     11  H   UNL     1       4.691   6.610  18.338  0.00  0.00    +0.000 HD
BRANCH   8  21
ATOM     12  C   UNL     1       7.770   5.179  13.233  0.00  0.00    +0.000 C 
ATOM     13  C   UNL     1       7.008   4.146  14.043  0.00  0.00    +0.000 C 
ATOM     14  C   UNL     1       5.475   4.130  13.672  0.00  0.00    +0.000 C 
ATOM     15  C   UNL     1       4.695   3.835  14.993  0.00  0.00    +0.000 C 
ATOM     16  C   UNL     1       5.658   4.272  16.014  0.00  0.00    +0.000 A 
ATOM     17  C   UNL     1       6.938   4.425  15.494  0.00  0.00    +0.000 A 
ATOM     18  N   UNL     1       7.841   4.756  16.402  0.00  0.00    +0.000 NA
ATOM     19  N   UNL     1       7.094   4.819  17.548  0.00  0.00    +0.000 N 
ATOM     20  C   UNL     1       7.770   5.200  18.771  0.00  0.00    +0.000 C 
ATOM     21  C   UNL     1       5.743   4.563  17.358  0.00  0.00    +0.000 A 
ENDBRANCH   8  21
ENDBRANCH   7  10
ENDBRANCH   1   7
BRANCH   4  22
ATOM     22  O   UNL     1       0.376  10.932  18.711  0.00  0.00    +0.000 OA
BRANCH  22  23
ATOM     23  C   UNL     1      -0.993  10.970  18.558  0.00  0.00    +0.000 A 
ATOM     24  C   UNL     1      -1.664  11.970  19.266  0.00  0.00    +0.000 A 
ATOM     25  C   UNL     1      -3.054  12.089  19.165  0.00  0.00    +0.000 A 
ATOM     26  C   UNL     1      -3.786  11.214  18.348  0.00  0.00    +0.000 A 
ATOM     27  C   UNL     1      -3.102  10.220  17.635  0.00  0.00    +0.000 A 
ATOM     28  C   UNL     1      -1.714  10.123  17.714  0.00  0.00    +0.000 A 
BRANCH  26  29
ATOM     29  C   UNL     1      -5.280  11.343  18.199  0.00  0.00    +0.000 C 
ATOM     30  F   UNL     1      -5.825  12.313  18.984  0.00  0.00    +0.000 F 
ATOM     31  F   UNL     1      -5.644  11.649  16.922  0.00  0.00    +0.000 F 
ATOM     32  F   UNL     1      -5.939  10.194  18.510  0.00  0.00    +0.000 F 
ENDBRANCH  26  29
ENDBRANCH  22  23
ENDBRANCH   4  22
TORSDOF 6
ENDMDL
MODEL 2
REMARK VINA RESULT:      -8.7      0.499      1.045
REMARK  Name = 
REMARK  8 active torsions:
REMARK  status: ('A' for Active; 'I' for Inactive)
REMARK    1  A    between atoms: C_1  and  C_2
REMARK    2  A    between atoms: N_8  and  C_9
REMARK    3  A    between atoms: C_10  and  C_11
REMARK    4  A    between atoms: N_13  and  C_14
REMARK    5  A    between atoms: C_14  and  C_15
REMARK    6  A    between atoms: C_18  and  O_19
REMARK    7  A    between atoms: O_19  and  C_20
REMARK    8  A    between atoms: C_23  and  C_24
REMARK                            x       y       z     vdW  Elec       q    Type
REMARK                         _______ _______ _______ _____ _____    ______ ____
ROOT
ATOM      1  C   UNL     1       2.201   7.540  19.371  0.00  0.00    +0.000 A 
ATOM      2  C   UNL     1       1.476   8.194  20.381  0.00  0.00    +0.000 A 
ATOM      3  C   UNL     1       0.868   9.436  20.137  0.00  0.00    +0.000 A 
ATOM      4  C   UNL     1       0.988  10.039  18.884  0.00  0.00    +0.000 A 
ATOM      5  C   UNL     1       1.672   9.379  17.866  0.00  0.00    +0.000 A 
ATOM      6  C   UNL     1       2.291   8.151  18.112  0.00  0.00    +0.000 A 
ENDROOT
BRANCH   1   7
ATOM      7  C   UNL     1       2.851   6.197  19.597  0.00  0.00    +0.000 C 
BRANCH   7  10
ATOM      8  C   UNL     1       4.724   4.831  18.733  0.00  0.00    +0.000 C 
ATOM      9  O   UNL     1       4.556   3.956  19.580  0.00  0.00    +0.000 OA
ATOM     10  N   UNL     1       3.943   5.968  18.682  0.00  0.00    +0.000 N 
ATOM     11  H   UNL     1       4.291   6.757  18.153  0.00  0.00    +0.000 HD
BRANCH   8  21
ATOM     12  C   UNL     1       7.717   5.183  13.538  0.00  0.00    +0.000 C 
ATOM     13  C   UNL     1       6.934   4.205  14.394  0.00  0.00    +0.000 C 
ATOM     14  C   UNL     1       5.394   4.233  14.052  0.00  0.00    +0.000 C 
ATOM     15  C   UNL     1       4.630   4.009  15.395  0.00  0.00    +0.000 C 
ATOM     16  C   UNL     1       5.628   4.442  16.385  0.00  0.00    +0.000 A 
ATOM     17  C   UNL     1       6.902   4.531  15.837  0.00  0.00    +0.000 A 
ATOM     18  N   UNL     1       7.833   4.857  16.716  0.00  0.00    +0.000 NA
ATOM     19  N   UNL     1       7.111   4.984  17.874  0.00  0.00    +0.000 N 
ATOM     20  C   UNL     1       7.825   5.378  19.071  0.00  0.00    +0.000 C 
ATOM     21  C   UNL     1       5.749   4.772  17.717  0.00  0.00    +0.000 A 
ENDBRANCH   8  21
ENDBRANCH   7  10
ENDBRANCH   1   7
BRANCH   4  22
ATOM     22  O   UNL     1       0.350  11.256  18.731  0.00  0.00    +0.000 OA
BRANCH  22  23
ATOM     23  C   UNL     1      -1.024  11.300  18.640  0.00  0.00    +0.000 A 
ATOM     24  C   UNL     1      -1.669  12.198  19.494  0.00  0.00    +0.000 A 
ATOM     25  C   UNL     1      -3.061  12.316  19.466  0.00  0.00    +0.000 A 
ATOM     26  C   UNL     1      -3.823  11.542  18.577  0.00  0.00    +0.000 A 
ATOM     27  C   UNL     1      -3.166  10.652  17.718  0.00  0.00    +0.000 A 
ATOM     28  C   UNL     1      -1.776  10.558  17.727  0.00  0.00    +0.000 A 
BRANCH  26  29
ATOM     29  C   UNL     1      -5.323  11.676  18.506  0.00  0.00    +0.000 C 
ATOM     30  F   UNL     1      -5.957  11.326  19.660  0.00  0.00    +0.000 F 
ATOM     31  F   UNL     1      -5.714  12.953  18.238  0.00  0.00    +0.000 F 
ATOM     32  F   UNL     1      -5.872  10.905  17.528  0.00  0.00    +0.000 F 
ENDBRANCH  26  29
ENDBRANCH  22  23
ENDBRANCH   4  22
TORSDOF 6
ENDMDL
MODEL 3
REMARK VINA RESULT:      -8.7      0.400      1.100
REMARK  Name = 
REMARK  8 active torsions:
REMARK  status: ('A' for Active; 'I' for Inactive)
REMARK    1  A    between atoms: C_1  and  C_2
REMARK    2  A    between atoms: N_8  and  C_9
REMARK    3  A    between atoms: C_10  and  C_11
REMARK    4  A    between atoms: N_13  and  C_14
REMARK    5  A    between atoms: C_14  and  C_15
REMARK    6  A    between atoms: C_18  and  O_19
REMARK    7  A    between atoms: O_19  and  C_20
REMARK    8  A    between atoms: C_23  and  C_24
REMARK                            x       y       z     vdW  Elec       q    Type
REMARK                         _______ _______ _______ _____ _____    ______ ____
ROOT
ATOM      1  C   UNL     1       2.225   7.466  19.398  0.00  0.00    +0.000 A 
ATOM      2  C   UNL     1       2.314   8.137  18.167  0.00  0.00    +0.000 A 
ATOM      3  C   UNL     1       1.702   9.389  17.988  0.00  0.00    +0.000 A 
ATOM      4  C   UNL     1       0.989   9.975  19.035  0.00  0.00    +0.000 A 
ATOM      5  C   UNL     1       0.929   9.332  20.269  0.00  0.00    +0.000 A 
ATOM      6  C   UNL     1       1.523   8.081  20.444  0.00  0.00    +0.000 A 
ENDROOT
BRANCH   1   7
ATOM      7  C   UNL     1       2.886   6.128  19.626  0.00  0.00    +0.000 C 
BRANCH   7  10
ATOM      8  C   UNL     1       4.765   4.773  18.758  0.00  0.00    +0.000 C 
ATOM      9  O   UNL     1       4.621   3.910  19.621  0.00  0.00    +0.000 OA
ATOM     10  N   UNL     1       3.967   5.899  18.700  0.00  0.00    +0.000 N 
ATOM     11  H   UNL     1       4.296   6.683  18.152  0.00  0.00    +0.000 HD
BRANCH   8  21
ATOM     12  C   UNL     1       7.695   5.142  13.529  0.00  0.00    +0.000 C 
ATOM     13  C   UNL     1       6.909   4.166  14.384  0.00  0.00    +0.000 C 
ATOM     14  C   UNL     1       5.366   4.220  14.062  0.00  0.00    +0.000 C 
ATOM     15  C   UNL     1       4.615   3.991  15.413  0.00  0.00    +0.000 C 
ATOM     16  C   UNL     1       5.632   4.399  16.394  0.00  0.00    +0.000 A 
ATOM     17  C   UNL     1       6.900   4.475  15.831  0.00  0.00    +0.000 A 
ATOM     18  N   UNL     1       7.848   4.778  16.702  0.00  0.00    +0.000 NA
ATOM     19  N   UNL     1       7.142   4.902  17.870  0.00  0.00    +0.000 N 
ATOM     20  C   UNL     1       7.877   5.272  19.062  0.00  0.00    +0.000 C 
ATOM     21  C   UNL     1       5.775   4.712  17.728  0.00  0.00    +0.000 A 
ENDBRANCH   8  21
ENDBRANCH   7  10
ENDBRANCH   1   7
BRANCH   4  22
ATOM     22  O   UNL     1       0.427  11.210  18.772  0.00  0.00    +0.000 OA
BRANCH  22  23
ATOM     23  C   UNL     1      -0.944  11.341  18.729  0.00  0.00    +0.000 A 
ATOM     24  C   UNL     1      -1.610  10.544  17.796  0.00  0.00    +0.000 A 
ATOM     25  C   UNL     1      -3.002  10.605  17.687  0.00  0.00    +0.000 A 
ATOM     26  C   UNL     1      -3.744  11.460  18.517  0.00  0.00    +0.000 A 
ATOM     27  C   UNL     1      -3.067  12.249  19.456  0.00  0.00    +0.000 A 
ATOM     28  C   UNL     1      -1.682  12.163  19.583  0.00  0.00    +0.000 A 
BRANCH  26  29
ATOM     29  C   UNL     1      -5.248  11.520  18.440  0.00  0.00    +0.000 C 
ATOM     30  F   UNL     1      -5.712  12.289  17.416  0.00  0.00    +0.000 F 
ATOM     31  F   UNL     1      -5.803  10.288  18.262  0.00  0.00    +0.000 F 
ATOM     32  F   UNL     1      -5.811  12.023  19.572  0.00  0.00    +0.000 F 
ENDBRANCH  26  29
ENDBRANCH  22  23
ENDBRANCH   4  22
TORSDOF 6
ENDMDL
MODEL 4
REMARK VINA RESULT:      -8.7      0.826      1.351
REMARK  Name = 
REMARK  8 active torsions:
REMARK  status: ('A' for Active; 'I' for Inactive)
REMARK    1  A    between atoms: C_1  and  C_2
REMARK    2  A    between atoms: N_8  and  C_9
REMARK    3  A    between atoms: C_10  and  C_11
REMARK    4  A    between atoms: N_13  and  C_14
REMARK    5  A    between atoms: C_14  and  C_15
REMARK    6  A    between atoms: C_18  and  O_19
REMARK    7  A    between atoms: O_19  and  C_20
REMARK    8  A    between atoms: C_23  and  C_24
REMARK                            x       y       z     vdW  Elec       q    Type
REMARK                         _______ _______ _______ _____ _____    ______ ____
ROOT
ATOM      1  C   UNL     1       2.521   7.143  19.026  0.00  0.00    +0.000 A 
ATOM      2  C   UNL     1       1.828   7.535  20.184  0.00  0.00    +0.000 A 
ATOM      3  C   UNL     1       1.167   8.773  20.239  0.00  0.00    +0.000 A 
ATOM      4  C   UNL     1       1.199   9.633  19.140  0.00  0.00    +0.000 A 
ATOM      5  C   UNL     1       1.851   9.234  17.975  0.00  0.00    +0.000 A 
ATOM      6  C   UNL     1       2.523   8.011  17.924  0.00  0.00    +0.000 A 
ENDROOT
BRANCH   1   7
ATOM      7  C   UNL     1       3.227   5.813  18.931  0.00  0.00    +0.000 C 
BRANCH   7  10
ATOM      8  C   UNL     1       4.725   4.677  17.322  0.00  0.00    +0.000 C 
ATOM      9  O   UNL     1       4.291   3.564  17.611  0.00  0.00    +0.000 OA
ATOM     10  N   UNL     1       4.269   5.829  17.933  0.00  0.00    +0.000 N 
ATOM     11  H   UNL     1       4.836   6.662  17.855  0.00  0.00    +0.000 HD
BRANCH   8  21
ATOM     12  C   UNL     1       7.666   5.473  12.146  0.00  0.00    +0.000 C 
ATOM     13  C   UNL     1       7.296   4.396  13.149  0.00  0.00    +0.000 C 
ATOM     14  C   UNL     1       5.909   3.729  12.804  0.00  0.00    +0.000 C 
ATOM     15  C   UNL     1       5.211   3.407  14.164  0.00  0.00    +0.000 C 
ATOM     16  C   UNL     1       5.871   4.358  15.071  0.00  0.00    +0.000 A 
ATOM     17  C   UNL     1       7.031   4.888  14.519  0.00  0.00    +0.000 A 
ATOM     18  N   UNL     1       7.682   5.699  15.336  0.00  0.00    +0.000 NA
ATOM     19  N   UNL     1       6.892   5.682  16.455  0.00  0.00    +0.000 N 
ATOM     20  C   UNL     1       7.294   6.510  17.574  0.00  0.00    +0.000 C 
ATOM     21  C   UNL     1       5.751   4.902  16.332  0.00  0.00    +0.000 A 
ENDBRANCH   8  21
ENDBRANCH   7  10
ENDBRANCH   1   7
BRANCH   4  22
ATOM     22  O   UNL     1       0.514  10.825  19.279  0.00  0.00    +0.000 OA
BRANCH  22  23
ATOM     23  C   UNL     1      -0.799  10.909  18.870  0.00  0.00    +0.000 A 
ATOM     24  C   UNL     1      -1.590  11.852  19.532  0.00  0.00    +0.000 A 
ATOM     25  C   UNL     1      -2.933  12.013  19.179  0.00  0.00    +0.000 A 
ATOM     26  C   UNL     1      -3.497  11.237  18.154  0.00  0.00    +0.000 A 
ATOM     27  C   UNL     1      -2.693  10.301  17.491  0.00  0.00    +0.000 A 
ATOM     28  C   UNL     1      -1.346  10.165  17.825  0.00  0.00    +0.000 A 
BRANCH  26  29
ATOM     29  C   UNL     1      -4.934  11.416  17.734  0.00  0.00    +0.000 C 
ATOM     30  F   UNL     1      -5.779  10.496  18.277  0.00  0.00    +0.000 F 
ATOM     31  F   UNL     1      -5.427  12.634  18.093  0.00  0.00    +0.000 F 
ATOM     32  F   UNL     1      -5.100  11.328  16.386  0.00  0.00    +0.000 F 
ENDBRANCH  26  29
ENDBRANCH  22  23
ENDBRANCH   4  22
TORSDOF 6
ENDMDL
MODEL 5
REMARK VINA RESULT:      -8.6      0.649      1.493
REMARK  Name = 
REMARK  8 active torsions:
REMARK  status: ('A' for Active; 'I' for Inactive)
REMARK    1  A    between atoms: C_1  and  C_2
REMARK    2  A    between atoms: N_8  and  C_9
REMARK    3  A    between atoms: C_10  and  C_11
REMARK    4  A    between atoms: N_13  and  C_14
REMARK    5  A    between atoms: C_14  and  C_15
REMARK    6  A    between atoms: C_18  and  O_19
REMARK    7  A    between atoms: O_19  and  C_20
REMARK    8  A    between atoms: C_23  and  C_24
REMARK                            x       y       z     vdW  Elec       q    Type
REMARK                         _______ _______ _______ _____ _____    ______ ____
ROOT
ATOM      1  C   UNL     1       2.155   7.178  19.802  0.00  0.00    +0.000 A 
ATOM      2  C   UNL     1       1.456   7.686  20.911  0.00  0.00    +0.000 A 
ATOM      3  C   UNL     1       0.874   8.963  20.867  0.00  0.00    +0.000 A 
ATOM      4  C   UNL     1       0.992   9.746  19.718  0.00  0.00    +0.000 A 
ATOM      5  C   UNL     1       1.649   9.234  18.602  0.00  0.00    +0.000 A 
ATOM      6  C   UNL     1       2.243   7.971  18.649  0.00  0.00    +0.000 A 
ENDROOT
BRANCH   1   7
ATOM      7  C   UNL     1       2.777   5.803  19.813  0.00  0.00    +0.000 C 
BRANCH   7  10
ATOM      8  C   UNL     1       4.755   4.640  18.888  0.00  0.00    +0.000 C 
ATOM      9  O   UNL     1       4.676   3.727  19.706  0.00  0.00    +0.000 OA
ATOM     10  N   UNL     1       3.874   5.704  18.881  0.00  0.00    +0.000 N 
ATOM     11  H   UNL     1       4.143   6.538  18.376  0.00  0.00    +0.000 HD
BRANCH   8  21
ATOM     12  C   UNL     1       7.635   5.390  13.671  0.00  0.00    +0.000 C 
ATOM     13  C   UNL     1       6.972   4.320  14.519  0.00  0.00    +0.000 C 
ATOM     14  C   UNL     1       5.434   4.188  14.192  0.00  0.00    +0.000 C 
ATOM     15  C   UNL     1       4.713   3.862  15.538  0.00  0.00    +0.000 C 
ATOM     16  C   UNL     1       5.669   4.386  16.525  0.00  0.00    +0.000 A 
ATOM     17  C   UNL     1       6.920   4.620  15.967  0.00  0.00    +0.000 A 
ATOM     18  N   UNL     1       7.821   5.032  16.843  0.00  0.00    +0.000 NA
ATOM     19  N   UNL     1       7.102   5.062  18.009  0.00  0.00    +0.000 N 
ATOM     20  C   UNL     1       7.782   5.514  19.206  0.00  0.00    +0.000 C 
ATOM     21  C   UNL     1       5.768   4.708  17.861  0.00  0.00    +0.000 A 
ENDBRANCH   8  21
ENDBRANCH   7  10
ENDBRANCH   1   7
BRANCH   4  22
ATOM     22  O   UNL     1       0.380  10.985  19.761  0.00  0.00    +0.000 OA
BRANCH  22  23
ATOM     23  C   UNL     1      -0.896  11.134  19.262  0.00  0.00    +0.000 A 
ATOM     24  C   UNL     1      -1.273  10.237  18.260  0.00  0.00    +0.000 A 
ATOM     25  C   UNL     1      -2.553  10.308  17.701  0.00  0.00    +0.000 A 
ATOM     26  C   UNL     1      -3.470  11.274  18.143  0.00  0.00    +0.000 A 
ATOM     27  C   UNL     1      -3.084  12.162  19.155  0.00  0.00    +0.000 A 
ATOM     28  C   UNL     1      -1.819  12.069  19.732  0.00  0.00    +0.000 A 
BRANCH  26  29
ATOM     29  C   UNL     1      -4.865  11.349  17.578  0.00  0.00    +0.000 C 
ATOM     30  F   UNL     1      -5.712  10.413  18.088  0.00  0.00    +0.000 F 
ATOM     31  F   UNL     1      -5.453  12.554  17.817  0.00  0.00    +0.000 F 
ATOM     32  F   UNL     1      -4.893  11.182  16.227  0.00  0.00    +0.000 F 
ENDBRANCH  26  29
ENDBRANCH  22  23
ENDBRANCH   4  22
TORSDOF 6
ENDMDL
MODEL 6
REMARK VINA RESULT:      -8.5      0.919      1.522
REMARK  Name = 
REMARK  8 active torsions:
REMARK  status: ('A' for Active; 'I' for Inactive)
REMARK    1  A    between atoms: C_1  and  C_2
REMARK    2  A    between atoms: N_8  and  C_9
REMARK    3  A    between atoms: C_10  and  C_11
REMARK    4  A    between atoms: N_13  and  C_14
REMARK    5  A    between atoms: C_14  and  C_15
REMARK    6  A    between atoms: C_18  and  O_19
REMARK    7  A    between atoms: O_19  and  C_20
REMARK    8  A    between atoms: C_23  and  C_24
REMARK                            x       y       z     vdW  Elec       q    Type
REMARK                         _______ _______ _______ _____ _____    ______ ____
ROOT
ATOM      1  C   UNL     1       2.143   7.755  19.191  0.00  0.00    +0.000 A 
ATOM      2  C   UNL     1       1.432   8.277  20.285  0.00  0.00    +0.000 A 
ATOM      3  C   UNL     1       0.804   9.530  20.200  0.00  0.00    +0.000 A 
ATOM      4  C   UNL     1       0.889  10.276  19.024  0.00  0.00    +0.000 A 
ATOM      5  C   UNL     1       1.558   9.749  17.923  0.00  0.00    +0.000 A 
ATOM      6  C   UNL     1       2.198   8.510  18.010  0.00  0.00    +0.000 A 
ENDROOT
BRANCH   1   7
ATOM      7  C   UNL     1       2.814   6.405  19.246  0.00  0.00    +0.000 C 
BRANCH   7  10
ATOM      8  C   UNL     1       5.082   5.754  18.502  0.00  0.00    +0.000 C 
ATOM      9  O   UNL     1       5.418   5.406  19.632  0.00  0.00    +0.000 OA
ATOM     10  N   UNL     1       3.830   6.269  18.231  0.00  0.00    +0.000 N 
ATOM     11  H   UNL     1       3.706   6.778  17.365  0.00  0.00    +0.000 HD
BRANCH   8  21
ATOM     12  C   UNL     1       7.210   5.115  12.922  0.00  0.00    +0.000 C 
ATOM     13  C   UNL     1       6.972   4.331  14.200  0.00  0.00    +0.000 C 
ATOM     14  C   UNL     1       5.531   3.690  14.230  0.00  0.00    +0.000 C 
ATOM     15  C   UNL     1       5.044   3.744  15.713  0.00  0.00    +0.000 C 
ATOM     16  C   UNL     1       5.860   4.840  16.257  0.00  0.00    +0.000 A 
ATOM     17  C   UNL     1       6.934   5.150  15.432  0.00  0.00    +0.000 A 
ATOM     18  N   UNL     1       7.724   6.089  15.924  0.00  0.00    +0.000 NA
ATOM     19  N   UNL     1       7.116   6.388  17.115  0.00  0.00    +0.000 N 
ATOM     20  C   UNL     1       7.706   7.431  17.929  0.00  0.00    +0.000 C 
ATOM     21  C   UNL     1       5.950   5.673  17.351  0.00  0.00    +0.000 A 
ENDBRANCH   8  21
ENDBRANCH   7  10
ENDBRANCH   1   7
BRANCH   4  22
ATOM     22  O   UNL     1       0.233  11.493  19.027  0.00  0.00    +0.000 OA
BRANCH  22  23
ATOM     23  C   UNL     1      -1.137  11.531  18.887  0.00  0.00    +0.000 A 
ATOM     24  C   UNL     1      -1.671  10.769  17.844  0.00  0.00    +0.000 A 
ATOM     25  C   UNL     1      -3.052  10.741  17.632  0.00  0.00    +0.000 A 
ATOM     26  C   UNL     1      -3.915  11.469  18.466  0.00  0.00    +0.000 A 
ATOM     27  C   UNL     1      -3.370  12.222  19.514  0.00  0.00    +0.000 A 
ATOM     28  C   UNL     1      -1.995  12.223  19.742  0.00  0.00    +0.000 A 
BRANCH  26  29
ATOM     29  C   UNL     1      -5.410  11.428  18.276  0.00  0.00    +0.000 C 
ATOM     30  F   UNL     1      -6.084  12.311  19.064  0.00  0.00    +0.000 F 
ATOM     31  F   UNL     1      -5.774  11.718  16.996  0.00  0.00    +0.000 F 
ATOM     32  F   UNL     1      -5.939  10.204  18.547  0.00  0.00    +0.000 F 
ENDBRANCH  26  29
ENDBRANCH  22  23
ENDBRANCH   4  22
TORSDOF 6
ENDMDL
MODEL 7
REMARK VINA RESULT:      -8.5      1.870      2.838
REMARK  Name = 
REMARK  8 active torsions:
REMARK  status: ('A' for Active; 'I' for Inactive)
REMARK    1  A    between atoms: C_1  and  C_2
REMARK    2  A    between atoms: N_8  and  C_9
REMARK    3  A    between atoms: C_10  and  C_11
REMARK    4  A    between atoms: N_13  and  C_14
REMARK    5  A    between atoms: C_14  and  C_15
REMARK    6  A    between atoms: C_18  and  O_19
REMARK    7  A    between atoms: O_19  and  C_20
REMARK    8  A    between atoms: C_23  and  C_24
REMARK                            x       y       z     vdW  Elec       q    Type
REMARK                         _______ _______ _______ _____ _____    ______ ____
ROOT
ATOM      1  C   UNL     1       1.075   8.692  20.376  0.00  0.00    +0.000 A 
ATOM      2  C   UNL     1       0.060   9.388  21.054  0.00  0.00    +0.000 A 
ATOM      3  C   UNL     1      -0.630  10.439  20.427  0.00  0.00    +0.000 A 
ATOM      4  C   UNL     1      -0.304  10.808  19.121  0.00  0.00    +0.000 A 
ATOM      5  C   UNL     1       0.674  10.097  18.430  0.00  0.00    +0.000 A 
ATOM      6  C   UNL     1       1.372   9.063  19.057  0.00  0.00    +0.000 A 
ENDROOT
BRANCH   1   7
ATOM      7  C   UNL     1       1.823   7.548  21.017  0.00  0.00    +0.000 C 
BRANCH   7  10
ATOM      8  C   UNL     1       2.255   5.462  19.761  0.00  0.00    +0.000 C 
ATOM      9  O   UNL     1       1.354   4.856  20.337  0.00  0.00    +0.000 OA
ATOM     10  N   UNL     1       2.560   6.778  20.045  0.00  0.00    +0.000 N 
ATOM     11  H   UNL     1       3.459   7.131  19.745  0.00  0.00    +0.000 HD
BRANCH   8  21
ATOM     12  C   UNL     1       6.639   4.414  15.790  0.00  0.00    +0.000 C 
ATOM     13  C   UNL     1       5.243   5.001  15.892  0.00  0.00    +0.000 C 
ATOM     14  C   UNL     1       5.282   6.539  16.240  0.00  0.00    +0.000 C 
ATOM     15  C   UNL     1       4.058   6.823  17.168  0.00  0.00    +0.000 C 
ATOM     16  C   UNL     1       3.796   5.491  17.733  0.00  0.00    +0.000 A 
ATOM     17  C   UNL     1       4.433   4.485  17.017  0.00  0.00    +0.000 A 
ATOM     18  N   UNL     1       4.165   3.269  17.462  0.00  0.00    +0.000 NA
ATOM     19  N   UNL     1       3.321   3.521  18.512  0.00  0.00    +0.000 N 
ATOM     20  C   UNL     1       2.841   2.388  19.276  0.00  0.00    +0.000 C 
ATOM     21  C   UNL     1       3.089   4.870  18.741  0.00  0.00    +0.000 A 
ENDBRANCH   8  21
ENDBRANCH   7  10
ENDBRANCH   1   7
BRANCH   4  22
ATOM     22  O   UNL     1      -1.040  11.845  18.581  0.00  0.00    +0.000 OA
BRANCH  22  23
ATOM     23  C   UNL     1      -2.408  11.727  18.470  0.00  0.00    +0.000 A 
ATOM     24  C   UNL     1      -3.162  12.328  19.481  0.00  0.00    +0.000 A 
ATOM     25  C   UNL     1      -4.558  12.265  19.448  0.00  0.00    +0.000 A 
ATOM     26  C   UNL     1      -5.216  11.607  18.397  0.00  0.00    +0.000 A 
ATOM     27  C   UNL     1      -4.451  11.015  17.383  0.00  0.00    +0.000 A 
ATOM     28  C   UNL     1      -3.060  11.106  17.404  0.00  0.00    +0.000 A 
BRANCH  26  29
ATOM     29  C   UNL     1      -6.720  11.554  18.322  0.00  0.00    +0.000 C 
ATOM     30  F   UNL     1      -7.231  12.131  17.200  0.00  0.00    +0.000 F 
ATOM     31  F   UNL     1      -7.191  10.276  18.332  0.00  0.00    +0.000 F 
ATOM     32  F   UNL     1      -7.319  12.181  19.372  0.00  0.00    +0.000 F 
ENDBRANCH  26  29
ENDBRANCH  22  23
ENDBRANCH   4  22
TORSDOF 6
ENDMDL
MODEL 8
REMARK VINA RESULT:      -8.5      1.827      2.801
REMARK  Name = 
REMARK  8 active torsions:
REMARK  status: ('A' for Active; 'I' for Inactive)
REMARK    1  A    between atoms: C_1  and  C_2
REMARK    2  A    between atoms: N_8  and  C_9
REMARK    3  A    between atoms: C_10  and  C_11
REMARK    4  A    between atoms: N_13  and  C_14
REMARK    5  A    between atoms: C_14  and  C_15
REMARK    6  A    between atoms: C_18  and  O_19
REMARK    7  A    between atoms: O_19  and  C_20
REMARK    8  A    between atoms: C_23  and  C_24
REMARK                            x       y       z     vdW  Elec       q    Type
REMARK                         _______ _______ _______ _____ _____    ______ ____
ROOT
ATOM      1  C   UNL     1       1.150   8.555  20.419  0.00  0.00    +0.000 A 
ATOM      2  C   UNL     1       1.352   8.986  19.097  0.00  0.00    +0.000 A 
ATOM      3  C   UNL     1       0.611  10.057  18.571  0.00  0.00    +0.000 A 
ATOM      4  C   UNL     1      -0.343  10.700  19.360  0.00  0.00    +0.000 A 
ATOM      5  C   UNL     1      -0.521  10.304  20.683  0.00  0.00    +0.000 A 
ATOM      6  C   UNL     1       0.202   9.229  21.202  0.00  0.00    +0.000 A 
ENDROOT
BRANCH   1   7
ATOM      7  C   UNL     1       1.942   7.419  21.017  0.00  0.00    +0.000 C 
BRANCH   7  10
ATOM      8  C   UNL     1       2.331   5.381  19.669  0.00  0.00    +0.000 C 
ATOM      9  O   UNL     1       1.420   4.769  20.221  0.00  0.00    +0.000 OA
ATOM     10  N   UNL     1       2.662   6.677  20.011  0.00  0.00    +0.000 N 
ATOM     11  H   UNL     1       3.567   7.026  19.723  0.00  0.00    +0.000 HD
BRANCH   8  21
ATOM     12  C   UNL     1       6.659   4.447  15.611  0.00  0.00    +0.000 C 
ATOM     13  C   UNL     1       5.266   5.032  15.749  0.00  0.00    +0.000 C 
ATOM     14  C   UNL     1       5.311   6.559  16.140  0.00  0.00    +0.000 C 
ATOM     15  C   UNL     1       4.100   6.817  17.093  0.00  0.00    +0.000 C 
ATOM     16  C   UNL     1       3.844   5.469  17.623  0.00  0.00    +0.000 A 
ATOM     17  C   UNL     1       4.470   4.483  16.870  0.00  0.00    +0.000 A 
ATOM     18  N   UNL     1       4.208   3.255  17.283  0.00  0.00    +0.000 NA
ATOM     19  N   UNL     1       3.378   3.477  18.350  0.00  0.00    +0.000 N 
ATOM     20  C   UNL     1       2.908   2.322  19.088  0.00  0.00    +0.000 C 
ATOM     21  C   UNL     1       3.150   4.819  18.621  0.00  0.00    +0.000 A 
ENDBRANCH   8  21
ENDBRANCH   7  10
ENDBRANCH   1   7
BRANCH   4  22
ATOM     22  O   UNL     1      -1.018  11.749  18.764  0.00  0.00    +0.000 OA
BRANCH  22  23
ATOM     23  C   UNL     1      -2.395  11.734  18.715  0.00  0.00    +0.000 A 
ATOM     24  C   UNL     1      -2.967  10.956  17.705  0.00  0.00    +0.000 A 
ATOM     25  C   UNL     1      -4.357  10.876  17.583  0.00  0.00    +0.000 A 
ATOM     26  C   UNL     1      -5.191  11.567  18.476  0.00  0.00    +0.000 A 
ATOM     27  C   UNL     1      -4.607  12.337  19.490  0.00  0.00    +0.000 A 
ATOM     28  C   UNL     1      -3.222  12.390  19.628  0.00  0.00    +0.000 A 
BRANCH  26  29
ATOM     29  C   UNL     1      -6.692  11.469  18.384  0.00  0.00    +0.000 C 
ATOM     30  F   UNL     1      -7.158  10.190  18.393  0.00  0.00    +0.000 F 
ATOM     31  F   UNL     1      -7.313  12.099  19.421  0.00  0.00    +0.000 F 
ATOM     32  F   UNL     1      -7.186  12.040  17.252  0.00  0.00    +0.000 F 
ENDBRANCH  26  29
ENDBRANCH  22  23
ENDBRANCH   4  22
TORSDOF 6
ENDMDL
MODEL 9
REMARK VINA RESULT:      -8.5      1.988      3.119
REMARK  Name = 
REMARK  8 active torsions:
REMARK  status: ('A' for Active; 'I' for Inactive)
REMARK    1  A    between atoms: C_1  and  C_2
REMARK    2  A    between atoms: N_8  and  C_9
REMARK    3  A    between atoms: C_10  and  C_11
REMARK    4  A    between atoms: N_13  and  C_14
REMARK    5  A    between atoms: C_14  and  C_15
REMARK    6  A    between atoms: C_18  and  O_19
REMARK    7  A    between atoms: O_19  and  C_20
REMARK    8  A    between atoms: C_23  and  C_24
REMARK                            x       y       z     vdW  Elec       q    Type
REMARK                         _______ _______ _______ _____ _____    ______ ____
ROOT
ATOM      1  C   UNL     1       0.991   8.849  20.531  0.00  0.00    +0.000 A 
ATOM      2  C   UNL     1       0.057   9.497  21.357  0.00  0.00    +0.000 A 
ATOM      3  C   UNL     1      -0.675  10.598  20.884  0.00  0.00    +0.000 A 
ATOM      4  C   UNL     1      -0.473  11.065  19.584  0.00  0.00    +0.000 A 
ATOM      5  C   UNL     1       0.422  10.404  18.748  0.00  0.00    +0.000 A 
ATOM      6  C   UNL     1       1.163   9.319  19.222  0.00  0.00    +0.000 A 
ENDROOT
BRANCH   1   7
ATOM      7  C   UNL     1       1.780   7.653  21.006  0.00  0.00    +0.000 C 
BRANCH   7  10
ATOM      8  C   UNL     1       2.532   5.523  19.996  0.00  0.00    +0.000 C 
ATOM      9  O   UNL     1       2.337   4.893  21.032  0.00  0.00    +0.000 OA
ATOM     10  N   UNL     1       2.300   6.881  19.903  0.00  0.00    +0.000 N 
ATOM     11  H   UNL     1       2.724   7.382  19.133  0.00  0.00    +0.000 HD
BRANCH   8  21
ATOM     12  C   UNL     1       6.037   3.776  15.442  0.00  0.00    +0.000 C 
ATOM     13  C   UNL     1       5.053   4.862  15.834  0.00  0.00    +0.000 C 
ATOM     14  C   UNL     1       5.773   6.073  16.543  0.00  0.00    +0.000 C 
ATOM     15  C   UNL     1       4.793   6.602  17.639  0.00  0.00    +0.000 C 
ATOM     16  C   UNL     1       3.952   5.420  17.884  0.00  0.00    +0.000 A 
ATOM     17  C   UNL     1       4.080   4.470  16.879  0.00  0.00    +0.000 A 
ATOM     18  N   UNL     1       3.289   3.423  17.037  0.00  0.00    +0.000 NA
ATOM     19  N   UNL     1       2.632   3.726  18.201  0.00  0.00    +0.000 N 
ATOM     20  C   UNL     1       1.683   2.757  18.710  0.00  0.00    +0.000 C 
ATOM     21  C   UNL     1       3.027   4.925  18.778  0.00  0.00    +0.000 A 
ENDBRANCH   8  21
ENDBRANCH   7  10
ENDBRANCH   1   7
BRANCH   4  22
ATOM     22  O   UNL     1      -1.243  12.147  19.201  0.00  0.00    +0.000 OA
BRANCH  22  23
ATOM     23  C   UNL     1      -2.609  12.007  19.089  0.00  0.00    +0.000 A 
ATOM     24  C   UNL     1      -3.059  11.131  18.098  0.00  0.00    +0.000 A 
ATOM     25  C   UNL     1      -4.429  10.921  17.917  0.00  0.00    +0.000 A 
ATOM     26  C   UNL     1      -5.364  11.580  18.730  0.00  0.00    +0.000 A 
ATOM     27  C   UNL     1      -4.902  12.450  19.726  0.00  0.00    +0.000 A 
ATOM     28  C   UNL     1      -3.535  12.634  19.925  0.00  0.00    +0.000 A 
BRANCH  26  29
ATOM     29  C   UNL     1      -6.845  11.345  18.574  0.00  0.00    +0.000 C 
ATOM     30  F   UNL     1      -7.578  11.757  19.646  0.00  0.00    +0.000 F 
ATOM     31  F   UNL     1      -7.359  12.000  17.496  0.00  0.00    +0.000 F 
ATOM     32  F   UNL     1      -7.150  10.031  18.394  0.00  0.00    +0.000 F 
ENDBRANCH  26  29
ENDBRANCH  22  23
ENDBRANCH   4  22
TORSDOF 6
ENDMDL
