MODEL 1
REMARK VINA RESULT:      -8.5      0.000      0.000
REMARK  Name = 
REMARK  13 active torsions:
REMARK  status: ('A' for Active; 'I' for Inactive)
REMARK    1  A    between atoms: C_1  and  C_2
REMARK    2  A    between atoms: C_2  and  C_3
REMARK    3  A    between atoms: C_3  and  C_4
REMARK    4  A    between atoms: C_3  and  C_6
REMARK    5  A    between atoms: C_3  and  C_26
REMARK    6  A    between atoms: C_4  and  C_5
REMARK    7  A    between atoms: C_6  and  N_7
REMARK    8  A    between atoms: C_8  and  C_10
REMARK    9  A    between atoms: N_13  and  C_14
REMARK   10  A    between atoms: C_14  and  C_15
REMARK   11  A    between atoms: C_15  and  C_16
REMARK   12  A    between atoms: C_20  and  O_21
REMARK   13  A    between atoms: O_21  and  C_22
REMARK                            x       y       z     vdW  Elec       q    Type
REMARK                         _______ _______ _______ _____ _____    ______ ____
ROOT
ATOM      1  N   UNL     1       4.511   5.337  18.623  0.00  0.00    +0.000 N 
ATOM      2  C   UNL     1       5.472   4.352  18.548  0.00  0.00    +0.000 C 
ATOM      3  O   UNL     1       5.617   3.510  19.423  0.00  0.00    +0.000 OA
ATOM      4  H   UNL     1       4.303   5.897  17.805  0.00  0.00    +0.000 HD
ENDROOT
BRANCH   2   5
ATOM      5  C   UNL     1       6.319   4.399  17.278  0.00  0.00    +0.000 C 
ATOM      6  C   UNL     1       7.773   4.729  17.606  0.00  0.00    +0.000 C 
ATOM      7  C   UNL     1       7.937   6.176  18.064  0.00  0.00    +0.000 C 
ATOM      8  N   UNL     1       7.395   7.135  17.086  0.00  0.00    +0.000 NA
ATOM      9  C   UNL     1       5.975   6.860  16.807  0.00  0.00    +0.000 C 
ATOM     10  C   UNL     1       5.776   5.433  16.287  0.00  0.00    +0.000 C 
BRANCH   8  11
ATOM     11  C   UNL     1       7.546   8.520  17.583  0.00  0.00    +0.000 C 
BRANCH  11  12
ATOM     12  C   UNL     1       8.582   8.639  18.714  0.00  0.00    +0.000 C 
BRANCH  12  13
ATOM     13  C   UNL     1       9.028  10.062  18.916  0.00  0.00    +0.000 A 
ATOM     14  C   UNL     1       9.167  10.922  17.821  0.00  0.00    +0.000 A 
ATOM     15  C   UNL     1       9.595  12.233  18.014  0.00  0.00    +0.000 A 
ATOM     16  C   UNL     1       9.890  12.684  19.301  0.00  0.00    +0.000 A 
ATOM     17  C   UNL     1       9.759  11.833  20.402  0.00  0.00    +0.000 A 
ATOM     18  C   UNL     1       9.328  10.523  20.204  0.00  0.00    +0.000 A 
BRANCH  17  19
ATOM     19  O   UNL     1      10.083  12.390  21.609  0.00  0.00    +0.000 OA
ATOM     20  C   UNL     1       8.995  12.842  22.409  0.00  0.00    +0.000 C 
ENDBRANCH  17  19
ENDBRANCH  12  13
ENDBRANCH  11  12
ENDBRANCH   8  11
ENDBRANCH   2   5
BRANCH   1  21
ATOM     21  C   UNL     1       3.622   5.443  19.766  0.00  0.00    +0.000 C 
BRANCH  21  22
ATOM     22  C   UNL     1       2.104   5.604  19.414  0.00  0.00    +0.000 C 
BRANCH  22  23
ATOM     23  C   UNL     1       1.789   7.133  19.424  0.00  0.00    +0.000 A 
ATOM     24  C   UNL     1       1.371   7.801  20.593  0.00  0.00    +0.000 A 
ATOM     25  C   UNL     1       1.099   9.173  20.592  0.00  0.00    +0.000 A 
ATOM     26  C   UNL     1       1.256   9.903  19.425  0.00  0.00    +0.000 A 
ATOM     27  F   UNL     1       0.996  11.217  19.425  0.00  0.00    +0.000 F 
ATOM     28  C   UNL     1       1.687   9.291  18.262  0.00  0.00    +0.000 A 
ATOM     29  C   UNL     1       1.958   7.920  18.264  0.00  0.00    +0.000 A 
ENDBRANCH  22  23
BRANCH  22  31
ATOM     30  C   UNL     1       1.785   3.424  17.979  0.00  0.00    +0.000 C 
ATOM     31  C   UNL     1       1.818   4.949  18.018  0.00  0.00    +0.000 C 
ENDBRANCH  22  31
BRANCH  22  32
ATOM     32  C   UNL     1       1.275   4.854  20.520  0.00  0.00    +0.000 C 
ATOM     33  C   UNL     1       2.032   3.857  21.394  0.00  0.00    +0.000 C 
ENDBRANCH  22  32
ENDBRANCH  21  22
ENDBRANCH   1  21
TORSDOF 10
ENDMDL
MODEL 2
REMARK VINA RESULT:      -8.5      0.995      1.707
REMARK  Name = 
REMARK  13 active torsions:
REMARK  status: ('A' for Active; 'I' for Inactive)
REMARK    1  A    between atoms: C_1  and  C_2
REMARK    2  A    between atoms: C_2  and  C_3
REMARK    3  A    between atoms: C_3  and  C_4
REMARK    4  A    between atoms: C_3  and  C_6
REMARK    5  A    between atoms: C_3  and  C_26
REMARK    6  A    between atoms: C_4  and  C_5
REMARK    7  A    between atoms: C_6  and  N_7
REMARK    8  A    between atoms: C_8  and  C_10
REMARK    9  A    between atoms: N_13  and  C_14
REMARK   10  A    between atoms: C_14  and  C_15
REMARK   11  A    between atoms: C_15  and  C_16
REMARK   12  A    between atoms: C_20  and  O_21
REMARK   13  A    between atoms: O_21  and  C_22
REMARK                            x       y       z     vdW  Elec       q    Type
REMARK                         _______ _______ _______ _____ _____    ______ ____
ROOT
ATOM      1  N   UNL     1       4.744   5.508  18.686  0.00  0.00    +0.000 N 
ATOM      2  C   UNL     1       5.344   4.301  18.402  0.00  0.00    +0.000 C 
ATOM      3  O   UNL     1       5.114   3.287  19.045  0.00  0.00    +0.000 OA
ATOM      4  H   UNL     1       4.819   6.272  18.025  0.00  0.00    +0.000 HD
ENDROOT
BRANCH   2   5
ATOM      5  C   UNL     1       6.303   4.342  17.213  0.00  0.00    +0.000 C 
ATOM      6  C   UNL     1       7.725   4.655  17.672  0.00  0.00    +0.000 C 
ATOM      7  C   UNL     1       7.863   6.099  18.149  0.00  0.00    +0.000 C 
ATOM      8  N   UNL     1       7.421   7.066  17.130  0.00  0.00    +0.000 NA
ATOM      9  C   UNL     1       6.029   6.808  16.724  0.00  0.00    +0.000 C 
ATOM     10  C   UNL     1       5.862   5.385  16.182  0.00  0.00    +0.000 C 
BRANCH   8  11
ATOM     11  C   UNL     1       7.542   8.449  17.644  0.00  0.00    +0.000 C 
BRANCH  11  12
ATOM     12  C   UNL     1       8.727   8.624  18.610  0.00  0.00    +0.000 C 
BRANCH  12  13
ATOM     13  C   UNL     1       8.996  10.075  18.906  0.00  0.00    +0.000 A 
ATOM     14  C   UNL     1       9.536  10.456  20.140  0.00  0.00    +0.000 A 
ATOM     15  C   UNL     1       9.769  11.802  20.412  0.00  0.00    +0.000 A 
ATOM     16  C   UNL     1       9.458  12.768  19.455  0.00  0.00    +0.000 A 
ATOM     17  C   UNL     1       8.915  12.400  18.221  0.00  0.00    +0.000 A 
ATOM     18  C   UNL     1       8.686  11.052  17.952  0.00  0.00    +0.000 A 
BRANCH  17  19
ATOM     19  O   UNL     1       8.649  13.438  17.370  0.00  0.00    +0.000 OA
ATOM     20  C   UNL     1       7.937  14.540  17.922  0.00  0.00    +0.000 C 
ENDBRANCH  17  19
ENDBRANCH  12  13
ENDBRANCH  11  12
ENDBRANCH   8  11
ENDBRANCH   2   5
BRANCH   1  21
ATOM     21  C   UNL     1       3.809   5.648  19.788  0.00  0.00    +0.000 C 
BRANCH  21  22
ATOM     22  C   UNL     1       2.301   5.748  19.373  0.00  0.00    +0.000 C 
BRANCH  22  23
ATOM     23  C   UNL     1       1.906   7.256  19.430  0.00  0.00    +0.000 A 
ATOM     24  C   UNL     1       2.030   8.103  18.309  0.00  0.00    +0.000 A 
ATOM     25  C   UNL     1       1.666   9.451  18.369  0.00  0.00    +0.000 A 
ATOM     26  C   UNL     1       1.154   9.973  19.546  0.00  0.00    +0.000 A 
ATOM     27  F   UNL     1       0.803  11.264  19.603  0.00  0.00    +0.000 F 
ATOM     28  C   UNL     1       0.991   9.171  20.661  0.00  0.00    +0.000 A 
ATOM     29  C   UNL     1       1.357   7.824  20.601  0.00  0.00    +0.000 A 
ENDBRANCH  22  23
BRANCH  22  31
ATOM     30  C   UNL     1       1.645   3.689  17.874  0.00  0.00    +0.000 C 
ATOM     31  C   UNL     1       2.113   5.139  17.939  0.00  0.00    +0.000 C 
ENDBRANCH  22  31
BRANCH  22  32
ATOM     32  C   UNL     1       1.465   4.909  20.407  0.00  0.00    +0.000 C 
ATOM     33  C   UNL     1       2.249   4.038  21.386  0.00  0.00    +0.000 C 
ENDBRANCH  22  32
ENDBRANCH  21  22
ENDBRANCH   1  21
TORSDOF 10
ENDMDL
MODEL 3
REMARK VINA RESULT:      -8.4      4.408      7.332
REMARK  Name = 
REMARK  13 active torsions:
REMARK  status: ('A' for Active; 'I' for Inactive)
REMARK    1  A    between atoms: C_1  and  C_2
REMARK    2  A    between atoms: C_2  and  C_3
REMARK    3  A    between atoms: C_3  and  C_4
REMARK    4  A    between atoms: C_3  and  C_6
REMARK    5  A    between atoms: C_3  and  C_26
REMARK    6  A    between atoms: C_4  and  C_5
REMARK    7  A    between atoms: C_6  and  N_7
REMARK    8  A    between atoms: C_8  and  C_10
REMARK    9  A    between atoms: N_13  and  C_14
REMARK   10  A    between atoms: C_14  and  C_15
REMARK   11  A    between atoms: C_15  and  C_16
REMARK   12  A    between atoms: C_20  and  O_21
REMARK   13  A    between atoms: O_21  and  C_22
REMARK                            x       y       z     vdW  Elec       q    Type
REMARK                         _______ _______ _______ _____ _____    ______ ____
ROOT
ATOM      1  N   UNL     1       4.341   3.356  18.248  0.00  0.00    +0.000 N 
ATOM      2  C   UNL     1       4.149   2.644  19.412  0.00  0.00    +0.000 C 
ATOM      3  O   UNL     1       5.071   2.339  20.154  0.00  0.00    +0.000 OA
ATOM      4  H   UNL     1       3.542   3.743  17.760  0.00  0.00    +0.000 HD
ENDROOT
BRANCH   2   5
ATOM      5  C   UNL     1       2.690   2.288  19.694  0.00  0.00    +0.000 C 
ATOM      6  C   UNL     1       1.751   3.094  18.801  0.00  0.00    +0.000 C 
ATOM      7  C   UNL     1       1.723   4.570  19.191  0.00  0.00    +0.000 C 
ATOM      8  N   UNL     1       1.382   4.763  20.610  0.00  0.00    +0.000 NA
ATOM      9  C   UNL     1       2.320   4.036  21.484  0.00  0.00    +0.000 C 
ATOM     10  C   UNL     1       2.332   2.539  21.161  0.00  0.00    +0.000 C 
BRANCH   8  11
ATOM     11  C   UNL     1       1.397   6.203  20.953  0.00  0.00    +0.000 C 
BRANCH  11  12
ATOM     12  C   UNL     1       2.152   7.055  19.918  0.00  0.00    +0.000 C 
BRANCH  12  13
ATOM     13  C   UNL     1       1.622   8.462  19.859  0.00  0.00    +0.000 A 
ATOM     14  C   UNL     1       1.622   9.167  18.649  0.00  0.00    +0.000 A 
ATOM     15  C   UNL     1       1.143  10.474  18.605  0.00  0.00    +0.000 A 
ATOM     16  C   UNL     1       0.671  11.080  19.770  0.00  0.00    +0.000 A 
ATOM     17  C   UNL     1       0.671  10.388  20.984  0.00  0.00    +0.000 A 
ATOM     18  C   UNL     1       1.147   9.079  21.023  0.00  0.00    +0.000 A 
BRANCH  17  19
ATOM     19  O   UNL     1       0.188  11.091  22.053  0.00  0.00    +0.000 OA
ATOM     20  C   UNL     1      -1.003  11.839  21.832  0.00  0.00    +0.000 C 
ENDBRANCH  17  19
ENDBRANCH  12  13
ENDBRANCH  11  12
ENDBRANCH   8  11
ENDBRANCH   2   5
BRANCH   1  21
ATOM     21  C   UNL     1       5.666   3.771  17.824  0.00  0.00    +0.000 C 
BRANCH  21  22
ATOM     22  C   UNL     1       5.716   5.113  17.017  0.00  0.00    +0.000 C 
BRANCH  22  23
ATOM     23  C   UNL     1       6.088   4.752  15.545  0.00  0.00    +0.000 A 
ATOM     24  C   UNL     1       5.233   3.986  14.725  0.00  0.00    +0.000 A 
ATOM     25  C   UNL     1       5.573   3.675  13.405  0.00  0.00    +0.000 A 
ATOM     26  C   UNL     1       6.766   4.138  12.876  0.00  0.00    +0.000 A 
ATOM     27  F   UNL     1       7.091   3.841  11.611  0.00  0.00    +0.000 F 
ATOM     28  C   UNL     1       7.622   4.914  13.637  0.00  0.00    +0.000 A 
ATOM     29  C   UNL     1       7.282   5.223  14.957  0.00  0.00    +0.000 A 
ENDBRANCH  22  23
BRANCH  22  31
ATOM     30  C   UNL     1       4.343   7.356  17.001  0.00  0.00    +0.000 C 
ATOM     31  C   UNL     1       4.327   5.835  17.117  0.00  0.00    +0.000 C 
ENDBRANCH  22  31
BRANCH  22  32
ATOM     32  C   UNL     1       6.822   6.021  17.668  0.00  0.00    +0.000 C 
ATOM     33  C   UNL     1       7.311   5.625  19.059  0.00  0.00    +0.000 C 
ENDBRANCH  22  32
ENDBRANCH  21  22
ENDBRANCH   1  21
TORSDOF 10
ENDMDL
MODEL 4
REMARK VINA RESULT:      -8.4      1.352      2.108
REMARK  Name = 
REMARK  13 active torsions:
REMARK  status: ('A' for Active; 'I' for Inactive)
REMARK    1  A    between atoms: C_1  and  C_2
REMARK    2  A    between atoms: C_2  and  C_3
REMARK    3  A    between atoms: C_3  and  C_4
REMARK    4  A    between atoms: C_3  and  C_6
REMARK    5  A    between atoms: C_3  and  C_26
REMARK    6  A    between atoms: C_4  and  C_5
REMARK    7  A    between atoms: C_6  and  N_7
REMARK    8  A    between atoms: C_8  and  C_10
REMARK    9  A    between atoms: N_13  and  C_14
REMARK   10  A    between atoms: C_14  and  C_15
REMARK   11  A    between atoms: C_15  and  C_16
REMARK   12  A    between atoms: C_20  and  O_21
REMARK   13  A    between atoms: O_21  and  C_22
REMARK                            x       y       z     vdW  Elec       q    Type
REMARK                         _______ _______ _______ _____ _____    ______ ____
ROOT
ATOM      1  N   UNL     1       4.250   3.846  18.601  0.00  0.00    +0.000 N 
ATOM      2  C   UNL     1       5.471   4.467  18.746  0.00  0.00    +0.000 C 
ATOM      3  O   UNL     1       5.902   4.822  19.834  0.00  0.00    +0.000 OA
ATOM      4  H   UNL     1       4.012   3.408  17.719  0.00  0.00    +0.000 HD
ENDROOT
BRANCH   2   5
ATOM      5  C   UNL     1       6.235   4.658  17.437  0.00  0.00    +0.000 C 
ATOM      6  C   UNL     1       7.742   4.599  17.674  0.00  0.00    +0.000 C 
ATOM      7  C   UNL     1       8.246   5.824  18.432  0.00  0.00    +0.000 C 
ATOM      8  N   UNL     1       7.874   7.083  17.765  0.00  0.00    +0.000 NA
ATOM      9  C   UNL     1       6.415   7.176  17.585  0.00  0.00    +0.000 C 
ATOM     10  C   UNL     1       5.879   5.992  16.775  0.00  0.00    +0.000 C 
BRANCH   8  11
ATOM     11  C   UNL     1       8.353   8.244  18.549  0.00  0.00    +0.000 C 
BRANCH  11  12
ATOM     12  C   UNL     1       8.146   9.582  17.819  0.00  0.00    +0.000 C 
BRANCH  12  13
ATOM     13  C   UNL     1       8.953  10.690  18.442  0.00  0.00    +0.000 A 
ATOM     14  C   UNL     1       9.496  10.535  19.722  0.00  0.00    +0.000 A 
ATOM     15  C   UNL     1      10.230  11.569  20.298  0.00  0.00    +0.000 A 
ATOM     16  C   UNL     1      10.416  12.762  19.597  0.00  0.00    +0.000 A 
ATOM     17  C   UNL     1       9.875  12.929  18.320  0.00  0.00    +0.000 A 
ATOM     18  C   UNL     1       9.145  11.890  17.746  0.00  0.00    +0.000 A 
BRANCH  17  19
ATOM     19  O   UNL     1      10.123  14.143  17.738  0.00  0.00    +0.000 OA
ATOM     20  C   UNL     1      11.491  14.490  17.558  0.00  0.00    +0.000 C 
ENDBRANCH  17  19
ENDBRANCH  12  13
ENDBRANCH  11  12
ENDBRANCH   8  11
ENDBRANCH   2   5
BRANCH   1  21
ATOM     21  C   UNL     1       3.389   3.591  19.743  0.00  0.00    +0.000 C 
BRANCH  21  22
ATOM     22  C   UNL     1       1.907   4.073  19.578  0.00  0.00    +0.000 C 
BRANCH  22  23
ATOM     23  C   UNL     1       1.942   5.625  19.422  0.00  0.00    +0.000 A 
ATOM     24  C   UNL     1       2.224   6.245  18.187  0.00  0.00    +0.000 A 
ATOM     25  C   UNL     1       2.244   7.636  18.056  0.00  0.00    +0.000 A 
ATOM     26  C   UNL     1       1.966   8.434  19.154  0.00  0.00    +0.000 A 
ATOM     27  F   UNL     1       1.984   9.766  19.029  0.00  0.00    +0.000 F 
ATOM     28  C   UNL     1       1.659   7.866  20.378  0.00  0.00    +0.000 A 
ATOM     29  C   UNL     1       1.640   6.475  20.509  0.00  0.00    +0.000 A 
ENDBRANCH  22  23
BRANCH  22  31
ATOM     30  C   UNL     1       0.647   1.992  18.580  0.00  0.00    +0.000 C 
ATOM     31  C   UNL     1       1.263   3.365  18.336  0.00  0.00    +0.000 C 
ENDBRANCH  22  31
BRANCH  22  32
ATOM     32  C   UNL     1       1.124   3.657  20.877  0.00  0.00    +0.000 C 
ATOM     33  C   UNL     1       1.825   2.690  21.828  0.00  0.00    +0.000 C 
ENDBRANCH  22  32
ENDBRANCH  21  22
ENDBRANCH   1  21
TORSDOF 10
ENDMDL
MODEL 5
REMARK VINA RESULT:      -8.2      1.455      1.969
REMARK  Name = 
REMARK  13 active torsions:
REMARK  status: ('A' for Active; 'I' for Inactive)
REMARK    1  A    between atoms: C_1  and  C_2
REMARK    2  A    between atoms: C_2  and  C_3
REMARK    3  A    between atoms: C_3  and  C_4
REMARK    4  A    between atoms: C_3  and  C_6
REMARK    5  A    between atoms: C_3  and  C_26
REMARK    6  A    between atoms: C_4  and  C_5
REMARK    7  A    between atoms: C_6  and  N_7
REMARK    8  A    between atoms: C_8  and  C_10
REMARK    9  A    between atoms: N_13  and  C_14
REMARK   10  A    between atoms: C_14  and  C_15
REMARK   11  A    between atoms: C_15  and  C_16
REMARK   12  A    between atoms: C_20  and  O_21
REMARK   13  A    between atoms: O_21  and  C_22
REMARK                            x       y       z     vdW  Elec       q    Type
REMARK                         _______ _______ _______ _____ _____    ______ ____
ROOT
ATOM      1  N   UNL     1       4.547   3.718  18.827  0.00  0.00    +0.000 N 
ATOM      2  C   UNL     1       5.418   4.785  18.846  0.00  0.00    +0.000 C 
ATOM      3  O   UNL     1       5.384   5.644  19.714  0.00  0.00    +0.000 OA
ATOM      4  H   UNL     1       4.722   2.939  18.204  0.00  0.00    +0.000 HD
ENDROOT
BRANCH   2   5
ATOM      5  C   UNL     1       6.431   4.786  17.702  0.00  0.00    +0.000 C 
ATOM      6  C   UNL     1       7.859   4.790  18.240  0.00  0.00    +0.000 C 
ATOM      7  C   UNL     1       8.219   6.124  18.887  0.00  0.00    +0.000 C 
ATOM      8  N   UNL     1       8.005   7.261  17.976  0.00  0.00    +0.000 NA
ATOM      9  C   UNL     1       6.612   7.300  17.497  0.00  0.00    +0.000 C 
ATOM     10  C   UNL     1       6.232   5.997  16.787  0.00  0.00    +0.000 C 
BRANCH   8  11
ATOM     11  C   UNL     1       8.335   8.535  18.652  0.00  0.00    +0.000 C 
BRANCH  11  12
ATOM     12  C   UNL     1       8.428   9.721  17.677  0.00  0.00    +0.000 C 
BRANCH  12  13
ATOM     13  C   UNL     1       9.121  10.904  18.299  0.00  0.00    +0.000 A 
ATOM     14  C   UNL     1       9.963  10.729  19.402  0.00  0.00    +0.000 A 
ATOM     15  C   UNL     1      10.590  11.830  19.981  0.00  0.00    +0.000 A 
ATOM     16  C   UNL     1      10.369  13.107  19.463  0.00  0.00    +0.000 A 
ATOM     17  C   UNL     1       9.526  13.293  18.364  0.00  0.00    +0.000 A 
ATOM     18  C   UNL     1       8.904  12.189  17.785  0.00  0.00    +0.000 A 
BRANCH  17  19
ATOM     19  O   UNL     1       9.387  14.591  17.952  0.00  0.00    +0.000 OA
ATOM     20  C   UNL     1      10.575  15.375  17.923  0.00  0.00    +0.000 C 
ENDBRANCH  17  19
ENDBRANCH  12  13
ENDBRANCH  11  12
ENDBRANCH   8  11
ENDBRANCH   2   5
BRANCH   1  21
ATOM     21  C   UNL     1       3.515   3.564  19.838  0.00  0.00    +0.000 C 
BRANCH  21  22
ATOM     22  C   UNL     1       2.068   3.946  19.375  0.00  0.00    +0.000 C 
BRANCH  22  23
ATOM     23  C   UNL     1       1.983   5.504  19.370  0.00  0.00    +0.000 A 
ATOM     24  C   UNL     1       1.707   6.241  20.540  0.00  0.00    +0.000 A 
ATOM     25  C   UNL     1       1.640   7.637  20.526  0.00  0.00    +0.000 A 
ATOM     26  C   UNL     1       1.864   8.323  19.343  0.00  0.00    +0.000 A 
ATOM     27  F   UNL     1       1.802   9.660  19.329  0.00  0.00    +0.000 F 
ATOM     28  C   UNL     1       2.163   7.641  18.177  0.00  0.00    +0.000 A 
ATOM     29  C   UNL     1       2.228   6.245  18.192  0.00  0.00    +0.000 A 
ENDBRANCH  22  23
BRANCH  22  31
ATOM     30  C   UNL     1       2.280   1.904  17.731  0.00  0.00    +0.000 C 
ATOM     31  C   UNL     1       1.794   3.332  17.958  0.00  0.00    +0.000 C 
ENDBRANCH  22  31
BRANCH  22  32
ATOM     32  C   UNL     1       1.057   3.333  20.411  0.00  0.00    +0.000 C 
ATOM     33  C   UNL     1       1.656   2.641  21.634  0.00  0.00    +0.000 C 
ENDBRANCH  22  32
ENDBRANCH  21  22
ENDBRANCH   1  21
TORSDOF 10
ENDMDL
MODEL 6
REMARK VINA RESULT:      -8.2      3.304      6.885
REMARK  Name = 
REMARK  13 active torsions:
REMARK  status: ('A' for Active; 'I' for Inactive)
REMARK    1  A    between atoms: C_1  and  C_2
REMARK    2  A    between atoms: C_2  and  C_3
REMARK    3  A    between atoms: C_3  and  C_4
REMARK    4  A    between atoms: C_3  and  C_6
REMARK    5  A    between atoms: C_3  and  C_26
REMARK    6  A    between atoms: C_4  and  C_5
REMARK    7  A    between atoms: C_6  and  N_7
REMARK    8  A    between atoms: C_8  and  C_10
REMARK    9  A    between atoms: N_13  and  C_14
REMARK   10  A    between atoms: C_14  and  C_15
REMARK   11  A    between atoms: C_15  and  C_16
REMARK   12  A    between atoms: C_20  and  O_21
REMARK   13  A    between atoms: O_21  and  C_22
REMARK                            x       y       z     vdW  Elec       q    Type
REMARK                         _______ _______ _______ _____ _____    ______ ____
ROOT
ATOM      1  N   UNL     1       4.522   3.184  18.010  0.00  0.00    +0.000 N 
ATOM      2  C   UNL     1       4.150   2.684  19.239  0.00  0.00    +0.000 C 
ATOM      3  O   UNL     1       4.914   2.650  20.192  0.00  0.00    +0.000 OA
ATOM      4  H   UNL     1       3.815   3.362  17.307  0.00  0.00    +0.000 HD
ENDROOT
BRANCH   2   5
ATOM      5  C   UNL     1       2.704   2.195  19.304  0.00  0.00    +0.000 C 
ATOM      6  C   UNL     1       1.808   3.022  18.384  0.00  0.00    +0.000 C 
ATOM      7  C   UNL     1       1.611   4.441  18.909  0.00  0.00    +0.000 C 
ATOM      8  N   UNL     1       1.095   4.459  20.288  0.00  0.00    +0.000 NA
ATOM      9  C   UNL     1       1.984   3.712  21.195  0.00  0.00    +0.000 C 
ATOM     10  C   UNL     1       2.159   2.263  20.734  0.00  0.00    +0.000 C 
BRANCH   8  11
ATOM     11  C   UNL     1       0.949   5.851  20.767  0.00  0.00    +0.000 C 
BRANCH  11  12
ATOM     12  C   UNL     1       2.016   6.796  20.188  0.00  0.00    +0.000 C 
BRANCH  12  13
ATOM     13  C   UNL     1       1.548   8.226  20.173  0.00  0.00    +0.000 A 
ATOM     14  C   UNL     1       1.522   8.949  18.975  0.00  0.00    +0.000 A 
ATOM     15  C   UNL     1       1.101  10.277  18.971  0.00  0.00    +0.000 A 
ATOM     16  C   UNL     1       0.712  10.885  20.165  0.00  0.00    +0.000 A 
ATOM     17  C   UNL     1       0.737  10.174  21.368  0.00  0.00    +0.000 A 
ATOM     18  C   UNL     1       1.156   8.845  21.367  0.00  0.00    +0.000 A 
BRANCH  17  19
ATOM     19  O   UNL     1       0.336  10.881  22.470  0.00  0.00    +0.000 OA
ATOM     20  C   UNL     1      -0.948  10.561  22.993  0.00  0.00    +0.000 C 
ENDBRANCH  17  19
ENDBRANCH  12  13
ENDBRANCH  11  12
ENDBRANCH   8  11
ENDBRANCH   2   5
BRANCH   1  21
ATOM     21  C   UNL     1       5.864   3.685  17.771  0.00  0.00    +0.000 C 
BRANCH  21  22
ATOM     22  C   UNL     1       5.961   4.852  16.731  0.00  0.00    +0.000 C 
BRANCH  22  23
ATOM     23  C   UNL     1       6.841   5.970  17.373  0.00  0.00    +0.000 A 
ATOM     24  C   UNL     1       6.942   7.258  16.807  0.00  0.00    +0.000 A 
ATOM     25  C   UNL     1       7.727   8.254  17.395  0.00  0.00    +0.000 A 
ATOM     26  C   UNL     1       8.412   7.986  18.569  0.00  0.00    +0.000 A 
ATOM     27  F   UNL     1       9.163   8.940  19.133  0.00  0.00    +0.000 F 
ATOM     28  C   UNL     1       8.320   6.744  19.171  0.00  0.00    +0.000 A 
ATOM     29  C   UNL     1       7.536   5.748  18.582  0.00  0.00    +0.000 A 
ENDBRANCH  22  23
BRANCH  22  31
ATOM     30  C   UNL     1       5.706   4.443  14.146  0.00  0.00    +0.000 C 
ATOM     31  C   UNL     1       6.574   4.311  15.393  0.00  0.00    +0.000 C 
ENDBRANCH  22  31
BRANCH  22  32
ATOM     32  C   UNL     1       4.503   5.374  16.460  0.00  0.00    +0.000 C 
ATOM     33  C   UNL     1       4.018   6.545  17.312  0.00  0.00    +0.000 C 
ENDBRANCH  22  32
ENDBRANCH  21  22
ENDBRANCH   1  21
TORSDOF 10
ENDMDL
MODEL 7
REMARK VINA RESULT:      -8.0      3.477      7.081
REMARK  Name = 
REMARK  13 active torsions:
REMARK  status: ('A' for Active; 'I' for Inactive)
REMARK    1  A    between atoms: C_1  and  C_2
REMARK    2  A    between atoms: C_2  and  C_3
REMARK    3  A    between atoms: C_3  and  C_4
REMARK    4  A    between atoms: C_3  and  C_6
REMARK    5  A    between atoms: C_3  and  C_26
REMARK    6  A    between atoms: C_4  and  C_5
REMARK    7  A    between atoms: C_6  and  N_7
REMARK    8  A    between atoms: C_8  and  C_10
REMARK    9  A    between atoms: N_13  and  C_14
REMARK   10  A    between atoms: C_14  and  C_15
REMARK   11  A    between atoms: C_15  and  C_16
REMARK   12  A    between atoms: C_20  and  O_21
REMARK   13  A    between atoms: O_21  and  C_22
REMARK                            x       y       z     vdW  Elec       q    Type
REMARK                         _______ _______ _______ _____ _____    ______ ____
ROOT
ATOM      1  N   UNL     1       4.759   5.798  19.491  0.00  0.00    +0.000 N 
ATOM      2  C   UNL     1       5.815   4.960  19.207  0.00  0.00    +0.000 C 
ATOM      3  O   UNL     1       5.784   3.761  19.444  0.00  0.00    +0.000 OA
ATOM      4  H   UNL     1       4.752   6.739  19.117  0.00  0.00    +0.000 HD
ENDROOT
BRANCH   2   5
ATOM      5  C   UNL     1       7.011   5.657  18.561  0.00  0.00    +0.000 C 
ATOM      6  C   UNL     1       6.555   6.827  17.693  0.00  0.00    +0.000 C 
ATOM      7  C   UNL     1       5.838   6.353  16.432  0.00  0.00    +0.000 C 
ATOM      8  N   UNL     1       6.655   5.412  15.647  0.00  0.00    +0.000 NA
ATOM      9  C   UNL     1       7.051   4.249  16.461  0.00  0.00    +0.000 C 
ATOM     10  C   UNL     1       7.827   4.682  17.708  0.00  0.00    +0.000 C 
BRANCH   8  11
ATOM     11  C   UNL     1       5.911   4.953  14.453  0.00  0.00    +0.000 C 
BRANCH  11  12
ATOM     12  C   UNL     1       6.837   4.539  13.296  0.00  0.00    +0.000 C 
BRANCH  12  13
ATOM     13  C   UNL     1       6.179   3.539  12.383  0.00  0.00    +0.000 A 
ATOM     14  C   UNL     1       6.840   2.354  12.039  0.00  0.00    +0.000 A 
ATOM     15  C   UNL     1       6.231   1.440  11.183  0.00  0.00    +0.000 A 
ATOM     16  C   UNL     1       4.964   1.713  10.664  0.00  0.00    +0.000 A 
ATOM     17  C   UNL     1       4.297   2.895  10.997  0.00  0.00    +0.000 A 
ATOM     18  C   UNL     1       4.909   3.804  11.857  0.00  0.00    +0.000 A 
BRANCH  17  19
ATOM     19  O   UNL     1       3.065   3.049  10.422  0.00  0.00    +0.000 OA
ATOM     20  C   UNL     1       2.836   4.277   9.740  0.00  0.00    +0.000 C 
ENDBRANCH  17  19
ENDBRANCH  12  13
ENDBRANCH  11  12
ENDBRANCH   8  11
ENDBRANCH   2   5
BRANCH   1  21
ATOM     21  C   UNL     1       3.544   5.301  20.112  0.00  0.00    +0.000 C 
BRANCH  21  22
ATOM     22  C   UNL     1       2.233   5.529  19.284  0.00  0.00    +0.000 C 
BRANCH  22  23
ATOM     23  C   UNL     1       1.987   7.068  19.225  0.00  0.00    +0.000 A 
ATOM     24  C   UNL     1       2.189   7.812  18.044  0.00  0.00    +0.000 A 
ATOM     25  C   UNL     1       1.957   9.190  18.000  0.00  0.00    +0.000 A 
ATOM     26  C   UNL     1       1.503   9.847  19.132  0.00  0.00    +0.000 A 
ATOM     27  F   UNL     1       1.280  11.166  19.090  0.00  0.00    +0.000 F 
ATOM     28  C   UNL     1       1.268   9.151  20.304  0.00  0.00    +0.000 A 
ATOM     29  C   UNL     1       1.501   7.774  20.348  0.00  0.00    +0.000 A 
ENDBRANCH  22  23
BRANCH  22  31
ATOM     30  C   UNL     1       1.505   3.709  17.531  0.00  0.00    +0.000 C 
ATOM     31  C   UNL     1       2.401   4.900  17.857  0.00  0.00    +0.000 C 
ENDBRANCH  22  31
BRANCH  22  32
ATOM     32  C   UNL     1       1.060   4.802  20.038  0.00  0.00    +0.000 C 
ATOM     33  C   UNL     1       1.452   3.765  21.089  0.00  0.00    +0.000 C 
ENDBRANCH  22  32
ENDBRANCH  21  22
ENDBRANCH   1  21
TORSDOF 10
ENDMDL
MODEL 8
REMARK VINA RESULT:      -8.0      0.652      1.069
REMARK  Name = 
REMARK  13 active torsions:
REMARK  status: ('A' for Active; 'I' for Inactive)
REMARK    1  A    between atoms: C_1  and  C_2
REMARK    2  A    between atoms: C_2  and  C_3
REMARK    3  A    between atoms: C_3  and  C_4
REMARK    4  A    between atoms: C_3  and  C_6
REMARK    5  A    between atoms: C_3  and  C_26
REMARK    6  A    between atoms: C_4  and  C_5
REMARK    7  A    between atoms: C_6  and  N_7
REMARK    8  A    between atoms: C_8  and  C_10
REMARK    9  A    between atoms: N_13  and  C_14
REMARK   10  A    between atoms: C_14  and  C_15
REMARK   11  A    between atoms: C_15  and  C_16
REMARK   12  A    between atoms: C_20  and  O_21
REMARK   13  A    between atoms: O_21  and  C_22
REMARK                            x       y       z     vdW  Elec       q    Type
REMARK                         _______ _______ _______ _____ _____    ______ ____
ROOT
ATOM      1  N   UNL     1       4.789   5.665  18.813  0.00  0.00    +0.000 N 
ATOM      2  C   UNL     1       5.505   4.499  18.659  0.00  0.00    +0.000 C 
ATOM      3  O   UNL     1       5.346   3.530  19.388  0.00  0.00    +0.000 OA
ATOM      4  H   UNL     1       4.817   6.370  18.087  0.00  0.00    +0.000 HD
ENDROOT
BRANCH   2   5
ATOM      5  C   UNL     1       6.496   4.521  17.496  0.00  0.00    +0.000 C 
ATOM      6  C   UNL     1       7.894   4.898  17.980  0.00  0.00    +0.000 C 
ATOM      7  C   UNL     1       7.975   6.363  18.399  0.00  0.00    +0.000 C 
ATOM      8  N   UNL     1       7.533   7.273  17.328  0.00  0.00    +0.000 NA
ATOM      9  C   UNL     1       6.161   6.955  16.895  0.00  0.00    +0.000 C 
ATOM     10  C   UNL     1       6.053   5.506  16.410  0.00  0.00    +0.000 C 
BRANCH   8  11
ATOM     11  C   UNL     1       7.597   8.679  17.786  0.00  0.00    +0.000 C 
BRANCH  11  12
ATOM     12  C   UNL     1       8.758   8.936  18.762  0.00  0.00    +0.000 C 
BRANCH  12  13
ATOM     13  C   UNL     1       9.179  10.381  18.762  0.00  0.00    +0.000 A 
ATOM     14  C   UNL     1       9.898  10.907  17.682  0.00  0.00    +0.000 A 
ATOM     15  C   UNL     1      10.298  12.241  17.695  0.00  0.00    +0.000 A 
ATOM     16  C   UNL     1       9.985  13.049  18.790  0.00  0.00    +0.000 A 
ATOM     17  C   UNL     1       9.271  12.533  19.875  0.00  0.00    +0.000 A 
ATOM     18  C   UNL     1       8.871  11.199  19.856  0.00  0.00    +0.000 A 
BRANCH  17  19
ATOM     19  O   UNL     1       9.031  13.422  20.887  0.00  0.00    +0.000 OA
ATOM     20  C   UNL     1      10.175  14.004  21.502  0.00  0.00    +0.000 C 
ENDBRANCH  17  19
ENDBRANCH  12  13
ENDBRANCH  11  12
ENDBRANCH   8  11
ENDBRANCH   2   5
BRANCH   1  21
ATOM     21  C   UNL     1       3.808   5.818  19.874  0.00  0.00    +0.000 C 
BRANCH  21  22
ATOM     22  C   UNL     1       2.318   5.883  19.396  0.00  0.00    +0.000 C 
BRANCH  22  23
ATOM     23  C   UNL     1       1.851   7.365  19.546  0.00  0.00    +0.000 A 
ATOM     24  C   UNL     1       1.881   8.270  18.465  0.00  0.00    +0.000 A 
ATOM     25  C   UNL     1       1.453   9.593  18.608  0.00  0.00    +0.000 A 
ATOM     26  C   UNL     1       0.971  10.031  19.831  0.00  0.00    +0.000 A 
ATOM     27  F   UNL     1       0.559  11.297  19.967  0.00  0.00    +0.000 F 
ATOM     28  C   UNL     1       0.900   9.169  20.910  0.00  0.00    +0.000 A 
ATOM     29  C   UNL     1       1.329   7.847  20.767  0.00  0.00    +0.000 A 
ENDBRANCH  22  23
BRANCH  22  31
ATOM     30  C   UNL     1       1.689   3.963  17.714  0.00  0.00    +0.000 C 
ATOM     31  C   UNL     1       2.221   5.378  17.915  0.00  0.00    +0.000 C 
ENDBRANCH  22  31
BRANCH  22  32
ATOM     32  C   UNL     1       1.477   4.934  20.325  0.00  0.00    +0.000 C 
ATOM     33  C   UNL     1       2.256   4.040  21.288  0.00  0.00    +0.000 C 
ENDBRANCH  22  32
ENDBRANCH  21  22
ENDBRANCH   1  21
TORSDOF 10
ENDMDL
MODEL 9
REMARK VINA RESULT:      -7.9      4.796      7.288
REMARK  Name = 
REMARK  13 active torsions:
REMARK  status: ('A' for Active; 'I' for Inactive)
REMARK    1  A    between atoms: C_1  and  C_2
REMARK    2  A    between atoms: C_2  and  C_3
REMARK    3  A    between atoms: C_3  and  C_4
REMARK    4  A    between atoms: C_3  and  C_6
REMARK    5  A    between atoms: C_3  and  C_26
REMARK    6  A    between atoms: C_4  and  C_5
REMARK    7  A    between atoms: C_6  and  N_7
REMARK    8  A    between atoms: C_8  and  C_10
REMARK    9  A    between atoms: N_13  and  C_14
REMARK   10  A    between atoms: C_14  and  C_15
REMARK   11  A    between atoms: C_15  and  C_16
REMARK   12  A    between atoms: C_20  and  O_21
REMARK   13  A    between atoms: O_21  and  C_22
REMARK                            x       y       z     vdW  Elec       q    Type
REMARK                         _______ _______ _______ _____ _____    ______ ____
ROOT
ATOM      1  N   UNL     1       4.076   2.681  18.182  0.00  0.00    +0.000 N 
ATOM      2  C   UNL     1       2.720   2.453  18.265  0.00  0.00    +0.000 C 
ATOM      3  O   UNL     1       2.000   2.409  17.278  0.00  0.00    +0.000 OA
ATOM      4  H   UNL     1       4.661   2.530  18.995  0.00  0.00    +0.000 HD
ENDROOT
BRANCH   2   5
ATOM      5  C   UNL     1       2.207   2.247  19.689  0.00  0.00    +0.000 C 
ATOM      6  C   UNL     1       0.829   2.880  19.868  0.00  0.00    +0.000 C 
ATOM      7  C   UNL     1       0.898   4.405  19.850  0.00  0.00    +0.000 C 
ATOM      8  N   UNL     1       1.844   4.930  20.849  0.00  0.00    +0.000 NA
ATOM      9  C   UNL     1       3.192   4.369  20.648  0.00  0.00    +0.000 C 
ATOM     10  C   UNL     1       3.173   2.839  20.718  0.00  0.00    +0.000 C 
BRANCH   8  11
ATOM     11  C   UNL     1       1.904   6.407  20.777  0.00  0.00    +0.000 C 
BRANCH  11  12
ATOM     12  C   UNL     1       2.242   6.922  19.367  0.00  0.00    +0.000 C 
BRANCH  12  13
ATOM     13  C   UNL     1       1.832   8.358  19.183  0.00  0.00    +0.000 A 
ATOM     14  C   UNL     1       2.249   9.074  18.054  0.00  0.00    +0.000 A 
ATOM     15  C   UNL     1       1.877  10.407  17.898  0.00  0.00    +0.000 A 
ATOM     16  C   UNL     1       1.094  11.028  18.871  0.00  0.00    +0.000 A 
ATOM     17  C   UNL     1       0.675  10.325  20.004  0.00  0.00    +0.000 A 
ATOM     18  C   UNL     1       1.047   8.990  20.155  0.00  0.00    +0.000 A 
BRANCH  17  19
ATOM     19  O   UNL     1      -0.084  11.044  20.887  0.00  0.00    +0.000 OA
ATOM     20  C   UNL     1       0.262  12.416  21.045  0.00  0.00    +0.000 C 
ENDBRANCH  17  19
ENDBRANCH  12  13
ENDBRANCH  11  12
ENDBRANCH   8  11
ENDBRANCH   2   5
BRANCH   1  21
ATOM     21  C   UNL     1       4.730   2.904  16.904  0.00  0.00    +0.000 C 
BRANCH  21  22
ATOM     22  C   UNL     1       5.421   4.301  16.746  0.00  0.00    +0.000 C 
BRANCH  22  23
ATOM     23  C   UNL     1       5.999   4.367  15.298  0.00  0.00    +0.000 A 
ATOM     24  C   UNL     1       5.346   3.762  14.204  0.00  0.00    +0.000 A 
ATOM     25  C   UNL     1       5.869   3.835  12.910  0.00  0.00    +0.000 A 
ATOM     26  C   UNL     1       7.047   4.528  12.683  0.00  0.00    +0.000 A 
ATOM     27  F   UNL     1       7.548   4.598  11.443  0.00  0.00    +0.000 F 
ATOM     28  C   UNL     1       7.707   5.157  13.723  0.00  0.00    +0.000 A 
ATOM     29  C   UNL     1       7.184   5.084  15.017  0.00  0.00    +0.000 A 
ENDBRANCH  22  23
BRANCH  22  31
ATOM     30  C   UNL     1       4.615   6.766  16.312  0.00  0.00    +0.000 C 
ATOM     31  C   UNL     1       4.373   5.436  17.018  0.00  0.00    +0.000 C 
ENDBRANCH  22  31
BRANCH  22  32
ATOM     32  C   UNL     1       6.571   4.388  17.813  0.00  0.00    +0.000 C 
ATOM     33  C   UNL     1       6.344   5.324  18.999  0.00  0.00    +0.000 C 
ENDBRANCH  22  32
ENDBRANCH  21  22
ENDBRANCH   1  21
TORSDOF 10
ENDMDL
