MODEL 1
REMARK VINA RESULT:      -6.8      0.000      0.000
REMARK  Name = 
REMARK  7 active torsions:
REMARK  status: ('A' for Active; 'I' for Inactive)
REMARK    1  A    between atoms: C_1  and  C_2
REMARK    2  A    between atoms: C_4  and  C_5
REMARK    3  A    between atoms: N_10  and  C_11
REMARK    4  A    between atoms: C_11  and  C_12
REMARK    5  A    between atoms: C_12  and  O_14
REMARK    6  A    between atoms: C_17  and  C_18
REMARK    7  A    between atoms: N_19  and  C_20
REMARK                            x       y       z     vdW  Elec       q    Type
REMARK                         _______ _______ _______ _____ _____    ______ ____
ROOT
ATOM      1  C   UNL     1       4.199   6.739  16.770  0.00  0.00    +0.000 C 
ATOM      2  C   UNL     1       3.381   6.873  18.011  0.00  0.00    +0.000 A 
ATOM      3  C   UNL     1       2.929   8.066  18.547  0.00  0.00    +0.000 A 
ATOM      4  C   UNL     1       2.091   7.758  19.623  0.00  0.00    +0.000 A 
ATOM      5  C   UNL     1       2.037   6.384  19.762  0.00  0.00    +0.000 A 
ATOM      6  C   UNL     1       1.344   5.615  20.843  0.00  0.00    +0.000 C 
ATOM      7  N   UNL     1       2.851   5.816  18.765  0.00  0.00    +0.000 N 
ENDROOT
BRANCH   4   8
ATOM      8  C   UNL     1       1.387   8.691  20.433  0.00  0.00    +0.000 C 
ATOM      9  C   UNL     1       0.486   9.588  20.013  0.00  0.00    +0.000 C 
ATOM     10  S   UNL     1      -0.270  10.713  21.081  0.00  0.00    +0.000 S 
ATOM     11  C   UNL     1      -1.226  11.440  19.796  0.00  0.00    +0.000 C 
ATOM     12  S   UNL     1      -2.241  12.732  20.078  0.00  0.00    +0.000 S 
ATOM     13  N   UNL     1      -0.994  10.777  18.609  0.00  0.00    +0.000 N 
ATOM     14  C   UNL     1      -0.008   9.808  18.627  0.00  0.00    +0.000 C 
ATOM     15  O   UNL     1       0.428   9.300  17.602  0.00  0.00    +0.000 OA
BRANCH  13  16
ATOM     16  C   UNL     1      -1.701  11.047  17.358  0.00  0.00    +0.000 C 
BRANCH  16  17
ATOM     17  C   UNL     1      -2.722   9.975  17.013  0.00  0.00    +0.000 C 
ATOM     18  O   UNL     1      -3.420   9.417  17.847  0.00  0.00    +0.000 OA
BRANCH  17  19
ATOM     19  O   UNL     1      -2.729   9.602  15.710  0.00  0.00    +0.000 OA
ATOM     20  H   UNL     1      -2.143  10.140  15.126  0.00  0.00    +0.000 HD
ENDBRANCH  17  19
ENDBRANCH  16  17
ENDBRANCH  13  16
ENDBRANCH   4   8
BRANCH   7  21
ATOM     21  C   UNL     1       3.107   4.415  18.576  0.00  0.00    +0.000 A 
ATOM     22  C   UNL     1       2.333   3.654  17.689  0.00  0.00    +0.000 A 
ATOM     23  C   UNL     1       2.522   2.274  17.572  0.00  0.00    +0.000 A 
ATOM     24  C   UNL     1       3.519   1.641  18.308  0.00  0.00    +0.000 A 
ATOM     25  C   UNL     1       4.325   2.390  19.160  0.00  0.00    +0.000 A 
ATOM     26  C   UNL     1       4.113   3.766  19.303  0.00  0.00    +0.000 A 
ENDBRANCH   7  21
TORSDOF 5
ENDMDL
MODEL 2
REMARK VINA RESULT:      -6.6      3.987      8.127
REMARK  Name = 
REMARK  7 active torsions:
REMARK  status: ('A' for Active; 'I' for Inactive)
REMARK    1  A    between atoms: C_1  and  C_2
REMARK    2  A    between atoms: C_4  and  C_5
REMARK    3  A    between atoms: N_10  and  C_11
REMARK    4  A    between atoms: C_11  and  C_12
REMARK    5  A    between atoms: C_12  and  O_14
REMARK    6  A    between atoms: C_17  and  C_18
REMARK    7  A    between atoms: N_19  and  C_20
REMARK                            x       y       z     vdW  Elec       q    Type
REMARK                         _______ _______ _______ _____ _____    ______ ____
ROOT
ATOM      1  C   UNL     1       0.497   9.371  22.786  0.00  0.00    +0.000 C 
ATOM      2  C   UNL     1       1.006   9.164  21.398  0.00  0.00    +0.000 A 
ATOM      3  C   UNL     1       1.757   8.083  20.974  0.00  0.00    +0.000 A 
ATOM      4  C   UNL     1       1.915   8.192  19.589  0.00  0.00    +0.000 A 
ATOM      5  C   UNL     1       1.280   9.343  19.161  0.00  0.00    +0.000 A 
ATOM      6  C   UNL     1       1.280   9.910  17.776  0.00  0.00    +0.000 C 
ATOM      7  N   UNL     1       0.716   9.970  20.287  0.00  0.00    +0.000 N 
ENDROOT
BRANCH   4   8
ATOM      8  C   UNL     1       2.595   7.271  18.746  0.00  0.00    +0.000 C 
ATOM      9  C   UNL     1       2.556   5.935  18.835  0.00  0.00    +0.000 C 
ATOM     10  S   UNL     1       3.467   4.909  17.787  0.00  0.00    +0.000 S 
ATOM     11  C   UNL     1       2.866   3.440  18.543  0.00  0.00    +0.000 C 
ATOM     12  S   UNL     1       3.383   1.929  18.064  0.00  0.00    +0.000 S 
ATOM     13  N   UNL     1       1.951   3.760  19.524  0.00  0.00    +0.000 N 
ATOM     14  C   UNL     1       1.790   5.104  19.802  0.00  0.00    +0.000 C 
ATOM     15  O   UNL     1       1.169   5.500  20.780  0.00  0.00    +0.000 OA
BRANCH  13  16
ATOM     16  C   UNL     1       1.174   2.780  20.282  0.00  0.00    +0.000 C 
BRANCH  16  17
ATOM     17  C   UNL     1       1.716   2.555  21.685  0.00  0.00    +0.000 C 
ATOM     18  O   UNL     1       2.910   2.493  21.944  0.00  0.00    +0.000 OA
BRANCH  17  19
ATOM     19  O   UNL     1       0.768   2.320  22.625  0.00  0.00    +0.000 OA
ATOM     20  H   UNL     1       0.040   2.986  22.648  0.00  0.00    +0.000 HD
ENDBRANCH  17  19
ENDBRANCH  16  17
ENDBRANCH  13  16
ENDBRANCH   4   8
BRANCH   7  21
ATOM     21  C   UNL     1      -0.001  11.214  20.294  0.00  0.00    +0.000 A 
ATOM     22  C   UNL     1      -1.362  11.264  19.958  0.00  0.00    +0.000 A 
ATOM     23  C   UNL     1      -2.038  12.485  19.876  0.00  0.00    +0.000 A 
ATOM     24  C   UNL     1      -1.374  13.671  20.173  0.00  0.00    +0.000 A 
ATOM     25  C   UNL     1      -0.036  13.635  20.551  0.00  0.00    +0.000 A 
ATOM     26  C   UNL     1       0.651  12.416  20.599  0.00  0.00    +0.000 A 
ENDBRANCH   7  21
TORSDOF 5
ENDMDL
MODEL 3
REMARK VINA RESULT:      -6.6      5.043      7.658
REMARK  Name = 
REMARK  7 active torsions:
REMARK  status: ('A' for Active; 'I' for Inactive)
REMARK    1  A    between atoms: C_1  and  C_2
REMARK    2  A    between atoms: C_4  and  C_5
REMARK    3  A    between atoms: N_10  and  C_11
REMARK    4  A    between atoms: C_11  and  C_12
REMARK    5  A    between atoms: C_12  and  O_14
REMARK    6  A    between atoms: C_17  and  C_18
REMARK    7  A    between atoms: N_19  and  C_20
REMARK                            x       y       z     vdW  Elec       q    Type
REMARK                         _______ _______ _______ _____ _____    ______ ____
ROOT
ATOM      1  C   UNL     1      -0.405   9.228  22.787  0.00  0.00    +0.000 C 
ATOM      2  C   UNL     1      -0.884  10.583  22.387  0.00  0.00    +0.000 A 
ATOM      3  C   UNL     1      -1.432  11.523  23.241  0.00  0.00    +0.000 A 
ATOM      4  C   UNL     1      -1.622  12.701  22.512  0.00  0.00    +0.000 A 
ATOM      5  C   UNL     1      -1.209  12.486  21.211  0.00  0.00    +0.000 A 
ATOM      6  C   UNL     1      -1.327  13.437  20.060  0.00  0.00    +0.000 C 
ATOM      7  N   UNL     1      -0.756  11.158  21.114  0.00  0.00    +0.000 N 
ENDROOT
BRANCH   4   8
ATOM      8  C   UNL     1      -2.133  13.928  23.017  0.00  0.00    +0.000 C 
ATOM      9  C   UNL     1      -3.418  14.304  23.041  0.00  0.00    +0.000 C 
ATOM     10  S   UNL     1      -3.923  15.846  23.630  0.00  0.00    +0.000 S 
ATOM     11  C   UNL     1      -5.622  15.517  23.321  0.00  0.00    +0.000 C 
ATOM     12  S   UNL     1      -6.805  16.655  23.612  0.00  0.00    +0.000 S 
ATOM     13  N   UNL     1      -5.769  14.234  22.838  0.00  0.00    +0.000 N 
ATOM     14  C   UNL     1      -4.605  13.537  22.576  0.00  0.00    +0.000 C 
ATOM     15  O   UNL     1      -4.600  12.479  21.960  0.00  0.00    +0.000 OA
BRANCH  13  16
ATOM     16  C   UNL     1      -7.056  13.591  22.574  0.00  0.00    +0.000 C 
BRANCH  16  17
ATOM     17  C   UNL     1      -7.534  12.729  23.732  0.00  0.00    +0.000 C 
ATOM     18  O   UNL     1      -7.671  11.516  23.656  0.00  0.00    +0.000 OA
BRANCH  17  19
ATOM     19  O   UNL     1      -7.903  13.422  24.836  0.00  0.00    +0.000 OA
ATOM     20  H   UNL     1      -8.876  13.549  24.935  0.00  0.00    +0.000 HD
ENDBRANCH  17  19
ENDBRANCH  16  17
ENDBRANCH  13  16
ENDBRANCH   4   8
BRANCH   7  21
ATOM     21  C   UNL     1      -0.274  10.511  19.926  0.00  0.00    +0.000 A 
ATOM     22  C   UNL     1       1.089  10.231  19.759  0.00  0.00    +0.000 A 
ATOM     23  C   UNL     1       1.571   9.685  18.566  0.00  0.00    +0.000 A 
ATOM     24  C   UNL     1       0.689   9.368  17.538  0.00  0.00    +0.000 A 
ATOM     25  C   UNL     1      -0.673   9.599  17.704  0.00  0.00    +0.000 A 
ATOM     26  C   UNL     1      -1.151  10.179  18.885  0.00  0.00    +0.000 A 
ENDBRANCH   7  21
TORSDOF 5
ENDMDL
MODEL 4
REMARK VINA RESULT:      -6.4      3.830      6.360
REMARK  Name = 
REMARK  7 active torsions:
REMARK  status: ('A' for Active; 'I' for Inactive)
REMARK    1  A    between atoms: C_1  and  C_2
REMARK    2  A    between atoms: C_4  and  C_5
REMARK    3  A    between atoms: N_10  and  C_11
REMARK    4  A    between atoms: C_11  and  C_12
REMARK    5  A    between atoms: C_12  and  O_14
REMARK    6  A    between atoms: C_17  and  C_18
REMARK    7  A    between atoms: N_19  and  C_20
REMARK                            x       y       z     vdW  Elec       q    Type
REMARK                         _______ _______ _______ _____ _____    ______ ____
ROOT
ATOM      1  C   UNL     1      -1.750   9.906  17.366  0.00  0.00    +0.000 C 
ATOM      2  C   UNL     1      -1.135  10.967  18.216  0.00  0.00    +0.000 A 
ATOM      3  C   UNL     1      -1.684  12.212  18.463  0.00  0.00    +0.000 A 
ATOM      4  C   UNL     1      -0.876  12.853  19.408  0.00  0.00    +0.000 A 
ATOM      5  C   UNL     1       0.175  12.016  19.731  0.00  0.00    +0.000 A 
ATOM      6  C   UNL     1       1.337  12.331  20.621  0.00  0.00    +0.000 C 
ATOM      7  N   UNL     1       0.033  10.834  18.981  0.00  0.00    +0.000 N 
ENDROOT
BRANCH   4   8
ATOM      8  C   UNL     1      -1.098  14.141  19.968  0.00  0.00    +0.000 C 
ATOM      9  C   UNL     1      -1.746  14.411  21.109  0.00  0.00    +0.000 C 
ATOM     10  S   UNL     1      -2.005  16.023  21.669  0.00  0.00    +0.000 S 
ATOM     11  C   UNL     1      -2.855  15.488  23.113  0.00  0.00    +0.000 C 
ATOM     12  S   UNL     1      -3.505  16.570  24.202  0.00  0.00    +0.000 S 
ATOM     13  N   UNL     1      -2.868  14.110  23.163  0.00  0.00    +0.000 N 
ATOM     14  C   UNL     1      -2.358  13.448  22.063  0.00  0.00    +0.000 C 
ATOM     15  O   UNL     1      -2.500  12.243  21.901  0.00  0.00    +0.000 OA
BRANCH  13  16
ATOM     16  C   UNL     1      -3.398  13.328  24.279  0.00  0.00    +0.000 C 
BRANCH  16  17
ATOM     17  C   UNL     1      -4.866  12.970  24.106  0.00  0.00    +0.000 C 
ATOM     18  O   UNL     1      -5.615  13.555  23.336  0.00  0.00    +0.000 OA
BRANCH  17  19
ATOM     19  O   UNL     1      -5.317  12.014  24.954  0.00  0.00    +0.000 OA
ATOM     20  H   UNL     1      -4.671  11.290  25.137  0.00  0.00    +0.000 HD
ENDBRANCH  17  19
ENDBRANCH  16  17
ENDBRANCH  13  16
ENDBRANCH   4   8
BRANCH   7  21
ATOM     21  C   UNL     1       0.932   9.714  18.986  0.00  0.00    +0.000 A 
ATOM     22  C   UNL     1       1.715   9.413  17.863  0.00  0.00    +0.000 A 
ATOM     23  C   UNL     1       2.522   8.272  17.833  0.00  0.00    +0.000 A 
ATOM     24  C   UNL     1       2.591   7.438  18.944  0.00  0.00    +0.000 A 
ATOM     25  C   UNL     1       1.854   7.746  20.083  0.00  0.00    +0.000 A 
ATOM     26  C   UNL     1       1.020   8.870  20.100  0.00  0.00    +0.000 A 
ENDBRANCH   7  21
TORSDOF 5
ENDMDL
MODEL 5
REMARK VINA RESULT:      -6.4      8.524      9.860
REMARK  Name = 
REMARK  7 active torsions:
REMARK  status: ('A' for Active; 'I' for Inactive)
REMARK    1  A    between atoms: C_1  and  C_2
REMARK    2  A    between atoms: C_4  and  C_5
REMARK    3  A    between atoms: N_10  and  C_11
REMARK    4  A    between atoms: C_11  and  C_12
REMARK    5  A    between atoms: C_12  and  O_14
REMARK    6  A    between atoms: C_17  and  C_18
REMARK    7  A    between atoms: N_19  and  C_20
REMARK                            x       y       z     vdW  Elec       q    Type
REMARK                         _______ _______ _______ _____ _____    ______ ____
ROOT
ATOM      1  C   UNL     1      10.517  16.352  16.866  0.00  0.00    +0.000 C 
ATOM      2  C   UNL     1       9.576  16.152  18.006  0.00  0.00    +0.000 A 
ATOM      3  C   UNL     1       8.576  17.031  18.381  0.00  0.00    +0.000 A 
ATOM      4  C   UNL     1       7.834  16.423  19.399  0.00  0.00    +0.000 A 
ATOM      5  C   UNL     1       8.382  15.181  19.662  0.00  0.00    +0.000 A 
ATOM      6  C   UNL     1       7.974  14.228  20.742  0.00  0.00    +0.000 C 
ATOM      7  N   UNL     1       9.482  15.003  18.805  0.00  0.00    +0.000 N 
ENDROOT
BRANCH   4   8
ATOM      8  C   UNL     1       6.693  16.968  20.047  0.00  0.00    +0.000 C 
ATOM      9  C   UNL     1       5.412  16.720  19.744  0.00  0.00    +0.000 C 
ATOM     10  S   UNL     1       4.100  17.483  20.566  0.00  0.00    +0.000 S 
ATOM     11  C   UNL     1       2.886  16.644  19.610  0.00  0.00    +0.000 C 
ATOM     12  S   UNL     1       1.256  16.930  19.812  0.00  0.00    +0.000 S 
ATOM     13  N   UNL     1       3.499  15.769  18.739  0.00  0.00    +0.000 N 
ATOM     14  C   UNL     1       4.880  15.814  18.691  0.00  0.00    +0.000 C 
ATOM     15  O   UNL     1       5.524  15.241  17.822  0.00  0.00    +0.000 OA
BRANCH  13  16
ATOM     16  C   UNL     1       2.789  14.833  17.868  0.00  0.00    +0.000 C 
BRANCH  16  17
ATOM     17  C   UNL     1       2.662  13.444  18.474  0.00  0.00    +0.000 C 
ATOM     18  O   UNL     1       2.616  13.236  19.678  0.00  0.00    +0.000 OA
BRANCH  17  19
ATOM     19  O   UNL     1       2.708  12.431  17.575  0.00  0.00    +0.000 OA
ATOM     20  H   UNL     1       2.891  11.544  17.965  0.00  0.00    +0.000 HD
ENDBRANCH  17  19
ENDBRANCH  16  17
ENDBRANCH  13  16
ENDBRANCH   4   8
BRANCH   7  21
ATOM     21  C   UNL     1      10.358  13.865  18.774  0.00  0.00    +0.000 A 
ATOM     22  C   UNL     1      10.100  12.779  17.925  0.00  0.00    +0.000 A 
ATOM     23  C   UNL     1      10.899  11.633  17.961  0.00  0.00    +0.000 A 
ATOM     24  C   UNL     1      11.996  11.573  18.814  0.00  0.00    +0.000 A 
ATOM     25  C   UNL     1      12.292  12.660  19.632  0.00  0.00    +0.000 A 
ATOM     26  C   UNL     1      11.471  13.794  19.621  0.00  0.00    +0.000 A 
ENDBRANCH   7  21
TORSDOF 5
ENDMDL
MODEL 6
REMARK VINA RESULT:      -6.4      3.617      5.478
REMARK  Name = 
REMARK  7 active torsions:
REMARK  status: ('A' for Active; 'I' for Inactive)
REMARK    1  A    between atoms: C_1  and  C_2
REMARK    2  A    between atoms: C_4  and  C_5
REMARK    3  A    between atoms: N_10  and  C_11
REMARK    4  A    between atoms: C_11  and  C_12
REMARK    5  A    between atoms: C_12  and  O_14
REMARK    6  A    between atoms: C_17  and  C_18
REMARK    7  A    between atoms: N_19  and  C_20
REMARK                            x       y       z     vdW  Elec       q    Type
REMARK                         _______ _______ _______ _____ _____    ______ ____
ROOT
ATOM      1  C   UNL     1       1.767  12.360  19.270  0.00  0.00    +0.000 C 
ATOM      2  C   UNL     1       0.922  11.751  20.338  0.00  0.00    +0.000 A 
ATOM      3  C   UNL     1       0.181  12.454  21.271  0.00  0.00    +0.000 A 
ATOM      4  C   UNL     1      -0.572  11.529  22.001  0.00  0.00    +0.000 A 
ATOM      5  C   UNL     1      -0.287  10.260  21.533  0.00  0.00    +0.000 A 
ATOM      6  C   UNL     1      -0.785   8.963  22.089  0.00  0.00    +0.000 C 
ATOM      7  N   UNL     1       0.658  10.383  20.499  0.00  0.00    +0.000 N 
ENDROOT
BRANCH   4   8
ATOM      8  C   UNL     1      -1.497  11.831  23.038  0.00  0.00    +0.000 C 
ATOM      9  C   UNL     1      -2.761  12.246  22.880  0.00  0.00    +0.000 C 
ATOM     10  S   UNL     1      -3.783  12.636  24.215  0.00  0.00    +0.000 S 
ATOM     11  C   UNL     1      -5.143  13.047  23.179  0.00  0.00    +0.000 C 
ATOM     12  S   UNL     1      -6.584  13.609  23.802  0.00  0.00    +0.000 S 
ATOM     13  N   UNL     1      -4.810  12.823  21.860  0.00  0.00    +0.000 N 
ATOM     14  C   UNL     1      -3.500  12.466  21.607  0.00  0.00    +0.000 C 
ATOM     15  O   UNL     1      -3.035  12.440  20.475  0.00  0.00    +0.000 OA
BRANCH  13  16
ATOM     16  C   UNL     1      -5.738  12.957  20.738  0.00  0.00    +0.000 C 
BRANCH  16  17
ATOM     17  C   UNL     1      -6.443  11.654  20.395  0.00  0.00    +0.000 C 
ATOM     18  O   UNL     1      -6.958  10.927  21.232  0.00  0.00    +0.000 OA
BRANCH  17  19
ATOM     19  O   UNL     1      -6.367  11.300  19.089  0.00  0.00    +0.000 OA
ATOM     20  H   UNL     1      -7.079  11.678  18.519  0.00  0.00    +0.000 HD
ENDBRANCH  17  19
ENDBRANCH  16  17
ENDBRANCH  13  16
ENDBRANCH   4   8
BRANCH   7  21
ATOM     21  C   UNL     1       1.256   9.303  19.764  0.00  0.00    +0.000 A 
ATOM     22  C   UNL     1       1.711   8.150  20.419  0.00  0.00    +0.000 A 
ATOM     23  C   UNL     1       2.375   7.139  19.718  0.00  0.00    +0.000 A 
ATOM     24  C   UNL     1       2.552   7.245  18.342  0.00  0.00    +0.000 A 
ATOM     25  C   UNL     1       2.067   8.363  17.670  0.00  0.00    +0.000 A 
ATOM     26  C   UNL     1       1.434   9.391  18.378  0.00  0.00    +0.000 A 
ENDBRANCH   7  21
TORSDOF 5
ENDMDL
MODEL 7
REMARK VINA RESULT:      -6.3      2.500      3.187
REMARK  Name = 
REMARK  7 active torsions:
REMARK  status: ('A' for Active; 'I' for Inactive)
REMARK    1  A    between atoms: C_1  and  C_2
REMARK    2  A    between atoms: C_4  and  C_5
REMARK    3  A    between atoms: N_10  and  C_11
REMARK    4  A    between atoms: C_11  and  C_12
REMARK    5  A    between atoms: C_12  and  O_14
REMARK    6  A    between atoms: C_17  and  C_18
REMARK    7  A    between atoms: N_19  and  C_20
REMARK                            x       y       z     vdW  Elec       q    Type
REMARK                         _______ _______ _______ _____ _____    ______ ____
ROOT
ATOM      1  C   UNL     1       6.504   5.655  17.969  0.00  0.00    +0.000 C 
ATOM      2  C   UNL     1       5.063   6.038  17.998  0.00  0.00    +0.000 A 
ATOM      3  C   UNL     1       4.566   7.305  17.748  0.00  0.00    +0.000 A 
ATOM      4  C   UNL     1       3.170   7.220  17.739  0.00  0.00    +0.000 A 
ATOM      5  C   UNL     1       2.805   5.912  17.998  0.00  0.00    +0.000 A 
ATOM      6  C   UNL     1       1.417   5.384  18.183  0.00  0.00    +0.000 C 
ATOM      7  N   UNL     1       3.982   5.162  18.175  0.00  0.00    +0.000 N 
ENDROOT
BRANCH   4   8
ATOM      8  C   UNL     1       2.265   8.287  17.485  0.00  0.00    +0.000 C 
ATOM      9  C   UNL     1       1.575   8.979  18.401  0.00  0.00    +0.000 C 
ATOM     10  S   UNL     1       0.458  10.224  17.975  0.00  0.00    +0.000 S 
ATOM     11  C   UNL     1       0.048  10.564  19.651  0.00  0.00    +0.000 C 
ATOM     12  S   UNL     1      -1.097  11.703  20.062  0.00  0.00    +0.000 S 
ATOM     13  N   UNL     1       0.806   9.772  20.487  0.00  0.00    +0.000 N 
ATOM     14  C   UNL     1       1.602   8.820  19.880  0.00  0.00    +0.000 C 
ATOM     15  O   UNL     1       2.157   7.931  20.512  0.00  0.00    +0.000 OA
BRANCH  13  16
ATOM     16  C   UNL     1       0.800   9.866  21.946  0.00  0.00    +0.000 C 
BRANCH  16  17
ATOM     17  C   UNL     1      -0.425   9.221  22.575  0.00  0.00    +0.000 C 
ATOM     18  O   UNL     1      -0.854   8.125  22.242  0.00  0.00    +0.000 OA
BRANCH  17  19
ATOM     19  O   UNL     1      -1.077  10.003  23.469  0.00  0.00    +0.000 OA
ATOM     20  H   UNL     1      -1.098   9.646  24.389  0.00  0.00    +0.000 HD
ENDBRANCH  17  19
ENDBRANCH  16  17
ENDBRANCH  13  16
ENDBRANCH   4   8
BRANCH   7  21
ATOM     21  C   UNL     1       4.056   3.765  18.500  0.00  0.00    +0.000 A 
ATOM     22  C   UNL     1       3.690   2.787  17.565  0.00  0.00    +0.000 A 
ATOM     23  C   UNL     1       3.674   1.432  17.910  0.00  0.00    +0.000 A 
ATOM     24  C   UNL     1       4.068   1.032  19.183  0.00  0.00    +0.000 A 
ATOM     25  C   UNL     1       4.476   1.987  20.109  0.00  0.00    +0.000 A 
ATOM     26  C   UNL     1       4.458   3.346  19.775  0.00  0.00    +0.000 A 
ENDBRANCH   7  21
TORSDOF 5
ENDMDL
MODEL 8
REMARK VINA RESULT:      -6.3      5.096      7.480
REMARK  Name = 
REMARK  7 active torsions:
REMARK  status: ('A' for Active; 'I' for Inactive)
REMARK    1  A    between atoms: C_1  and  C_2
REMARK    2  A    between atoms: C_4  and  C_5
REMARK    3  A    between atoms: N_10  and  C_11
REMARK    4  A    between atoms: C_11  and  C_12
REMARK    5  A    between atoms: C_12  and  O_14
REMARK    6  A    between atoms: C_17  and  C_18
REMARK    7  A    between atoms: N_19  and  C_20
REMARK                            x       y       z     vdW  Elec       q    Type
REMARK                         _______ _______ _______ _____ _____    ______ ____
ROOT
ATOM      1  C   UNL     1      -0.480   9.160  22.733  0.00  0.00    +0.000 C 
ATOM      2  C   UNL     1      -1.010  10.516  22.408  0.00  0.00    +0.000 A 
ATOM      3  C   UNL     1      -1.639  11.365  23.301  0.00  0.00    +0.000 A 
ATOM      4  C   UNL     1      -1.861  12.581  22.648  0.00  0.00    +0.000 A 
ATOM      5  C   UNL     1      -1.386  12.481  21.354  0.00  0.00    +0.000 A 
ATOM      6  C   UNL     1      -1.506  13.504  20.268  0.00  0.00    +0.000 C 
ATOM      7  N   UNL     1      -0.862  11.186  21.185  0.00  0.00    +0.000 N 
ENDROOT
BRANCH   4   8
ATOM      8  C   UNL     1      -2.453  13.743  23.214  0.00  0.00    +0.000 C 
ATOM      9  C   UNL     1      -3.737  14.111  23.112  0.00  0.00    +0.000 C 
ATOM     10  S   UNL     1      -4.339  15.576  23.798  0.00  0.00    +0.000 S 
ATOM     11  C   UNL     1      -5.979  15.279  23.237  0.00  0.00    +0.000 C 
ATOM     12  S   UNL     1      -7.209  16.374  23.495  0.00  0.00    +0.000 S 
ATOM     13  N   UNL     1      -6.041  14.057  22.601  0.00  0.00    +0.000 N 
ATOM     14  C   UNL     1      -4.841  13.397  22.417  0.00  0.00    +0.000 C 
ATOM     15  O   UNL     1      -4.739  12.414  21.693  0.00  0.00    +0.000 OA
BRANCH  13  16
ATOM     16  C   UNL     1      -7.272  13.444  22.103  0.00  0.00    +0.000 C 
BRANCH  16  17
ATOM     17  C   UNL     1      -7.613  12.143  22.812  0.00  0.00    +0.000 C 
ATOM     18  O   UNL     1      -7.916  12.081  23.996  0.00  0.00    +0.000 OA
BRANCH  17  19
ATOM     19  O   UNL     1      -7.453  11.030  22.056  0.00  0.00    +0.000 OA
ATOM     20  H   UNL     1      -8.115  10.319  22.227  0.00  0.00    +0.000 HD
ENDBRANCH  17  19
ENDBRANCH  16  17
ENDBRANCH  13  16
ENDBRANCH   4   8
BRANCH   7  21
ATOM     21  C   UNL     1      -0.301  10.650  19.976  0.00  0.00    +0.000 A 
ATOM     22  C   UNL     1      -1.126  10.231  18.922  0.00  0.00    +0.000 A 
ATOM     23  C   UNL     1      -0.586   9.625  17.784  0.00  0.00    +0.000 A 
ATOM     24  C   UNL     1       0.791   9.470  17.663  0.00  0.00    +0.000 A 
ATOM     25  C   UNL     1       1.627   9.920  18.681  0.00  0.00    +0.000 A 
ATOM     26  C   UNL     1       1.084  10.495  19.836  0.00  0.00    +0.000 A 
ENDBRANCH   7  21
TORSDOF 5
ENDMDL
MODEL 9
REMARK VINA RESULT:      -6.3      3.661      5.560
REMARK  Name = 
REMARK  7 active torsions:
REMARK  status: ('A' for Active; 'I' for Inactive)
REMARK    1  A    between atoms: C_1  and  C_2
REMARK    2  A    between atoms: C_4  and  C_5
REMARK    3  A    between atoms: N_10  and  C_11
REMARK    4  A    between atoms: C_11  and  C_12
REMARK    5  A    between atoms: C_12  and  O_14
REMARK    6  A    between atoms: C_17  and  C_18
REMARK    7  A    between atoms: N_19  and  C_20
REMARK                            x       y       z     vdW  Elec       q    Type
REMARK                         _______ _______ _______ _____ _____    ______ ____
ROOT
ATOM      1  C   UNL     1       1.700  12.497  19.367  0.00  0.00    +0.000 C 
ATOM      2  C   UNL     1       0.867  11.865  20.432  0.00  0.00    +0.000 A 
ATOM      3  C   UNL     1       0.101  12.547  21.360  0.00  0.00    +0.000 A 
ATOM      4  C   UNL     1      -0.628  11.601  22.088  0.00  0.00    +0.000 A 
ATOM      5  C   UNL     1      -0.302  10.340  21.624  0.00  0.00    +0.000 A 
ATOM      6  C   UNL     1      -0.763   9.029  22.180  0.00  0.00    +0.000 C 
ATOM      7  N   UNL     1       0.645  10.489  20.595  0.00  0.00    +0.000 N 
ENDROOT
BRANCH   4   8
ATOM      8  C   UNL     1      -1.567  11.876  23.119  0.00  0.00    +0.000 C 
ATOM      9  C   UNL     1      -2.838  12.265  22.954  0.00  0.00    +0.000 C 
ATOM     10  S   UNL     1      -3.878  12.625  24.284  0.00  0.00    +0.000 S 
ATOM     11  C   UNL     1      -5.239  13.013  23.240  0.00  0.00    +0.000 C 
ATOM     12  S   UNL     1      -6.696  13.540  23.855  0.00  0.00    +0.000 S 
ATOM     13  N   UNL     1      -4.892  12.804  21.922  0.00  0.00    +0.000 N 
ATOM     14  C   UNL     1      -3.572  12.477  21.677  0.00  0.00    +0.000 C 
ATOM     15  O   UNL     1      -3.098  12.468  20.548  0.00  0.00    +0.000 OA
BRANCH  13  16
ATOM     16  C   UNL     1      -5.814  12.926  20.794  0.00  0.00    +0.000 C 
BRANCH  16  17
ATOM     17  C   UNL     1      -6.378  11.587  20.345  0.00  0.00    +0.000 C 
ATOM     18  O   UNL     1      -6.196  11.119  19.230  0.00  0.00    +0.000 OA
BRANCH  17  19
ATOM     19  O   UNL     1      -7.195  10.989  21.246  0.00  0.00    +0.000 OA
ATOM     20  H   UNL     1      -6.807  10.198  21.691  0.00  0.00    +0.000 HD
ENDBRANCH  17  19
ENDBRANCH  16  17
ENDBRANCH  13  16
ENDBRANCH   4   8
BRANCH   7  21
ATOM     21  C   UNL     1       1.278   9.426  19.865  0.00  0.00    +0.000 A 
ATOM     22  C   UNL     1       1.482   9.523  18.481  0.00  0.00    +0.000 A 
ATOM     23  C   UNL     1       2.015   8.453  17.756  0.00  0.00    +0.000 A 
ATOM     24  C   UNL     1       2.394   7.286  18.412  0.00  0.00    +0.000 A 
ATOM     25  C   UNL     1       2.240   7.191  19.792  0.00  0.00    +0.000 A 
ATOM     26  C   UNL     1       1.674   8.249  20.513  0.00  0.00    +0.000 A 
ENDBRANCH   7  21
TORSDOF 5
ENDMDL
