MODEL 1
REMARK VINA RESULT:      -7.7      0.000      0.000
REMARK  Name = 
REMARK  8 active torsions:
REMARK  status: ('A' for Active; 'I' for Inactive)
REMARK    1  A    between atoms: C_1  and  C_2
REMARK    2  A    between atoms: C_2  and  C_3
REMARK    3  A    between atoms: C_3  and  O_4
REMARK    4  A    between atoms: O_4  and  C_5
REMARK    5  A    between atoms: C_5  and  C_7
REMARK    6  A    between atoms: C_11  and  O_12
REMARK    7  A    between atoms: C_19  and  C_20
REMARK    8  A    between atoms: C_21  and  O_22
REMARK                            x       y       z     vdW  Elec       q    Type
REMARK                         _______ _______ _______ _____ _____    ______ ____
ROOT
ATOM      1  C   UNL     1       3.446   5.028  19.274  0.00  0.00    +0.000 C 
ATOM      2  C   UNL     1       2.745   5.853  20.367  0.00  0.00    +0.000 C 
ATOM      3  C   UNL     1       2.165   7.173  19.900  0.00  0.00    +0.000 A 
ATOM      4  C   UNL     1       1.365   7.895  20.810  0.00  0.00    +0.000 A 
ATOM      5  C   UNL     1       0.807   9.110  20.437  0.00  0.00    +0.000 A 
ATOM      6  C   UNL     1       1.024   9.622  19.170  0.00  0.00    +0.000 A 
ATOM      7  C   UNL     1       1.820   8.923  18.265  0.00  0.00    +0.000 A 
ATOM      8  C   UNL     1       2.423   7.701  18.617  0.00  0.00    +0.000 A 
ATOM      9  C   UNL     1       3.268   6.922  17.607  0.00  0.00    +0.000 C 
ATOM     10  C   UNL     1       3.984   7.804  16.551  0.00  0.00    +0.000 C 
ATOM     11  C   UNL     1       4.931   7.017  15.635  0.00  0.00    +0.000 C 
ATOM     12  C   UNL     1       5.941   6.204  16.446  0.00  0.00    +0.000 C 
ATOM     13  C   UNL     1       6.899   7.171  17.190  0.00  0.00    +0.000 C 
ATOM     14  C   UNL     1       6.739   5.169  15.630  0.00  0.00    +0.000 C 
ATOM     15  C   UNL     1       7.188   4.129  16.678  0.00  0.00    +0.000 C 
ATOM     16  C   UNL     1       6.241   4.303  17.882  0.00  0.00    +0.000 C 
ATOM     17  C   UNL     1       5.151   5.238  17.356  0.00  0.00    +0.000 C 
ATOM     18  C   UNL     1       4.248   5.969  18.354  0.00  0.00    +0.000 C 
ENDROOT
BRANCH   1  19
ATOM     19  C   UNL     1       2.409   4.157  18.564  0.00  0.00    +0.000 C 
ATOM     20  O   UNL     1       1.515   4.578  17.844  0.00  0.00    +0.000 OA
BRANCH  19  21
ATOM     21  O   UNL     1       2.570   2.844  18.902  0.00  0.00    +0.000 OA
BRANCH  21  22
ATOM     22  C   UNL     1       1.411   2.202  19.458  0.00  0.00    +0.000 C 
BRANCH  22  24
ATOM     23  C   UNL     1       2.071   2.589  21.878  0.00  0.00    +0.000 C 
ATOM     24  C   UNL     1       1.007   2.779  20.809  0.00  0.00    +0.000 C 
ENDBRANCH  22  24
ENDBRANCH  21  22
ENDBRANCH  19  21
ENDBRANCH   1  19
BRANCH   5  25
ATOM     25  O   UNL     1       0.028   9.833  21.289  0.00  0.00    +0.000 OA
ATOM     26  H   UNL     1       0.053   9.407  22.163  0.00  0.00    +0.000 HD
ENDBRANCH   5  25
BRANCH  14  27
ATOM     27  O   UNL     1       7.825   5.712  14.907  0.00  0.00    +0.000 OA
ATOM     28  H   UNL     1       7.490   6.119  14.093  0.00  0.00    +0.000 HD
ENDBRANCH  14  27
TORSDOF 6
ENDMDL
MODEL 2
REMARK VINA RESULT:      -7.5      0.871      1.023
REMARK  Name = 
REMARK  8 active torsions:
REMARK  status: ('A' for Active; 'I' for Inactive)
REMARK    1  A    between atoms: C_1  and  C_2
REMARK    2  A    between atoms: C_2  and  C_3
REMARK    3  A    between atoms: C_3  and  O_4
REMARK    4  A    between atoms: O_4  and  C_5
REMARK    5  A    between atoms: C_5  and  C_7
REMARK    6  A    between atoms: C_11  and  O_12
REMARK    7  A    between atoms: C_19  and  C_20
REMARK    8  A    between atoms: C_21  and  O_22
REMARK                            x       y       z     vdW  Elec       q    Type
REMARK                         _______ _______ _______ _____ _____    ______ ____
ROOT
ATOM      1  C   UNL     1       3.210   5.196  19.563  0.00  0.00    +0.000 C 
ATOM      2  C   UNL     1       2.490   6.051  20.620  0.00  0.00    +0.000 C 
ATOM      3  C   UNL     1       1.930   7.363  20.110  0.00  0.00    +0.000 A 
ATOM      4  C   UNL     1       1.115   8.112  20.985  0.00  0.00    +0.000 A 
ATOM      5  C   UNL     1       0.574   9.322  20.571  0.00  0.00    +0.000 A 
ATOM      6  C   UNL     1       0.823   9.803  19.298  0.00  0.00    +0.000 A 
ATOM      7  C   UNL     1       1.635   9.078  18.428  0.00  0.00    +0.000 A 
ATOM      8  C   UNL     1       2.220   7.860  18.822  0.00  0.00    +0.000 A 
ATOM      9  C   UNL     1       3.083   7.053  17.849  0.00  0.00    +0.000 C 
ATOM     10  C   UNL     1       3.829   7.905  16.790  0.00  0.00    +0.000 C 
ATOM     11  C   UNL     1       4.791   7.092  15.914  0.00  0.00    +0.000 C 
ATOM     12  C   UNL     1       5.777   6.291  16.766  0.00  0.00    +0.000 C 
ATOM     13  C   UNL     1       6.724   7.268  17.510  0.00  0.00    +0.000 C 
ATOM     14  C   UNL     1       6.586   5.232  15.992  0.00  0.00    +0.000 C 
ATOM     15  C   UNL     1       7.003   4.214  17.074  0.00  0.00    +0.000 C 
ATOM     16  C   UNL     1       6.030   4.422  18.251  0.00  0.00    +0.000 C 
ATOM     17  C   UNL     1       4.959   5.352  17.679  0.00  0.00    +0.000 C 
ATOM     18  C   UNL     1       4.039   6.111  18.640  0.00  0.00    +0.000 C 
ENDROOT
BRANCH   1  19
ATOM     19  C   UNL     1       2.183   4.316  18.849  0.00  0.00    +0.000 C 
ATOM     20  O   UNL     1       1.649   4.586  17.783  0.00  0.00    +0.000 OA
BRANCH  19  21
ATOM     21  O   UNL     1       1.884   3.218  19.602  0.00  0.00    +0.000 OA
BRANCH  21  22
ATOM     22  C   UNL     1       2.078   1.951  18.955  0.00  0.00    +0.000 C 
BRANCH  22  24
ATOM     23  C   UNL     1       4.422   1.737  19.905  0.00  0.00    +0.000 C 
ATOM     24  C   UNL     1       3.545   1.654  18.665  0.00  0.00    +0.000 C 
ENDBRANCH  22  24
ENDBRANCH  21  22
ENDBRANCH  19  21
ENDBRANCH   1  19
BRANCH   5  25
ATOM     25  O   UNL     1      -0.219  10.068  21.389  0.00  0.00    +0.000 OA
ATOM     26  H   UNL     1      -0.386   9.561  22.202  0.00  0.00    +0.000 HD
ENDBRANCH   5  25
BRANCH  14  27
ATOM     27  O   UNL     1       7.692   5.751  15.282  0.00  0.00    +0.000 OA
ATOM     28  H   UNL     1       7.758   6.704  15.454  0.00  0.00    +0.000 HD
ENDBRANCH  14  27
TORSDOF 6
ENDMDL
MODEL 3
REMARK VINA RESULT:      -7.4      1.898      5.169
REMARK  Name = 
REMARK  8 active torsions:
REMARK  status: ('A' for Active; 'I' for Inactive)
REMARK    1  A    between atoms: C_1  and  C_2
REMARK    2  A    between atoms: C_2  and  C_3
REMARK    3  A    between atoms: C_3  and  O_4
REMARK    4  A    between atoms: O_4  and  C_5
REMARK    5  A    between atoms: C_5  and  C_7
REMARK    6  A    between atoms: C_11  and  O_12
REMARK    7  A    between atoms: C_19  and  C_20
REMARK    8  A    between atoms: C_21  and  O_22
REMARK                            x       y       z     vdW  Elec       q    Type
REMARK                         _______ _______ _______ _____ _____    ______ ____
ROOT
ATOM      1  C   UNL     1       3.836   6.280  17.416  0.00  0.00    +0.000 C 
ATOM      2  C   UNL     1       3.269   7.669  17.075  0.00  0.00    +0.000 C 
ATOM      3  C   UNL     1       2.468   8.324  18.184  0.00  0.00    +0.000 A 
ATOM      4  C   UNL     1       2.066   9.662  17.998  0.00  0.00    +0.000 A 
ATOM      5  C   UNL     1       1.330  10.313  18.980  0.00  0.00    +0.000 A 
ATOM      6  C   UNL     1       0.990   9.659  20.151  0.00  0.00    +0.000 A 
ATOM      7  C   UNL     1       1.373   8.333  20.342  0.00  0.00    +0.000 A 
ATOM      8  C   UNL     1       2.097   7.634  19.358  0.00  0.00    +0.000 A 
ATOM      9  C   UNL     1       2.544   6.189  19.589  0.00  0.00    +0.000 C 
ATOM     10  C   UNL     1       1.614   5.369  20.522  0.00  0.00    +0.000 C 
ATOM     11  C   UNL     1       2.005   3.889  20.631  0.00  0.00    +0.000 C 
ATOM     12  C   UNL     1       2.109   3.238  19.251  0.00  0.00    +0.000 C 
ATOM     13  C   UNL     1       0.700   3.181  18.604  0.00  0.00    +0.000 C 
ATOM     14  C   UNL     1       2.768   1.846  19.243  0.00  0.00    +0.000 C 
ATOM     15  C   UNL     1       3.292   1.687  17.801  0.00  0.00    +0.000 C 
ATOM     16  C   UNL     1       3.388   3.113  17.223  0.00  0.00    +0.000 C 
ATOM     17  C   UNL     1       3.169   4.014  18.440  0.00  0.00    +0.000 C 
ATOM     18  C   UNL     1       2.793   5.482  18.223  0.00  0.00    +0.000 C 
ENDROOT
BRANCH   1  19
ATOM     19  C   UNL     1       5.192   6.450  18.102  0.00  0.00    +0.000 C 
ATOM     20  O   UNL     1       5.533   5.887  19.132  0.00  0.00    +0.000 OA
BRANCH  19  21
ATOM     21  O   UNL     1       5.950   7.378  17.446  0.00  0.00    +0.000 OA
BRANCH  21  22
ATOM     22  C   UNL     1       7.341   7.052  17.302  0.00  0.00    +0.000 C 
BRANCH  22  24
ATOM     23  C   UNL     1       8.240   9.323  17.993  0.00  0.00    +0.000 C 
ATOM     24  C   UNL     1       8.232   7.827  18.266  0.00  0.00    +0.000 C 
ENDBRANCH  22  24
ENDBRANCH  21  22
ENDBRANCH  19  21
ENDBRANCH   1  19
BRANCH   5  25
ATOM     25  O   UNL     1       0.928  11.606  18.835  0.00  0.00    +0.000 OA
ATOM     26  H   UNL     1       1.717  12.161  18.712  0.00  0.00    +0.000 HD
ENDBRANCH   5  25
BRANCH  14  27
ATOM     27  O   UNL     1       1.907   0.793  19.625  0.00  0.00    +0.000 OA
ATOM     28  H   UNL     1       2.256  -0.043  19.277  0.00  0.00    +0.000 HD
ENDBRANCH  14  27
TORSDOF 6
ENDMDL
MODEL 4
REMARK VINA RESULT:      -7.3      1.733      4.971
REMARK  Name = 
REMARK  8 active torsions:
REMARK  status: ('A' for Active; 'I' for Inactive)
REMARK    1  A    between atoms: C_1  and  C_2
REMARK    2  A    between atoms: C_2  and  C_3
REMARK    3  A    between atoms: C_3  and  O_4
REMARK    4  A    between atoms: O_4  and  C_5
REMARK    5  A    between atoms: C_5  and  C_7
REMARK    6  A    between atoms: C_11  and  O_12
REMARK    7  A    between atoms: C_19  and  C_20
REMARK    8  A    between atoms: C_21  and  O_22
REMARK                            x       y       z     vdW  Elec       q    Type
REMARK                         _______ _______ _______ _____ _____    ______ ____
ROOT
ATOM      1  C   UNL     1       3.927   6.212  17.419  0.00  0.00    +0.000 C 
ATOM      2  C   UNL     1       3.383   7.592  17.013  0.00  0.00    +0.000 C 
ATOM      3  C   UNL     1       2.543   8.285  18.067  0.00  0.00    +0.000 A 
ATOM      4  C   UNL     1       2.156   9.619  17.824  0.00  0.00    +0.000 A 
ATOM      5  C   UNL     1       1.386  10.304  18.755  0.00  0.00    +0.000 A 
ATOM      6  C   UNL     1       0.996   9.688  19.931  0.00  0.00    +0.000 A 
ATOM      7  C   UNL     1       1.363   8.367  20.179  0.00  0.00    +0.000 A 
ATOM      8  C   UNL     1       2.121   7.634  19.247  0.00  0.00    +0.000 A 
ATOM      9  C   UNL     1       2.549   6.195  19.541  0.00  0.00    +0.000 C 
ATOM     10  C   UNL     1       1.578   5.410  20.460  0.00  0.00    +0.000 C 
ATOM     11  C   UNL     1       1.956   3.932  20.632  0.00  0.00    +0.000 C 
ATOM     12  C   UNL     1       2.110   3.237  19.278  0.00  0.00    +0.000 C 
ATOM     13  C   UNL     1       0.728   3.166  18.577  0.00  0.00    +0.000 C 
ATOM     14  C   UNL     1       2.761   1.842  19.340  0.00  0.00    +0.000 C 
ATOM     15  C   UNL     1       3.341   1.635  17.925  0.00  0.00    +0.000 C 
ATOM     16  C   UNL     1       3.468   3.042  17.308  0.00  0.00    +0.000 C 
ATOM     17  C   UNL     1       3.206   3.982  18.486  0.00  0.00    +0.000 C 
ATOM     18  C   UNL     1       2.849   5.445  18.208  0.00  0.00    +0.000 C 
ENDROOT
BRANCH   1  19
ATOM     19  C   UNL     1       5.257   6.397  18.153  0.00  0.00    +0.000 C 
ATOM     20  O   UNL     1       5.481   6.034  19.299  0.00  0.00    +0.000 OA
BRANCH  19  21
ATOM     21  O   UNL     1       6.140   7.092  17.379  0.00  0.00    +0.000 OA
BRANCH  21  22
ATOM     22  C   UNL     1       7.336   6.384  17.015  0.00  0.00    +0.000 C 
BRANCH  22  24
ATOM     23  C   UNL     1       6.762   4.827  15.094  0.00  0.00    +0.000 C 
ATOM     24  C   UNL     1       7.063   4.949  16.580  0.00  0.00    +0.000 C 
ENDBRANCH  22  24
ENDBRANCH  21  22
ENDBRANCH  19  21
ENDBRANCH   1  19
BRANCH   5  25
ATOM     25  O   UNL     1       0.998  11.594  18.554  0.00  0.00    +0.000 OA
ATOM     26  H   UNL     1       0.615  11.664  17.663  0.00  0.00    +0.000 HD
ENDBRANCH   5  25
BRANCH  14  27
ATOM     27  O   UNL     1       1.878   0.806  19.720  0.00  0.00    +0.000 OA
ATOM     28  H   UNL     1       0.988   1.015  19.394  0.00  0.00    +0.000 HD
ENDBRANCH  14  27
TORSDOF 6
ENDMDL
MODEL 5
REMARK VINA RESULT:      -7.2      1.711      4.774
REMARK  Name = 
REMARK  8 active torsions:
REMARK  status: ('A' for Active; 'I' for Inactive)
REMARK    1  A    between atoms: C_1  and  C_2
REMARK    2  A    between atoms: C_2  and  C_3
REMARK    3  A    between atoms: C_3  and  O_4
REMARK    4  A    between atoms: O_4  and  C_5
REMARK    5  A    between atoms: C_5  and  C_7
REMARK    6  A    between atoms: C_11  and  O_12
REMARK    7  A    between atoms: C_19  and  C_20
REMARK    8  A    between atoms: C_21  and  O_22
REMARK                            x       y       z     vdW  Elec       q    Type
REMARK                         _______ _______ _______ _____ _____    ______ ____
ROOT
ATOM      1  C   UNL     1       3.079   6.645  17.453  0.00  0.00    +0.000 C 
ATOM      2  C   UNL     1       2.374   8.012  17.444  0.00  0.00    +0.000 C 
ATOM      3  C   UNL     1       1.882   8.488  18.797  0.00  0.00    +0.000 A 
ATOM      4  C   UNL     1       1.381   9.803  18.886  0.00  0.00    +0.000 A 
ATOM      5  C   UNL     1       0.917  10.293  20.100  0.00  0.00    +0.000 A 
ATOM      6  C   UNL     1       0.946   9.500  21.233  0.00  0.00    +0.000 A 
ATOM      7  C   UNL     1       1.430   8.196  21.156  0.00  0.00    +0.000 A 
ATOM      8  C   UNL     1       1.885   7.658  19.938  0.00  0.00    +0.000 A 
ATOM      9  C   UNL     1       2.447   6.236  19.868  0.00  0.00    +0.000 C 
ATOM     10  C   UNL     1       1.853   5.257  20.914  0.00  0.00    +0.000 C 
ATOM     11  C   UNL     1       2.329   3.808  20.739  0.00  0.00    +0.000 C 
ATOM     12  C   UNL     1       2.076   3.309  19.316  0.00  0.00    +0.000 C 
ATOM     13  C   UNL     1       0.548   3.206  19.072  0.00  0.00    +0.000 C 
ATOM     14  C   UNL     1       2.773   1.980  18.966  0.00  0.00    +0.000 C 
ATOM     15  C   UNL     1       2.883   2.008  17.427  0.00  0.00    +0.000 C 
ATOM     16  C   UNL     1       2.746   3.487  17.017  0.00  0.00    +0.000 C 
ATOM     17  C   UNL     1       2.832   4.242  18.345  0.00  0.00    +0.000 C 
ATOM     18  C   UNL     1       2.341   5.691  18.412  0.00  0.00    +0.000 C 
ENDROOT
BRANCH   1  19
ATOM     19  C   UNL     1       4.563   6.851  17.761  0.00  0.00    +0.000 C 
ATOM     20  O   UNL     1       5.141   7.928  17.739  0.00  0.00    +0.000 OA
BRANCH  19  21
ATOM     21  O   UNL     1       5.177   5.654  17.992  0.00  0.00    +0.000 OA
BRANCH  21  22
ATOM     22  C   UNL     1       6.394   5.431  17.262  0.00  0.00    +0.000 C 
BRANCH  22  24
ATOM     23  C   UNL     1       5.617   4.730  14.950  0.00  0.00    +0.000 C 
ATOM     24  C   UNL     1       6.277   4.298  16.250  0.00  0.00    +0.000 C 
ENDBRANCH  22  24
ENDBRANCH  21  22
ENDBRANCH  19  21
ENDBRANCH   1  19
BRANCH   5  25
ATOM     25  O   UNL     1       0.429  11.558  20.222  0.00  0.00    +0.000 OA
ATOM     26  H   UNL     1       1.147  12.185  20.028  0.00  0.00    +0.000 HD
ENDBRANCH   5  25
BRANCH  14  27
ATOM     27  O   UNL     1       2.103   0.830  19.440  0.00  0.00    +0.000 OA
ATOM     28  H   UNL     1       2.715   0.078  19.420  0.00  0.00    +0.000 HD
ENDBRANCH  14  27
TORSDOF 6
ENDMDL
MODEL 6
REMARK VINA RESULT:      -7.1      1.763      4.710
REMARK  Name = 
REMARK  8 active torsions:
REMARK  status: ('A' for Active; 'I' for Inactive)
REMARK    1  A    between atoms: C_1  and  C_2
REMARK    2  A    between atoms: C_2  and  C_3
REMARK    3  A    between atoms: C_3  and  O_4
REMARK    4  A    between atoms: O_4  and  C_5
REMARK    5  A    between atoms: C_5  and  C_7
REMARK    6  A    between atoms: C_11  and  O_12
REMARK    7  A    between atoms: C_19  and  C_20
REMARK    8  A    between atoms: C_21  and  O_22
REMARK                            x       y       z     vdW  Elec       q    Type
REMARK                         _______ _______ _______ _____ _____    ______ ____
ROOT
ATOM      1  C   UNL     1       3.145   6.636  17.460  0.00  0.00    +0.000 C 
ATOM      2  C   UNL     1       2.440   8.003  17.423  0.00  0.00    +0.000 C 
ATOM      3  C   UNL     1       1.908   8.485  18.758  0.00  0.00    +0.000 A 
ATOM      4  C   UNL     1       1.403   9.800  18.826  0.00  0.00    +0.000 A 
ATOM      5  C   UNL     1       0.903  10.296  20.023  0.00  0.00    +0.000 A 
ATOM      6  C   UNL     1       0.899   9.508  21.161  0.00  0.00    +0.000 A 
ATOM      7  C   UNL     1       1.385   8.204  21.104  0.00  0.00    +0.000 A 
ATOM      8  C   UNL     1       1.877   7.660  19.903  0.00  0.00    +0.000 A 
ATOM      9  C   UNL     1       2.440   6.238  19.857  0.00  0.00    +0.000 C 
ATOM     10  C   UNL     1       1.816   5.265  20.889  0.00  0.00    +0.000 C 
ATOM     11  C   UNL     1       2.297   3.815  20.736  0.00  0.00    +0.000 C 
ATOM     12  C   UNL     1       2.087   3.308  19.308  0.00  0.00    +0.000 C 
ATOM     13  C   UNL     1       0.567   3.204  19.019  0.00  0.00    +0.000 C 
ATOM     14  C   UNL     1       2.795   1.978  18.986  0.00  0.00    +0.000 C 
ATOM     15  C   UNL     1       2.951   1.998  17.451  0.00  0.00    +0.000 C 
ATOM     16  C   UNL     1       2.826   3.476  17.030  0.00  0.00    +0.000 C 
ATOM     17  C   UNL     1       2.871   4.237  18.356  0.00  0.00    +0.000 C 
ATOM     18  C   UNL     1       2.378   5.687  18.401  0.00  0.00    +0.000 C 
ENDROOT
BRANCH   1  19
ATOM     19  C   UNL     1       4.619   6.844  17.811  0.00  0.00    +0.000 C 
ATOM     20  O   UNL     1       5.213   7.910  17.738  0.00  0.00    +0.000 OA
BRANCH  19  21
ATOM     21  O   UNL     1       5.205   5.658  18.148  0.00  0.00    +0.000 OA
BRANCH  21  22
ATOM     22  C   UNL     1       6.208   5.182  17.236  0.00  0.00    +0.000 C 
BRANCH  22  24
ATOM     23  C   UNL     1       7.766   5.755  19.156  0.00  0.00    +0.000 C 
ATOM     24  C   UNL     1       7.541   4.900  17.919  0.00  0.00    +0.000 C 
ENDBRANCH  22  24
ENDBRANCH  21  22
ENDBRANCH  19  21
ENDBRANCH   1  19
BRANCH   5  25
ATOM     25  O   UNL     1       0.411  11.561  20.124  0.00  0.00    +0.000 OA
ATOM     26  H   UNL     1       1.133  12.150  20.406  0.00  0.00    +0.000 HD
ENDBRANCH   5  25
BRANCH  14  27
ATOM     27  O   UNL     1       2.111   0.830  19.445  0.00  0.00    +0.000 OA
ATOM     28  H   UNL     1       2.162   0.800  20.414  0.00  0.00    +0.000 HD
ENDBRANCH  14  27
TORSDOF 6
ENDMDL
MODEL 7
REMARK VINA RESULT:      -6.8      3.049      6.393
REMARK  Name = 
REMARK  8 active torsions:
REMARK  status: ('A' for Active; 'I' for Inactive)
REMARK    1  A    between atoms: C_1  and  C_2
REMARK    2  A    between atoms: C_2  and  C_3
REMARK    3  A    between atoms: C_3  and  O_4
REMARK    4  A    between atoms: O_4  and  C_5
REMARK    5  A    between atoms: C_5  and  C_7
REMARK    6  A    between atoms: C_11  and  O_12
REMARK    7  A    between atoms: C_19  and  C_20
REMARK    8  A    between atoms: C_21  and  O_22
REMARK                            x       y       z     vdW  Elec       q    Type
REMARK                         _______ _______ _______ _____ _____    ______ ____
ROOT
ATOM      1  C   UNL     1       4.469   5.231  16.262  0.00  0.00    +0.000 C 
ATOM      2  C   UNL     1       5.215   6.572  16.151  0.00  0.00    +0.000 C 
ATOM      3  C   UNL     1       6.307   6.783  17.181  0.00  0.00    +0.000 A 
ATOM      4  C   UNL     1       7.139   7.912  17.031  0.00  0.00    +0.000 A 
ATOM      5  C   UNL     1       8.157   8.156  17.944  0.00  0.00    +0.000 A 
ATOM      6  C   UNL     1       8.369   7.294  19.005  0.00  0.00    +0.000 A 
ATOM      7  C   UNL     1       7.547   6.181  19.170  0.00  0.00    +0.000 A 
ATOM      8  C   UNL     1       6.491   5.916  18.279  0.00  0.00    +0.000 A 
ATOM      9  C   UNL     1       5.615   4.672  18.447  0.00  0.00    +0.000 C 
ATOM     10  C   UNL     1       5.466   4.183  19.911  0.00  0.00    +0.000 C 
ATOM     11  C   UNL     1       4.477   3.020  20.072  0.00  0.00    +0.000 C 
ATOM     12  C   UNL     1       3.114   3.362  19.468  0.00  0.00    +0.000 C 
ATOM     13  C   UNL     1       2.456   4.497  20.295  0.00  0.00    +0.000 C 
ATOM     14  C   UNL     1       2.154   2.165  19.326  0.00  0.00    +0.000 C 
ATOM     15  C   UNL     1       1.181   2.595  18.208  0.00  0.00    +0.000 C 
ATOM     16  C   UNL     1       1.897   3.716  17.429  0.00  0.00    +0.000 C 
ATOM     17  C   UNL     1       3.327   3.681  17.972  0.00  0.00    +0.000 C 
ATOM     18  C   UNL     1       4.240   4.890  17.747  0.00  0.00    +0.000 C 
ENDROOT
BRANCH   1  19
ATOM     19  C   UNL     1       5.229   4.170  15.465  0.00  0.00    +0.000 C 
ATOM     20  O   UNL     1       5.822   3.218  15.952  0.00  0.00    +0.000 OA
BRANCH  19  21
ATOM     21  O   UNL     1       5.220   4.471  14.133  0.00  0.00    +0.000 OA
BRANCH  21  22
ATOM     22  C   UNL     1       6.374   4.041  13.393  0.00  0.00    +0.000 C 
BRANCH  22  24
ATOM     23  C   UNL     1       4.541   3.353  11.777  0.00  0.00    +0.000 C 
ATOM     24  C   UNL     1       6.012   3.242  12.146  0.00  0.00    +0.000 C 
ENDBRANCH  22  24
ENDBRANCH  21  22
ENDBRANCH  19  21
ENDBRANCH   1  19
BRANCH   5  25
ATOM     25  O   UNL     1       8.980   9.235  17.827  0.00  0.00    +0.000 OA
ATOM     26  H   UNL     1       9.507   9.308  18.641  0.00  0.00    +0.000 HD
ENDBRANCH   5  25
BRANCH  14  27
ATOM     27  O   UNL     1       1.486   1.812  20.520  0.00  0.00    +0.000 OA
ATOM     28  H   UNL     1       1.010   2.588  20.856  0.00  0.00    +0.000 HD
ENDBRANCH  14  27
TORSDOF 6
ENDMDL
MODEL 8
REMARK VINA RESULT:      -6.8      1.691      6.415
REMARK  Name = 
REMARK  8 active torsions:
REMARK  status: ('A' for Active; 'I' for Inactive)
REMARK    1  A    between atoms: C_1  and  C_2
REMARK    2  A    between atoms: C_2  and  C_3
REMARK    3  A    between atoms: C_3  and  O_4
REMARK    4  A    between atoms: O_4  and  C_5
REMARK    5  A    between atoms: C_5  and  C_7
REMARK    6  A    between atoms: C_11  and  O_12
REMARK    7  A    between atoms: C_19  and  C_20
REMARK    8  A    between atoms: C_21  and  O_22
REMARK                            x       y       z     vdW  Elec       q    Type
REMARK                         _______ _______ _______ _____ _____    ______ ____
ROOT
ATOM      1  C   UNL     1       4.423   6.551  18.289  0.00  0.00    +0.000 C 
ATOM      2  C   UNL     1       5.770   6.673  17.556  0.00  0.00    +0.000 C 
ATOM      3  C   UNL     1       5.925   5.773  16.347  0.00  0.00    +0.000 A 
ATOM      4  C   UNL     1       7.063   5.957  15.535  0.00  0.00    +0.000 A 
ATOM      5  C   UNL     1       7.257   5.161  14.414  0.00  0.00    +0.000 A 
ATOM      6  C   UNL     1       6.336   4.185  14.079  0.00  0.00    +0.000 A 
ATOM      7  C   UNL     1       5.212   3.986  14.878  0.00  0.00    +0.000 A 
ATOM      8  C   UNL     1       4.996   4.757  16.036  0.00  0.00    +0.000 A 
ATOM      9  C   UNL     1       3.742   4.556  16.890  0.00  0.00    +0.000 C 
ATOM     10  C   UNL     1       3.169   3.116  16.863  0.00  0.00    +0.000 C 
ATOM     11  C   UNL     1       1.995   2.904  17.829  0.00  0.00    +0.000 C 
ATOM     12  C   UNL     1       2.367   3.319  19.254  0.00  0.00    +0.000 C 
ATOM     13  C   UNL     1       3.451   2.354  19.803  0.00  0.00    +0.000 C 
ATOM     14  C   UNL     1       1.178   3.412  20.229  0.00  0.00    +0.000 C 
ATOM     15  C   UNL     1       1.669   4.377  21.328  0.00  0.00    +0.000 C 
ATOM     16  C   UNL     1       2.835   5.171  20.707  0.00  0.00    +0.000 C 
ATOM     17  C   UNL     1       2.774   4.808  19.223  0.00  0.00    +0.000 C 
ATOM     18  C   UNL     1       3.996   5.071  18.339  0.00  0.00    +0.000 C 
ENDROOT
BRANCH   1  19
ATOM     19  C   UNL     1       3.412   7.494  17.635  0.00  0.00    +0.000 C 
ATOM     20  O   UNL     1       3.463   7.884  16.478  0.00  0.00    +0.000 OA
BRANCH  19  21
ATOM     21  O   UNL     1       2.480   7.906  18.544  0.00  0.00    +0.000 OA
BRANCH  21  22
ATOM     22  C   UNL     1       1.760   9.099  18.196  0.00  0.00    +0.000 C 
BRANCH  22  24
ATOM     23  C   UNL     1       1.058   8.817  20.620  0.00  0.00    +0.000 C 
ATOM     24  C   UNL     1       0.912   9.633  19.345  0.00  0.00    +0.000 C 
ENDBRANCH  22  24
ENDBRANCH  21  22
ENDBRANCH  19  21
ENDBRANCH   1  19
BRANCH   5  25
ATOM     25  O   UNL     1       8.343   5.314  13.606  0.00  0.00    +0.000 OA
ATOM     26  H   UNL     1       8.402   6.249  13.344  0.00  0.00    +0.000 HD
ENDBRANCH   5  25
BRANCH  14  27
ATOM     27  O   UNL     1       0.755   2.169  20.750  0.00  0.00    +0.000 OA
ATOM     28  H   UNL     1       0.074   1.797  20.166  0.00  0.00    +0.000 HD
ENDBRANCH  14  27
TORSDOF 6
ENDMDL
MODEL 9
REMARK VINA RESULT:      -6.2      5.157      9.099
REMARK  Name = 
REMARK  8 active torsions:
REMARK  status: ('A' for Active; 'I' for Inactive)
REMARK    1  A    between atoms: C_1  and  C_2
REMARK    2  A    between atoms: C_2  and  C_3
REMARK    3  A    between atoms: C_3  and  O_4
REMARK    4  A    between atoms: O_4  and  C_5
REMARK    5  A    between atoms: C_5  and  C_7
REMARK    6  A    between atoms: C_11  and  O_12
REMARK    7  A    between atoms: C_19  and  C_20
REMARK    8  A    between atoms: C_21  and  O_22
REMARK                            x       y       z     vdW  Elec       q    Type
REMARK                         _______ _______ _______ _____ _____    ______ ____
ROOT
ATOM      1  C   UNL     1      -2.114  12.436  19.857  0.00  0.00    +0.000 C 
ATOM      2  C   UNL     1      -3.542  12.809  20.293  0.00  0.00    +0.000 C 
ATOM      3  C   UNL     1      -3.786  12.768  21.789  0.00  0.00    +0.000 A 
ATOM      4  C   UNL     1      -5.018  13.260  22.265  0.00  0.00    +0.000 A 
ATOM      5  C   UNL     1      -5.297  13.249  23.625  0.00  0.00    +0.000 A 
ATOM      6  C   UNL     1      -4.368  12.760  24.527  0.00  0.00    +0.000 A 
ATOM      7  C   UNL     1      -3.150  12.262  24.068  0.00  0.00    +0.000 A 
ATOM      8  C   UNL     1      -2.844  12.235  22.695  0.00  0.00    +0.000 A 
ATOM      9  C   UNL     1      -1.491  11.718  22.201  0.00  0.00    +0.000 C 
ATOM     10  C   UNL     1      -0.846  10.638  23.107  0.00  0.00    +0.000 C 
ATOM     11  C   UNL     1       0.442  10.037  22.525  0.00  0.00    +0.000 C 
ATOM     12  C   UNL     1       0.215   9.502  21.111  0.00  0.00    +0.000 C 
ATOM     13  C   UNL     1      -0.743   8.283  21.171  0.00  0.00    +0.000 C 
ATOM     14  C   UNL     1       1.502   9.145  20.343  0.00  0.00    +0.000 C 
ATOM     15  C   UNL     1       1.089   9.229  18.859  0.00  0.00    +0.000 C 
ATOM     16  C   UNL     1      -0.184  10.098  18.819  0.00  0.00    +0.000 C 
ATOM     17  C   UNL     1      -0.274  10.675  20.233  0.00  0.00    +0.000 C 
ATOM     18  C   UNL     1      -1.603  11.263  20.716  0.00  0.00    +0.000 C 
ENDROOT
BRANCH   1  19
ATOM     19  C   UNL     1      -1.239  13.690  19.890  0.00  0.00    +0.000 C 
ATOM     20  O   UNL     1      -1.295  14.562  20.745  0.00  0.00    +0.000 OA
BRANCH  19  21
ATOM     21  O   UNL     1      -0.435  13.745  18.788  0.00  0.00    +0.000 OA
BRANCH  21  22
ATOM     22  C   UNL     1       0.831  14.396  18.977  0.00  0.00    +0.000 C 
BRANCH  22  24
ATOM     23  C   UNL     1       2.311  13.215  20.668  0.00  0.00    +0.000 C 
ATOM     24  C   UNL     1       1.974  13.412  19.198  0.00  0.00    +0.000 C 
ENDBRANCH  22  24
ENDBRANCH  21  22
ENDBRANCH  19  21
ENDBRANCH   1  19
BRANCH   5  25
ATOM     25  O   UNL     1      -6.476  13.718  24.119  0.00  0.00    +0.000 OA
ATOM     26  H   UNL     1      -6.286  14.480  24.693  0.00  0.00    +0.000 HD
ENDBRANCH   5  25
BRANCH  14  27
ATOM     27  O   UNL     1       2.051   7.888  20.682  0.00  0.00    +0.000 OA
ATOM     28  H   UNL     1       1.350   7.218  20.648  0.00  0.00    +0.000 HD
ENDBRANCH  14  27
TORSDOF 6
ENDMDL
