MODEL 1
REMARK VINA RESULT:      -7.9      0.000      0.000
REMARK  Name = 
REMARK  10 active torsions:
REMARK  status: ('A' for Active; 'I' for Inactive)
REMARK    1  A    between atoms: C_1  and  O_2
REMARK    2  A    between atoms: O_2  and  C_3
REMARK    3  A    between atoms: C_5  and  C_6
REMARK    4  A    between atoms: C_7  and  C_8
REMARK    5  A    between atoms: C_10  and  C_11
REMARK    6  A    between atoms: C_12  and  C_13
REMARK    7  A    between atoms: C_16  and  O_17
REMARK    8  A    between atoms: C_18  and  O_19
REMARK    9  A    between atoms: O_19  and  C_20
REMARK   10  A    between atoms: C_26  and  O_27
REMARK                            x       y       z     vdW  Elec       q    Type
REMARK                         _______ _______ _______ _____ _____    ______ ____
ROOT
ATOM      1  C   UNL     1      -0.264  10.751  19.532  0.00  0.00    +0.000 A 
ATOM      2  C   UNL     1       1.009  10.166  19.722  0.00  0.00    +0.000 A 
ATOM      3  C   UNL     1       1.265   9.413  18.589  0.00  0.00    +0.000 A 
ATOM      4  O   UNL     1       0.165   9.558  17.774  0.00  0.00    +0.000 OA
ATOM      5  N   UNL     1      -0.773  10.383  18.353  0.00  0.00    +0.000 NA
ENDROOT
BRANCH   1   7
ATOM      6  C   UNL     1      -0.962  11.416  21.801  0.00  0.00    +0.000 C 
ATOM      7  C   UNL     1      -0.895  11.624  20.475  0.00  0.00    +0.000 C 
BRANCH   6  10
ATOM      8  C   UNL     1      -3.591  12.788  24.150  0.00  0.00    +0.000 A 
ATOM      9  C   UNL     1      -2.885  11.952  23.269  0.00  0.00    +0.000 A 
ATOM     10  C   UNL     1      -1.637  12.316  22.747  0.00  0.00    +0.000 A 
ATOM     11  C   UNL     1      -1.105  13.561  23.099  0.00  0.00    +0.000 A 
ATOM     12  C   UNL     1      -1.792  14.405  23.975  0.00  0.00    +0.000 A 
ATOM     13  C   UNL     1      -3.029  14.022  24.500  0.00  0.00    +0.000 A 
BRANCH   8  15
ATOM     14  C   UNL     1      -5.978  12.765  23.976  0.00  0.00    +0.000 C 
ATOM     15  O   UNL     1      -4.785  12.253  24.554  0.00  0.00    +0.000 OA
ENDBRANCH   8  15
BRANCH  13  16
ATOM     16  O   UNL     1      -3.661  14.884  25.351  0.00  0.00    +0.000 OA
ATOM     17  H   UNL     1      -4.520  15.132  24.974  0.00  0.00    +0.000 HD
ENDBRANCH  13  16
ENDBRANCH   6  10
ENDBRANCH   1   7
BRANCH   3  18
ATOM     18  C   UNL     1       2.385   8.626  18.202  0.00  0.00    +0.000 C 
ATOM     19  C   UNL     1       2.412   7.288  18.307  0.00  0.00    +0.000 C 
BRANCH  19  20
ATOM     20  C   UNL     1       3.584   6.464  17.960  0.00  0.00    +0.000 A 
ATOM     21  C   UNL     1       4.411   6.767  16.874  0.00  0.00    +0.000 A 
ATOM     22  C   UNL     1       5.536   5.988  16.598  0.00  0.00    +0.000 A 
ATOM     23  C   UNL     1       5.861   4.903  17.416  0.00  0.00    +0.000 A 
ATOM     24  C   UNL     1       5.065   4.592  18.522  0.00  0.00    +0.000 A 
ATOM     25  C   UNL     1       3.932   5.382  18.782  0.00  0.00    +0.000 A 
BRANCH  23  26
ATOM     26  O   UNL     1       6.972   4.173  17.102  0.00  0.00    +0.000 OA
ATOM     27  H   UNL     1       6.750   3.537  16.402  0.00  0.00    +0.000 HD
ENDBRANCH  23  26
BRANCH  24  28
ATOM     28  O   UNL     1       5.234   3.587  19.436  0.00  0.00    +0.000 OA
ATOM     29  C   UNL     1       4.103   2.796  19.778  0.00  0.00    +0.000 C 
ENDBRANCH  24  28
ENDBRANCH  19  20
ENDBRANCH   3  18
TORSDOF 8
ENDMDL
MODEL 2
REMARK VINA RESULT:      -7.8      0.409     11.042
REMARK  Name = 
REMARK  10 active torsions:
REMARK  status: ('A' for Active; 'I' for Inactive)
REMARK    1  A    between atoms: C_1  and  O_2
REMARK    2  A    between atoms: O_2  and  C_3
REMARK    3  A    between atoms: C_5  and  C_6
REMARK    4  A    between atoms: C_7  and  C_8
REMARK    5  A    between atoms: C_10  and  C_11
REMARK    6  A    between atoms: C_12  and  C_13
REMARK    7  A    between atoms: C_16  and  O_17
REMARK    8  A    between atoms: C_18  and  O_19
REMARK    9  A    between atoms: O_19  and  C_20
REMARK   10  A    between atoms: C_26  and  O_27
REMARK                            x       y       z     vdW  Elec       q    Type
REMARK                         _______ _______ _______ _____ _____    ______ ____
ROOT
ATOM      1  C   UNL     1       1.087   9.419  18.366  0.00  0.00    +0.000 A 
ATOM      2  C   UNL     1       1.053  10.178  19.558  0.00  0.00    +0.000 A 
ATOM      3  C   UNL     1      -0.158  10.850  19.558  0.00  0.00    +0.000 A 
ATOM      4  O   UNL     1      -0.798  10.489  18.393  0.00  0.00    +0.000 OA
ATOM      5  N   UNL     1      -0.032   9.608  17.663  0.00  0.00    +0.000 NA
ENDROOT
BRANCH   1   7
ATOM      6  C   UNL     1       2.475   7.392  18.578  0.00  0.00    +0.000 C 
ATOM      7  C   UNL     1       2.171   8.563  17.991  0.00  0.00    +0.000 C 
BRANCH   6  10
ATOM      8  C   UNL     1       4.991   4.568  18.641  0.00  0.00    +0.000 A 
ATOM      9  C   UNL     1       3.900   5.398  18.946  0.00  0.00    +0.000 A 
ATOM     10  C   UNL     1       3.609   6.542  18.190  0.00  0.00    +0.000 A 
ATOM     11  C   UNL     1       4.454   6.867  17.123  0.00  0.00    +0.000 A 
ATOM     12  C   UNL     1       5.543   6.052  16.805  0.00  0.00    +0.000 A 
ATOM     13  C   UNL     1       5.811   4.907  17.559  0.00  0.00    +0.000 A 
BRANCH   8  15
ATOM     14  C   UNL     1       3.922   2.792  19.839  0.00  0.00    +0.000 C 
ATOM     15  O   UNL     1       5.103   3.500  19.491  0.00  0.00    +0.000 OA
ENDBRANCH   8  15
BRANCH  13  16
ATOM     16  O   UNL     1       6.889   4.144  17.207  0.00  0.00    +0.000 OA
ATOM     17  H   UNL     1       6.762   3.241  17.536  0.00  0.00    +0.000 HD
ENDBRANCH  13  16
ENDBRANCH   6  10
ENDBRANCH   1   7
BRANCH   3  18
ATOM     18  C   UNL     1      -0.757  11.734  20.497  0.00  0.00    +0.000 C 
ATOM     19  C   UNL     1      -0.957  11.411  21.785  0.00  0.00    +0.000 C 
BRANCH  19  20
ATOM     20  C   UNL     1      -1.625  12.295  22.756  0.00  0.00    +0.000 A 
ATOM     21  C   UNL     1      -1.090  13.534  23.124  0.00  0.00    +0.000 A 
ATOM     22  C   UNL     1      -1.769  14.364  24.017  0.00  0.00    +0.000 A 
ATOM     23  C   UNL     1      -3.004  13.977  24.542  0.00  0.00    +0.000 A 
ATOM     24  C   UNL     1      -3.574  12.755  24.171  0.00  0.00    +0.000 A 
ATOM     25  C   UNL     1      -2.874  11.928  23.277  0.00  0.00    +0.000 A 
BRANCH  23  26
ATOM     26  O   UNL     1      -3.627  14.827  25.412  0.00  0.00    +0.000 OA
ATOM     27  H   UNL     1      -3.681  15.710  25.011  0.00  0.00    +0.000 HD
ENDBRANCH  23  26
BRANCH  24  28
ATOM     28  O   UNL     1      -4.771  12.220  24.567  0.00  0.00    +0.000 OA
ATOM     29  C   UNL     1      -5.959  12.732  23.980  0.00  0.00    +0.000 C 
ENDBRANCH  24  28
ENDBRANCH  19  20
ENDBRANCH   3  18
TORSDOF 8
ENDMDL
MODEL 3
REMARK VINA RESULT:      -7.7      7.872     10.593
REMARK  Name = 
REMARK  10 active torsions:
REMARK  status: ('A' for Active; 'I' for Inactive)
REMARK    1  A    between atoms: C_1  and  O_2
REMARK    2  A    between atoms: O_2  and  C_3
REMARK    3  A    between atoms: C_5  and  C_6
REMARK    4  A    between atoms: C_7  and  C_8
REMARK    5  A    between atoms: C_10  and  C_11
REMARK    6  A    between atoms: C_12  and  C_13
REMARK    7  A    between atoms: C_16  and  O_17
REMARK    8  A    between atoms: C_18  and  O_19
REMARK    9  A    between atoms: O_19  and  C_20
REMARK   10  A    between atoms: C_26  and  O_27
REMARK                            x       y       z     vdW  Elec       q    Type
REMARK                         _______ _______ _______ _____ _____    ______ ____
ROOT
ATOM      1  C   UNL     1       6.436   6.567  17.232  0.00  0.00    +0.000 A 
ATOM      2  C   UNL     1       6.767   7.533  18.209  0.00  0.00    +0.000 A 
ATOM      3  C   UNL     1       7.958   8.109  17.800  0.00  0.00    +0.000 A 
ATOM      4  O   UNL     1       8.303   7.484  16.622  0.00  0.00    +0.000 OA
ATOM      5  N   UNL     1       7.365   6.538  16.273  0.00  0.00    +0.000 NA
ENDROOT
BRANCH   1   7
ATOM      6  C   UNL     1       4.852   5.031  18.332  0.00  0.00    +0.000 C 
ATOM      7  C   UNL     1       5.258   5.754  17.274  0.00  0.00    +0.000 C 
BRANCH   6  10
ATOM      8  C   UNL     1       1.672   3.380  19.548  0.00  0.00    +0.000 A 
ATOM      9  C   UNL     1       2.815   4.192  19.469  0.00  0.00    +0.000 A 
ATOM     10  C   UNL     1       3.650   4.185  18.343  0.00  0.00    +0.000 A 
ATOM     11  C   UNL     1       3.339   3.318  17.290  0.00  0.00    +0.000 A 
ATOM     12  C   UNL     1       2.205   2.504  17.351  0.00  0.00    +0.000 A 
ATOM     13  C   UNL     1       1.374   2.534  18.474  0.00  0.00    +0.000 A 
BRANCH   8  15
ATOM     14  C   UNL     1       1.343   2.710  21.823  0.00  0.00    +0.000 C 
ATOM     15  O   UNL     1       0.986   3.536  20.723  0.00  0.00    +0.000 OA
ENDBRANCH   8  15
BRANCH  13  16
ATOM     16  O   UNL     1       0.279   1.716  18.485  0.00  0.00    +0.000 OA
ATOM     17  H   UNL     1       0.009   1.534  17.571  0.00  0.00    +0.000 HD
ENDBRANCH  13  16
ENDBRANCH   6  10
ENDBRANCH   1   7
BRANCH   3  18
ATOM     18  C   UNL     1       8.757   9.144  18.359  0.00  0.00    +0.000 C 
ATOM     19  C   UNL     1       8.669  10.427  17.974  0.00  0.00    +0.000 C 
BRANCH  19  20
ATOM     20  C   UNL     1       9.528  11.501  18.504  0.00  0.00    +0.000 A 
ATOM     21  C   UNL     1      10.474  11.269  19.508  0.00  0.00    +0.000 A 
ATOM     22  C   UNL     1      11.298  12.301  19.960  0.00  0.00    +0.000 A 
ATOM     23  C   UNL     1      11.201  13.578  19.401  0.00  0.00    +0.000 A 
ATOM     24  C   UNL     1      10.282  13.831  18.379  0.00  0.00    +0.000 A 
ATOM     25  C   UNL     1       9.455  12.783  17.940  0.00  0.00    +0.000 A 
BRANCH  23  26
ATOM     26  O   UNL     1      12.032  14.552  19.879  0.00  0.00    +0.000 OA
ATOM     27  H   UNL     1      12.697  14.147  20.461  0.00  0.00    +0.000 HD
ENDBRANCH  23  26
BRANCH  24  28
ATOM     28  O   UNL     1      10.058  15.003  17.707  0.00  0.00    +0.000 OA
ATOM     29  C   UNL     1      11.073  15.477  16.833  0.00  0.00    +0.000 C 
ENDBRANCH  24  28
ENDBRANCH  19  20
ENDBRANCH   3  18
TORSDOF 8
ENDMDL
MODEL 4
REMARK VINA RESULT:      -7.6      7.990     10.476
REMARK  Name = 
REMARK  10 active torsions:
REMARK  status: ('A' for Active; 'I' for Inactive)
REMARK    1  A    between atoms: C_1  and  O_2
REMARK    2  A    between atoms: O_2  and  C_3
REMARK    3  A    between atoms: C_5  and  C_6
REMARK    4  A    between atoms: C_7  and  C_8
REMARK    5  A    between atoms: C_10  and  C_11
REMARK    6  A    between atoms: C_12  and  C_13
REMARK    7  A    between atoms: C_16  and  O_17
REMARK    8  A    between atoms: C_18  and  O_19
REMARK    9  A    between atoms: O_19  and  C_20
REMARK   10  A    between atoms: C_26  and  O_27
REMARK                            x       y       z     vdW  Elec       q    Type
REMARK                         _______ _______ _______ _____ _____    ______ ____
ROOT
ATOM      1  C   UNL     1       6.725   6.371  18.350  0.00  0.00    +0.000 A 
ATOM      2  C   UNL     1       6.747   7.648  17.745  0.00  0.00    +0.000 A 
ATOM      3  C   UNL     1       7.975   8.207  18.059  0.00  0.00    +0.000 A 
ATOM      4  O   UNL     1       8.636   7.275  18.828  0.00  0.00    +0.000 OA
ATOM      5  N   UNL     1       7.868   6.146  19.004  0.00  0.00    +0.000 NA
ENDROOT
BRANCH   1   7
ATOM      6  C   UNL     1       4.390   5.673  18.727  0.00  0.00    +0.000 C 
ATOM      7  C   UNL     1       5.629   5.455  18.251  0.00  0.00    +0.000 C 
BRANCH   6  10
ATOM      8  C   UNL     1       2.058   2.836  19.635  0.00  0.00    +0.000 A 
ATOM      9  C   UNL     1       3.075   3.803  19.684  0.00  0.00    +0.000 A 
ATOM     10  C   UNL     1       3.287   4.707  18.634  0.00  0.00    +0.000 A 
ATOM     11  C   UNL     1       2.472   4.612  17.501  0.00  0.00    +0.000 A 
ATOM     12  C   UNL     1       1.454   3.657  17.435  0.00  0.00    +0.000 A 
ATOM     13  C   UNL     1       1.246   2.773  18.497  0.00  0.00    +0.000 A 
BRANCH   8  15
ATOM     14  C   UNL     1       1.718   2.680  22.000  0.00  0.00    +0.000 C 
ATOM     15  O   UNL     1       2.009   2.054  20.758  0.00  0.00    +0.000 OA
ENDBRANCH   8  15
BRANCH  13  16
ATOM     16  O   UNL     1       0.239   1.857  18.381  0.00  0.00    +0.000 OA
ATOM     17  H   UNL     1       0.572   0.982  18.636  0.00  0.00    +0.000 HD
ENDBRANCH  13  16
ENDBRANCH   6  10
ENDBRANCH   1   7
BRANCH   3  18
ATOM     18  C   UNL     1       8.571   9.451  17.715  0.00  0.00    +0.000 C 
ATOM     19  C   UNL     1       9.131  10.270  18.619  0.00  0.00    +0.000 C 
BRANCH  19  20
ATOM     20  C   UNL     1       9.704  11.587  18.285  0.00  0.00    +0.000 A 
ATOM     21  C   UNL     1      10.872  11.719  17.528  0.00  0.00    +0.000 A 
ATOM     22  C   UNL     1      11.366  12.982  17.197  0.00  0.00    +0.000 A 
ATOM     23  C   UNL     1      10.688  14.133  17.604  0.00  0.00    +0.000 A 
ATOM     24  C   UNL     1       9.504  14.030  18.340  0.00  0.00    +0.000 A 
ATOM     25  C   UNL     1       9.025  12.751  18.671  0.00  0.00    +0.000 A 
BRANCH  23  26
ATOM     26  O   UNL     1      11.213  15.345  17.253  0.00  0.00    +0.000 OA
ATOM     27  H   UNL     1      11.810  15.650  17.956  0.00  0.00    +0.000 HD
ENDBRANCH  23  26
BRANCH  24  28
ATOM     28  O   UNL     1       8.702  15.037  18.808  0.00  0.00    +0.000 OA
ATOM     29  C   UNL     1       7.822  15.672  17.891  0.00  0.00    +0.000 C 
ENDBRANCH  24  28
ENDBRANCH  19  20
ENDBRANCH   3  18
TORSDOF 8
ENDMDL
MODEL 5
REMARK VINA RESULT:      -7.6      1.123      1.774
REMARK  Name = 
REMARK  10 active torsions:
REMARK  status: ('A' for Active; 'I' for Inactive)
REMARK    1  A    between atoms: C_1  and  O_2
REMARK    2  A    between atoms: O_2  and  C_3
REMARK    3  A    between atoms: C_5  and  C_6
REMARK    4  A    between atoms: C_7  and  C_8
REMARK    5  A    between atoms: C_10  and  C_11
REMARK    6  A    between atoms: C_12  and  C_13
REMARK    7  A    between atoms: C_16  and  O_17
REMARK    8  A    between atoms: C_18  and  O_19
REMARK    9  A    between atoms: O_19  and  C_20
REMARK   10  A    between atoms: C_26  and  O_27
REMARK                            x       y       z     vdW  Elec       q    Type
REMARK                         _______ _______ _______ _____ _____    ______ ____
ROOT
ATOM      1  C   UNL     1       0.090  10.639  19.825  0.00  0.00    +0.000 A 
ATOM      2  C   UNL     1       1.126   9.677  19.830  0.00  0.00    +0.000 A 
ATOM      3  C   UNL     1       1.274   9.256  18.519  0.00  0.00    +0.000 A 
ATOM      4  O   UNL     1       0.343   9.955  17.784  0.00  0.00    +0.000 OA
ATOM      5  N   UNL     1      -0.383  10.806  18.587  0.00  0.00    +0.000 NA
ENDROOT
BRANCH   1   7
ATOM      6  C   UNL     1      -1.592  11.860  21.152  0.00  0.00    +0.000 C 
ATOM      7  C   UNL     1      -0.365  11.335  20.991  0.00  0.00    +0.000 C 
BRANCH   6  10
ATOM      8  C   UNL     1      -3.700  12.903  24.115  0.00  0.00    +0.000 A 
ATOM      9  C   UNL     1      -3.218  12.219  22.987  0.00  0.00    +0.000 A 
ATOM     10  C   UNL     1      -2.027  12.592  22.350  0.00  0.00    +0.000 A 
ATOM     11  C   UNL     1      -1.324  13.695  22.846  0.00  0.00    +0.000 A 
ATOM     12  C   UNL     1      -1.787  14.387  23.968  0.00  0.00    +0.000 A 
ATOM     13  C   UNL     1      -2.969  13.994  24.601  0.00  0.00    +0.000 A 
BRANCH   8  15
ATOM     14  C   UNL     1      -6.089  12.810  23.997  0.00  0.00    +0.000 C 
ATOM     15  O   UNL     1      -4.872  12.384  24.595  0.00  0.00    +0.000 OA
ENDBRANCH   8  15
BRANCH  13  16
ATOM     16  O   UNL     1      -3.380  14.705  25.694  0.00  0.00    +0.000 OA
ATOM     17  H   UNL     1      -3.778  14.098  26.337  0.00  0.00    +0.000 HD
ENDBRANCH  13  16
ENDBRANCH   6  10
ENDBRANCH   1   7
BRANCH   3  18
ATOM     18  C   UNL     1       2.164   8.329  17.911  0.00  0.00    +0.000 C 
ATOM     19  C   UNL     1       2.466   7.139  18.454  0.00  0.00    +0.000 C 
BRANCH  19  20
ATOM     20  C   UNL     1       3.428   6.191  17.863  0.00  0.00    +0.000 A 
ATOM     21  C   UNL     1       3.122   4.839  17.678  0.00  0.00    +0.000 A 
ATOM     22  C   UNL     1       4.042   3.977  17.079  0.00  0.00    +0.000 A 
ATOM     23  C   UNL     1       5.278   4.459  16.640  0.00  0.00    +0.000 A 
ATOM     24  C   UNL     1       5.600   5.811  16.790  0.00  0.00    +0.000 A 
ATOM     25  C   UNL     1       4.665   6.663  17.401  0.00  0.00    +0.000 A 
BRANCH  23  26
ATOM     26  O   UNL     1       6.142   3.573  16.061  0.00  0.00    +0.000 OA
ATOM     27  H   UNL     1       6.167   3.732  15.103  0.00  0.00    +0.000 HD
ENDBRANCH  23  26
BRANCH  24  28
ATOM     28  O   UNL     1       6.744   6.460  16.411  0.00  0.00    +0.000 OA
ATOM     29  C   UNL     1       7.439   7.220  17.390  0.00  0.00    +0.000 C 
ENDBRANCH  24  28
ENDBRANCH  19  20
ENDBRANCH   3  18
TORSDOF 8
ENDMDL
MODEL 6
REMARK VINA RESULT:      -7.6      1.540     11.036
REMARK  Name = 
REMARK  10 active torsions:
REMARK  status: ('A' for Active; 'I' for Inactive)
REMARK    1  A    between atoms: C_1  and  O_2
REMARK    2  A    between atoms: O_2  and  C_3
REMARK    3  A    between atoms: C_5  and  C_6
REMARK    4  A    between atoms: C_7  and  C_8
REMARK    5  A    between atoms: C_10  and  C_11
REMARK    6  A    between atoms: C_12  and  C_13
REMARK    7  A    between atoms: C_16  and  O_17
REMARK    8  A    between atoms: C_18  and  O_19
REMARK    9  A    between atoms: O_19  and  C_20
REMARK   10  A    between atoms: C_26  and  O_27
REMARK                            x       y       z     vdW  Elec       q    Type
REMARK                         _______ _______ _______ _____ _____    ______ ____
ROOT
ATOM      1  C   UNL     1       1.519   8.762  19.583  0.00  0.00    +0.000 A 
ATOM      2  C   UNL     1       0.732   9.229  20.660  0.00  0.00    +0.000 A 
ATOM      3  C   UNL     1       0.438  10.553  20.382  0.00  0.00    +0.000 A 
ATOM      4  O   UNL     1       1.046  10.838  19.179  0.00  0.00    +0.000 OA
ATOM      5  N   UNL     1       1.708   9.735  18.688  0.00  0.00    +0.000 NA
ENDROOT
BRANCH   1   7
ATOM      6  C   UNL     1       2.281   6.783  18.325  0.00  0.00    +0.000 C 
ATOM      7  C   UNL     1       2.021   7.425  19.477  0.00  0.00    +0.000 C 
BRANCH   6  10
ATOM      8  C   UNL     1       2.728   3.110  19.116  0.00  0.00    +0.000 A 
ATOM      9  C   UNL     1       2.271   4.438  19.128  0.00  0.00    +0.000 A 
ATOM     10  C   UNL     1       2.774   5.401  18.242  0.00  0.00    +0.000 A 
ATOM     11  C   UNL     1       3.780   5.020  17.347  0.00  0.00    +0.000 A 
ATOM     12  C   UNL     1       4.247   3.703  17.321  0.00  0.00    +0.000 A 
ATOM     13  C   UNL     1       3.724   2.752  18.200  0.00  0.00    +0.000 A 
BRANCH   8  15
ATOM     14  C   UNL     1       1.235   2.947  20.980  0.00  0.00    +0.000 C 
ATOM     15  O   UNL     1       2.111   2.324  20.051  0.00  0.00    +0.000 OA
ENDBRANCH   8  15
BRANCH  13  16
ATOM     16  O   UNL     1       4.216   1.478  18.135  0.00  0.00    +0.000 OA
ATOM     17  H   UNL     1       4.849   1.418  17.402  0.00  0.00    +0.000 HD
ENDBRANCH  13  16
ENDBRANCH   6  10
ENDBRANCH   1   7
BRANCH   3  18
ATOM     18  C   UNL     1      -0.330  11.525  21.080  0.00  0.00    +0.000 C 
ATOM     19  C   UNL     1      -0.711  11.378  22.359  0.00  0.00    +0.000 C 
BRANCH  19  20
ATOM     20  C   UNL     1      -1.553  12.351  23.078  0.00  0.00    +0.000 A 
ATOM     21  C   UNL     1      -1.110  13.645  23.370  0.00  0.00    +0.000 A 
ATOM     22  C   UNL     1      -1.947  14.554  24.018  0.00  0.00    +0.000 A 
ATOM     23  C   UNL     1      -3.249  14.188  24.370  0.00  0.00    +0.000 A 
ATOM     24  C   UNL     1      -3.726  12.909  24.068  0.00  0.00    +0.000 A 
ATOM     25  C   UNL     1      -2.867  12.004  23.421  0.00  0.00    +0.000 A 
BRANCH  23  26
ATOM     26  O   UNL     1      -4.028  15.115  25.002  0.00  0.00    +0.000 OA
ATOM     27  H   UNL     1      -3.495  15.905  25.190  0.00  0.00    +0.000 HD
ENDBRANCH  23  26
BRANCH  24  28
ATOM     28  O   UNL     1      -4.964  12.382  24.318  0.00  0.00    +0.000 OA
ATOM     29  C   UNL     1      -6.048  12.802  23.501  0.00  0.00    +0.000 C 
ENDBRANCH  24  28
ENDBRANCH  19  20
ENDBRANCH   3  18
TORSDOF 8
ENDMDL
MODEL 7
REMARK VINA RESULT:      -7.6      7.978     10.301
REMARK  Name = 
REMARK  10 active torsions:
REMARK  status: ('A' for Active; 'I' for Inactive)
REMARK    1  A    between atoms: C_1  and  O_2
REMARK    2  A    between atoms: O_2  and  C_3
REMARK    3  A    between atoms: C_5  and  C_6
REMARK    4  A    between atoms: C_7  and  C_8
REMARK    5  A    between atoms: C_10  and  C_11
REMARK    6  A    between atoms: C_12  and  C_13
REMARK    7  A    between atoms: C_16  and  O_17
REMARK    8  A    between atoms: C_18  and  O_19
REMARK    9  A    between atoms: O_19  and  C_20
REMARK   10  A    between atoms: C_26  and  O_27
REMARK                            x       y       z     vdW  Elec       q    Type
REMARK                         _______ _______ _______ _____ _____    ______ ____
ROOT
ATOM      1  C   UNL     1       6.407   6.507  17.273  0.00  0.00    +0.000 A 
ATOM      2  C   UNL     1       6.498   7.762  17.917  0.00  0.00    +0.000 A 
ATOM      3  C   UNL     1       7.673   8.344  17.472  0.00  0.00    +0.000 A 
ATOM      4  O   UNL     1       8.243   7.443  16.601  0.00  0.00    +0.000 OA
ATOM      5  N   UNL     1       7.462   6.315  16.477  0.00  0.00    +0.000 NA
ENDROOT
BRANCH   1   7
ATOM      6  C   UNL     1       4.244   5.806  18.226  0.00  0.00    +0.000 C 
ATOM      7  C   UNL     1       5.321   5.591  17.451  0.00  0.00    +0.000 C 
BRANCH   6  10
ATOM      8  C   UNL     1       2.187   3.002  19.718  0.00  0.00    +0.000 A 
ATOM      9  C   UNL     1       3.185   3.968  19.509  0.00  0.00    +0.000 A 
ATOM     10  C   UNL     1       3.152   4.839  18.411  0.00  0.00    +0.000 A 
ATOM     11  C   UNL     1       2.106   4.711  17.491  0.00  0.00    +0.000 A 
ATOM     12  C   UNL     1       1.104   3.756  17.683  0.00  0.00    +0.000 A 
ATOM     13  C   UNL     1       1.142   2.906  18.791  0.00  0.00    +0.000 A 
BRANCH   8  15
ATOM     14  C   UNL     1       1.702   2.625  22.031  0.00  0.00    +0.000 C 
ATOM     15  O   UNL     1       2.393   2.255  20.846  0.00  0.00    +0.000 OA
ENDBRANCH   8  15
BRANCH  13  16
ATOM     16  O   UNL     1       0.139   1.988  18.932  0.00  0.00    +0.000 OA
ATOM     17  H   UNL     1       0.463   1.117  18.657  0.00  0.00    +0.000 HD
ENDBRANCH  13  16
ENDBRANCH   6  10
ENDBRANCH   1   7
BRANCH   3  18
ATOM     18  C   UNL     1       8.278   9.601  17.749  0.00  0.00    +0.000 C 
ATOM     19  C   UNL     1       9.023   9.830  18.842  0.00  0.00    +0.000 C 
BRANCH  19  20
ATOM     20  C   UNL     1       9.611  11.141  19.170  0.00  0.00    +0.000 A 
ATOM     21  C   UNL     1      10.601  11.289  20.148  0.00  0.00    +0.000 A 
ATOM     22  C   UNL     1      11.164  12.540  20.406  0.00  0.00    +0.000 A 
ATOM     23  C   UNL     1      10.758  13.660  19.677  0.00  0.00    +0.000 A 
ATOM     24  C   UNL     1       9.789  13.537  18.677  0.00  0.00    +0.000 A 
ATOM     25  C   UNL     1       9.227  12.272  18.435  0.00  0.00    +0.000 A 
BRANCH  23  26
ATOM     26  O   UNL     1      11.341  14.861  19.969  0.00  0.00    +0.000 OA
ATOM     27  H   UNL     1      12.302  14.740  20.043  0.00  0.00    +0.000 HD
ENDBRANCH  23  26
BRANCH  24  28
ATOM     28  O   UNL     1       9.283  14.510  17.858  0.00  0.00    +0.000 OA
ATOM     29  C   UNL     1       7.910  14.849  17.990  0.00  0.00    +0.000 C 
ENDBRANCH  24  28
ENDBRANCH  19  20
ENDBRANCH   3  18
TORSDOF 8
ENDMDL
MODEL 8
REMARK VINA RESULT:      -7.5      1.492     11.150
REMARK  Name = 
REMARK  10 active torsions:
REMARK  status: ('A' for Active; 'I' for Inactive)
REMARK    1  A    between atoms: C_1  and  O_2
REMARK    2  A    between atoms: O_2  and  C_3
REMARK    3  A    between atoms: C_5  and  C_6
REMARK    4  A    between atoms: C_7  and  C_8
REMARK    5  A    between atoms: C_10  and  C_11
REMARK    6  A    between atoms: C_12  and  C_13
REMARK    7  A    between atoms: C_16  and  O_17
REMARK    8  A    between atoms: C_18  and  O_19
REMARK    9  A    between atoms: O_19  and  C_20
REMARK   10  A    between atoms: C_26  and  O_27
REMARK                            x       y       z     vdW  Elec       q    Type
REMARK                         _______ _______ _______ _____ _____    ______ ____
ROOT
ATOM      1  C   UNL     1       1.546   8.813  19.282  0.00  0.00    +0.000 A 
ATOM      2  C   UNL     1       0.858   9.284  20.424  0.00  0.00    +0.000 A 
ATOM      3  C   UNL     1       0.301  10.501  20.068  0.00  0.00    +0.000 A 
ATOM      4  O   UNL     1       0.667  10.723  18.759  0.00  0.00    +0.000 OA
ATOM      5  N   UNL     1       1.430   9.683  18.276  0.00  0.00    +0.000 NA
ENDROOT
BRANCH   1   7
ATOM      6  C   UNL     1       2.096   6.550  20.094  0.00  0.00    +0.000 C 
ATOM      7  C   UNL     1       2.250   7.567  19.228  0.00  0.00    +0.000 C 
BRANCH   6  10
ATOM      8  C   UNL     1       4.881   4.102  19.346  0.00  0.00    +0.000 A 
ATOM      9  C   UNL     1       4.130   5.282  19.463  0.00  0.00    +0.000 A 
ATOM     10  C   UNL     1       2.849   5.289  20.031  0.00  0.00    +0.000 A 
ATOM     11  C   UNL     1       2.306   4.075  20.464  0.00  0.00    +0.000 A 
ATOM     12  C   UNL     1       3.040   2.890  20.357  0.00  0.00    +0.000 A 
ATOM     13  C   UNL     1       4.322   2.902  19.801  0.00  0.00    +0.000 A 
BRANCH   8  15
ATOM     14  C   UNL     1       6.832   5.472  19.126  0.00  0.00    +0.000 C 
ATOM     15  O   UNL     1       6.107   4.303  18.771  0.00  0.00    +0.000 OA
ENDBRANCH   8  15
BRANCH  13  16
ATOM     16  O   UNL     1       4.997   1.716  19.718  0.00  0.00    +0.000 OA
ATOM     17  H   UNL     1       4.374   0.985  19.856  0.00  0.00    +0.000 HD
ENDBRANCH  13  16
ENDBRANCH   6  10
ENDBRANCH   1   7
BRANCH   3  18
ATOM     18  C   UNL     1      -0.512  11.422  20.783  0.00  0.00    +0.000 C 
ATOM     19  C   UNL     1      -0.621  11.418  22.121  0.00  0.00    +0.000 C 
BRANCH  19  20
ATOM     20  C   UNL     1      -1.501  12.330  22.873  0.00  0.00    +0.000 A 
ATOM     21  C   UNL     1      -2.773  11.945  23.309  0.00  0.00    +0.000 A 
ATOM     22  C   UNL     1      -3.565  12.822  24.053  0.00  0.00    +0.000 A 
ATOM     23  C   UNL     1      -3.089  14.092  24.388  0.00  0.00    +0.000 A 
ATOM     24  C   UNL     1      -1.811  14.493  23.986  0.00  0.00    +0.000 A 
ATOM     25  C   UNL     1      -1.030  13.601  23.232  0.00  0.00    +0.000 A 
BRANCH  23  26
ATOM     26  O   UNL     1      -3.904  14.910  25.118  0.00  0.00    +0.000 OA
ATOM     27  H   UNL     1      -3.549  14.995  26.018  0.00  0.00    +0.000 HD
ENDBRANCH  23  26
BRANCH  24  28
ATOM     28  O   UNL     1      -1.177  15.681  24.232  0.00  0.00    +0.000 OA
ATOM     29  C   UNL     1      -1.546  16.810  23.454  0.00  0.00    +0.000 C 
ENDBRANCH  24  28
ENDBRANCH  19  20
ENDBRANCH   3  18
TORSDOF 8
ENDMDL
MODEL 9
REMARK VINA RESULT:      -7.5      1.047      1.084
REMARK  Name = 
REMARK  10 active torsions:
REMARK  status: ('A' for Active; 'I' for Inactive)
REMARK    1  A    between atoms: C_1  and  O_2
REMARK    2  A    between atoms: O_2  and  C_3
REMARK    3  A    between atoms: C_5  and  C_6
REMARK    4  A    between atoms: C_7  and  C_8
REMARK    5  A    between atoms: C_10  and  C_11
REMARK    6  A    between atoms: C_12  and  C_13
REMARK    7  A    between atoms: C_16  and  O_17
REMARK    8  A    between atoms: C_18  and  O_19
REMARK    9  A    between atoms: O_19  and  C_20
REMARK   10  A    between atoms: C_26  and  O_27
REMARK                            x       y       z     vdW  Elec       q    Type
REMARK                         _______ _______ _______ _____ _____    ______ ____
ROOT
ATOM      1  C   UNL     1       0.579  10.523  20.292  0.00  0.00    +0.000 A 
ATOM      2  C   UNL     1       1.118   9.224  20.436  0.00  0.00    +0.000 A 
ATOM      3  C   UNL     1       1.591   8.858  19.187  0.00  0.00    +0.000 A 
ATOM      4  O   UNL     1       1.325   9.917  18.349  0.00  0.00    +0.000 OA
ATOM      5  N   UNL     1       0.706  10.941  19.030  0.00  0.00    +0.000 NA
ENDROOT
BRANCH   1   7
ATOM      6  C   UNL     1      -1.269  11.721  21.400  0.00  0.00    +0.000 C 
ATOM      7  C   UNL     1      -0.001  11.274  21.363  0.00  0.00    +0.000 C 
BRANCH   6  10
ATOM      8  C   UNL     1      -3.654  12.849  24.111  0.00  0.00    +0.000 A 
ATOM      9  C   UNL     1      -3.050  12.114  23.078  0.00  0.00    +0.000 A 
ATOM     10  C   UNL     1      -1.835  12.511  22.502  0.00  0.00    +0.000 A 
ATOM     11  C   UNL     1      -1.236  13.689  22.960  0.00  0.00    +0.000 A 
ATOM     12  C   UNL     1      -1.822  14.432  23.988  0.00  0.00    +0.000 A 
ATOM     13  C   UNL     1      -3.025  14.015  24.562  0.00  0.00    +0.000 A 
BRANCH   8  15
ATOM     14  C   UNL     1      -6.045  12.799  24.007  0.00  0.00    +0.000 C 
ATOM     15  O   UNL     1      -4.830  12.296  24.544  0.00  0.00    +0.000 OA
ENDBRANCH   8  15
BRANCH  13  16
ATOM     16  O   UNL     1      -3.558  14.778  25.563  0.00  0.00    +0.000 OA
ATOM     17  H   UNL     1      -4.075  14.211  26.156  0.00  0.00    +0.000 HD
ENDBRANCH  13  16
ENDBRANCH   6  10
ENDBRANCH   1   7
BRANCH   3  18
ATOM     18  C   UNL     1       2.250   7.686  18.725  0.00  0.00    +0.000 C 
ATOM     19  C   UNL     1       3.303   7.717  17.891  0.00  0.00    +0.000 C 
BRANCH  19  20
ATOM     20  C   UNL     1       3.962   6.510  17.360  0.00  0.00    +0.000 A 
ATOM     21  C   UNL     1       4.872   6.566  16.300  0.00  0.00    +0.000 A 
ATOM     22  C   UNL     1       5.508   5.409  15.848  0.00  0.00    +0.000 A 
ATOM     23  C   UNL     1       5.256   4.179  16.461  0.00  0.00    +0.000 A 
ATOM     24  C   UNL     1       4.370   4.099  17.539  0.00  0.00    +0.000 A 
ATOM     25  C   UNL     1       3.733   5.272  17.978  0.00  0.00    +0.000 A 
BRANCH  23  26
ATOM     26  O   UNL     1       5.905   3.077  15.980  0.00  0.00    +0.000 OA
ATOM     27  H   UNL     1       6.808   3.056  16.338  0.00  0.00    +0.000 HD
ENDBRANCH  23  26
BRANCH  24  28
ATOM     28  O   UNL     1       4.014   2.996  18.268  0.00  0.00    +0.000 OA
ATOM     29  C   UNL     1       2.963   2.178  17.774  0.00  0.00    +0.000 C 
ENDBRANCH  24  28
ENDBRANCH  19  20
ENDBRANCH   3  18
TORSDOF 8
ENDMDL
