MODEL 1
REMARK VINA RESULT:      -9.2      0.000      0.000
REMARK  Name = 
REMARK  6 active torsions:
REMARK  status: ('A' for Active; 'I' for Inactive)
REMARK    1  A    between atoms: C_2  and  C_15
REMARK    2  A    between atoms: N_3  and  C_4
REMARK    3  A    between atoms: C_4  and  C_5
REMARK    4  A    between atoms: C_5  and  C_6
REMARK    5  A    between atoms: C_17  and  C_18
REMARK    6  A    between atoms: C_22  and  C_23
REMARK                            x       y       z     vdW  Elec       q    Type
REMARK                         _______ _______ _______ _____ _____    ______ ____
ROOT
ATOM      1  C   UNL     1       7.684   7.355  17.669  0.00  0.00    +0.000 A 
ATOM      2  C   UNL     1       7.890   8.729  17.401  0.00  0.00    +0.000 A 
ATOM      3  C   UNL     1       8.644   9.195  18.447  0.00  0.00    +0.000 A 
ATOM      4  O   UNL     1       8.895   8.152  19.293  0.00  0.00    +0.000 OA
ATOM      5  N   UNL     1       8.287   6.995  18.814  0.00  0.00    +0.000 NA
ENDROOT
BRANCH   3   6
ATOM      6  C   UNL     1       9.184  10.504  18.797  0.00  0.00    +0.000 A 
ATOM      7  C   UNL     1      10.085  11.139  17.931  0.00  0.00    +0.000 A 
ATOM      8  C   UNL     1      10.610  12.391  18.241  0.00  0.00    +0.000 A 
ATOM      9  C   UNL     1      10.263  13.016  19.437  0.00  0.00    +0.000 A 
ATOM     10  C   UNL     1       9.381  12.410  20.350  0.00  0.00    +0.000 A 
ATOM     11  C   UNL     1       8.837  11.158  19.992  0.00  0.00    +0.000 A 
BRANCH  10  12
ATOM     12  C   UNL     1       9.094  13.037  21.664  0.00  0.00    +0.000 A 
ATOM     13  C   UNL     1       9.393  14.389  21.922  0.00  0.00    +0.000 A 
ATOM     14  C   UNL     1       9.214  14.947  23.193  0.00  0.00    +0.000 A 
ATOM     15  C   UNL     1       8.710  14.171  24.231  0.00  0.00    +0.000 A 
ATOM     16  C   UNL     1       8.372  12.842  23.996  0.00  0.00    +0.000 A 
ATOM     17  C   UNL     1       8.566  12.285  22.729  0.00  0.00    +0.000 A 
ENDBRANCH  10  12
ENDBRANCH   3   6
BRANCH   1  19
ATOM     18  O   UNL     1       7.399   5.954  15.806  0.00  0.00    +0.000 OA
ATOM     19  C   UNL     1       6.916   6.441  16.824  0.00  0.00    +0.000 C 
ATOM     20  N   UNL     1       5.615   6.178  17.220  0.00  0.00    +0.000 N 
ATOM     21  H   UNL     1       5.254   6.684  18.024  0.00  0.00    +0.000 HD
BRANCH  20  22
ATOM     22  C   UNL     1       4.772   5.369  16.365  0.00  0.00    +0.000 C 
BRANCH  22  23
ATOM     23  C   UNL     1       4.732   3.889  16.735  0.00  0.00    +0.000 C 
BRANCH  23  24
ATOM     24  C   UNL     1       3.651   3.617  17.757  0.00  0.00    +0.000 A 
ATOM     25  C   UNL     1       2.293   3.851  17.438  0.00  0.00    +0.000 A 
ATOM     26  C   UNL     1       1.283   3.641  18.385  0.00  0.00    +0.000 A 
ATOM     27  C   UNL     1       1.657   3.210  19.639  0.00  0.00    +0.000 A 
ATOM     28  C   UNL     1       2.974   2.987  19.963  0.00  0.00    +0.000 A 
ATOM     29  C   UNL     1       3.991   3.180  19.049  0.00  0.00    +0.000 A 
ATOM     30  O   UNL     1       3.129   2.579  21.251  0.00  0.00    +0.000 OA
ATOM     31  C   UNL     1       1.762   2.604  21.710  0.00  0.00    +0.000 C 
ATOM     32  O   UNL     1       0.818   2.967  20.681  0.00  0.00    +0.000 OA
ENDBRANCH  23  24
ENDBRANCH  22  23
ENDBRANCH  20  22
ENDBRANCH   1  19
TORSDOF 6
ENDMDL
MODEL 2
REMARK VINA RESULT:      -8.9      1.087      1.136
REMARK  Name = 
REMARK  6 active torsions:
REMARK  status: ('A' for Active; 'I' for Inactive)
REMARK    1  A    between atoms: C_2  and  C_15
REMARK    2  A    between atoms: N_3  and  C_4
REMARK    3  A    between atoms: C_4  and  C_5
REMARK    4  A    between atoms: C_5  and  C_6
REMARK    5  A    between atoms: C_17  and  C_18
REMARK    6  A    between atoms: C_22  and  C_23
REMARK                            x       y       z     vdW  Elec       q    Type
REMARK                         _______ _______ _______ _____ _____    ______ ____
ROOT
ATOM      1  C   UNL     1       7.709   7.851  17.675  0.00  0.00    +0.000 A 
ATOM      2  C   UNL     1       8.686   8.237  18.623  0.00  0.00    +0.000 A 
ATOM      3  C   UNL     1       8.670   9.609  18.625  0.00  0.00    +0.000 A 
ATOM      4  O   UNL     1       7.719  10.027  17.738  0.00  0.00    +0.000 OA
ATOM      5  N   UNL     1       7.118   8.927  17.132  0.00  0.00    +0.000 NA
ENDROOT
BRANCH   3   6
ATOM      6  C   UNL     1       9.427  10.626  19.346  0.00  0.00    +0.000 A 
ATOM      7  C   UNL     1      10.717  10.967  18.917  0.00  0.00    +0.000 A 
ATOM      8  C   UNL     1      11.457  11.938  19.586  0.00  0.00    +0.000 A 
ATOM      9  C   UNL     1      10.928  12.565  20.713  0.00  0.00    +0.000 A 
ATOM     10  C   UNL     1       9.648  12.241  21.197  0.00  0.00    +0.000 A 
ATOM     11  C   UNL     1       8.907  11.279  20.477  0.00  0.00    +0.000 A 
BRANCH  10  12
ATOM     12  C   UNL     1       9.133  12.842  22.452  0.00  0.00    +0.000 A 
ATOM     13  C   UNL     1       9.182  14.229  22.686  0.00  0.00    +0.000 A 
ATOM     14  C   UNL     1       8.789  14.778  23.912  0.00  0.00    +0.000 A 
ATOM     15  C   UNL     1       8.316  13.953  24.926  0.00  0.00    +0.000 A 
ATOM     16  C   UNL     1       8.221  12.582  24.711  0.00  0.00    +0.000 A 
ATOM     17  C   UNL     1       8.629  12.036  23.490  0.00  0.00    +0.000 A 
ENDBRANCH  10  12
ENDBRANCH   3   6
BRANCH   1  19
ATOM     18  O   UNL     1       7.669   6.006  16.223  0.00  0.00    +0.000 OA
ATOM     19  C   UNL     1       7.382   6.470  17.323  0.00  0.00    +0.000 C 
ATOM     20  N   UNL     1       6.712   5.729  18.282  0.00  0.00    +0.000 N 
ATOM     21  H   UNL     1       6.429   6.204  19.135  0.00  0.00    +0.000 HD
BRANCH  20  22
ATOM     22  C   UNL     1       6.264   4.392  17.948  0.00  0.00    +0.000 C 
BRANCH  22  23
ATOM     23  C   UNL     1       4.968   4.343  17.144  0.00  0.00    +0.000 C 
BRANCH  23  24
ATOM     24  C   UNL     1       3.799   3.966  18.028  0.00  0.00    +0.000 A 
ATOM     25  C   UNL     1       2.473   4.199  17.595  0.00  0.00    +0.000 A 
ATOM     26  C   UNL     1       1.381   3.891  18.416  0.00  0.00    +0.000 A 
ATOM     27  C   UNL     1       1.643   3.364  19.661  0.00  0.00    +0.000 A 
ATOM     28  C   UNL     1       2.927   3.139  20.095  0.00  0.00    +0.000 A 
ATOM     29  C   UNL     1       4.023   3.428  19.307  0.00  0.00    +0.000 A 
ATOM     30  O   UNL     1       2.966   2.627  21.355  0.00  0.00    +0.000 OA
ATOM     31  C   UNL     1       1.560   2.587  21.675  0.00  0.00    +0.000 C 
ATOM     32  O   UNL     1       0.712   3.018  20.590  0.00  0.00    +0.000 OA
ENDBRANCH  23  24
ENDBRANCH  22  23
ENDBRANCH  20  22
ENDBRANCH   1  19
TORSDOF 6
ENDMDL
MODEL 3
REMARK VINA RESULT:      -8.9      2.532      9.771
REMARK  Name = 
REMARK  6 active torsions:
REMARK  status: ('A' for Active; 'I' for Inactive)
REMARK    1  A    between atoms: C_2  and  C_15
REMARK    2  A    between atoms: N_3  and  C_4
REMARK    3  A    between atoms: C_4  and  C_5
REMARK    4  A    between atoms: C_5  and  C_6
REMARK    5  A    between atoms: C_17  and  C_18
REMARK    6  A    between atoms: C_22  and  C_23
REMARK                            x       y       z     vdW  Elec       q    Type
REMARK                         _______ _______ _______ _____ _____    ______ ____
ROOT
ATOM      1  C   UNL     1       8.324   8.815  18.302  0.00  0.00    +0.000 A 
ATOM      2  C   UNL     1       7.424   8.306  17.336  0.00  0.00    +0.000 A 
ATOM      3  C   UNL     1       7.335   6.962  17.594  0.00  0.00    +0.000 A 
ATOM      4  O   UNL     1       8.127   6.679  18.671  0.00  0.00    +0.000 OA
ATOM      5  N   UNL     1       8.757   7.837  19.115  0.00  0.00    +0.000 NA
ENDROOT
BRANCH   3   6
ATOM      6  C   UNL     1       6.606   5.862  16.972  0.00  0.00    +0.000 A 
ATOM      7  C   UNL     1       6.985   5.406  15.702  0.00  0.00    +0.000 A 
ATOM      8  C   UNL     1       6.308   4.353  15.091  0.00  0.00    +0.000 A 
ATOM      9  C   UNL     1       5.222   3.759  15.730  0.00  0.00    +0.000 A 
ATOM     10  C   UNL     1       4.787   4.196  16.995  0.00  0.00    +0.000 A 
ATOM     11  C   UNL     1       5.516   5.239  17.605  0.00  0.00    +0.000 A 
BRANCH  10  12
ATOM     12  C   UNL     1       3.571   3.623  17.623  0.00  0.00    +0.000 A 
ATOM     13  C   UNL     1       3.535   2.298  18.097  0.00  0.00    +0.000 A 
ATOM     14  C   UNL     1       2.355   1.733  18.595  0.00  0.00    +0.000 A 
ATOM     15  C   UNL     1       1.189   2.488  18.651  0.00  0.00    +0.000 A 
ATOM     16  C   UNL     1       1.205   3.812  18.225  0.00  0.00    +0.000 A 
ATOM     17  C   UNL     1       2.381   4.368  17.714  0.00  0.00    +0.000 A 
ENDBRANCH  10  12
ENDBRANCH   3   6
BRANCH   1  19
ATOM     18  O   UNL     1       8.346  11.058  17.610  0.00  0.00    +0.000 OA
ATOM     19  C   UNL     1       8.739  10.213  18.409  0.00  0.00    +0.000 C 
ATOM     20  N   UNL     1       9.612  10.523  19.438  0.00  0.00    +0.000 N 
ATOM     21  H   UNL     1       9.963   9.758  20.007  0.00  0.00    +0.000 HD
BRANCH  20  22
ATOM     22  C   UNL     1      10.144  11.868  19.525  0.00  0.00    +0.000 C 
BRANCH  22  23
ATOM     23  C   UNL     1      10.386  12.359  20.950  0.00  0.00    +0.000 C 
BRANCH  23  24
ATOM     24  C   UNL     1       9.078  12.526  21.693  0.00  0.00    +0.000 A 
ATOM     25  C   UNL     1       8.211  13.599  21.377  0.00  0.00    +0.000 A 
ATOM     26  C   UNL     1       7.015  13.791  22.080  0.00  0.00    +0.000 A 
ATOM     27  C   UNL     1       6.717  12.907  23.094  0.00  0.00    +0.000 A 
ATOM     28  C   UNL     1       7.555  11.866  23.414  0.00  0.00    +0.000 A 
ATOM     29  C   UNL     1       8.738  11.648  22.736  0.00  0.00    +0.000 A 
ATOM     30  O   UNL     1       7.083  11.121  24.450  0.00  0.00    +0.000 OA
ATOM     31  C   UNL     1       5.870  11.834  24.766  0.00  0.00    +0.000 C 
ATOM     32  O   UNL     1       5.612  12.946  23.884  0.00  0.00    +0.000 OA
ENDBRANCH  23  24
ENDBRANCH  22  23
ENDBRANCH  20  22
ENDBRANCH   1  19
TORSDOF 6
ENDMDL
MODEL 4
REMARK VINA RESULT:      -8.9      8.495     11.414
REMARK  Name = 
REMARK  6 active torsions:
REMARK  status: ('A' for Active; 'I' for Inactive)
REMARK    1  A    between atoms: C_2  and  C_15
REMARK    2  A    between atoms: N_3  and  C_4
REMARK    3  A    between atoms: C_4  and  C_5
REMARK    4  A    between atoms: C_5  and  C_6
REMARK    5  A    between atoms: C_17  and  C_18
REMARK    6  A    between atoms: C_22  and  C_23
REMARK                            x       y       z     vdW  Elec       q    Type
REMARK                         _______ _______ _______ _____ _____    ______ ____
ROOT
ATOM      1  C   UNL     1      -0.909  10.928  22.544  0.00  0.00    +0.000 A 
ATOM      2  C   UNL     1      -0.665  10.480  21.224  0.00  0.00    +0.000 A 
ATOM      3  C   UNL     1       0.380   9.598  21.326  0.00  0.00    +0.000 A 
ATOM      4  O   UNL     1       0.736   9.505  22.642  0.00  0.00    +0.000 OA
ATOM      5  N   UNL     1      -0.065  10.344  23.410  0.00  0.00    +0.000 NA
ENDROOT
BRANCH   3   6
ATOM      6  C   UNL     1       1.127   8.803  20.357  0.00  0.00    +0.000 A 
ATOM      7  C   UNL     1       1.429   9.342  19.099  0.00  0.00    +0.000 A 
ATOM      8  C   UNL     1       2.146   8.604  18.160  0.00  0.00    +0.000 A 
ATOM      9  C   UNL     1       2.548   7.303  18.457  0.00  0.00    +0.000 A 
ATOM     10  C   UNL     1       2.250   6.708  19.696  0.00  0.00    +0.000 A 
ATOM     11  C   UNL     1       1.554   7.493  20.640  0.00  0.00    +0.000 A 
BRANCH  10  12
ATOM     12  C   UNL     1       2.596   5.291  19.964  0.00  0.00    +0.000 A 
ATOM     13  C   UNL     1       1.944   4.544  20.964  0.00  0.00    +0.000 A 
ATOM     14  C   UNL     1       2.345   3.241  21.280  0.00  0.00    +0.000 A 
ATOM     15  C   UNL     1       3.394   2.645  20.588  0.00  0.00    +0.000 A 
ATOM     16  C   UNL     1       4.032   3.346  19.570  0.00  0.00    +0.000 A 
ATOM     17  C   UNL     1       3.639   4.653  19.267  0.00  0.00    +0.000 A 
ENDBRANCH  10  12
ENDBRANCH   3   6
BRANCH   1  19
ATOM     18  O   UNL     1      -2.914  11.564  23.585  0.00  0.00    +0.000 OA
ATOM     19  C   UNL     1      -1.935  11.897  22.925  0.00  0.00    +0.000 C 
ATOM     20  N   UNL     1      -1.753  13.196  22.481  0.00  0.00    +0.000 N 
ATOM     21  H   UNL     1      -0.966  13.381  21.866  0.00  0.00    +0.000 HD
BRANCH  20  22
ATOM     22  C   UNL     1      -2.791  14.175  22.733  0.00  0.00    +0.000 C 
BRANCH  22  23
ATOM     23  C   UNL     1      -3.557  14.618  21.489  0.00  0.00    +0.000 C 
BRANCH  23  24
ATOM     24  C   UNL     1      -4.640  13.621  21.139  0.00  0.00    +0.000 A 
ATOM     25  C   UNL     1      -5.721  13.403  22.024  0.00  0.00    +0.000 A 
ATOM     26  C   UNL     1      -6.712  12.456  21.732  0.00  0.00    +0.000 A 
ATOM     27  C   UNL     1      -6.591  11.740  20.562  0.00  0.00    +0.000 A 
ATOM     28  C   UNL     1      -5.541  11.938  19.699  0.00  0.00    +0.000 A 
ATOM     29  C   UNL     1      -4.553  12.868  19.955  0.00  0.00    +0.000 A 
ATOM     30  O   UNL     1      -5.603  11.123  18.611  0.00  0.00    +0.000 OA
ATOM     31  C   UNL     1      -6.794  10.366  18.908  0.00  0.00    +0.000 C 
ATOM     32  O   UNL     1      -7.448  10.778  20.126  0.00  0.00    +0.000 OA
ENDBRANCH  23  24
ENDBRANCH  22  23
ENDBRANCH  20  22
ENDBRANCH   1  19
TORSDOF 6
ENDMDL
MODEL 5
REMARK VINA RESULT:      -8.8      1.384      1.908
REMARK  Name = 
REMARK  6 active torsions:
REMARK  status: ('A' for Active; 'I' for Inactive)
REMARK    1  A    between atoms: C_2  and  C_15
REMARK    2  A    between atoms: N_3  and  C_4
REMARK    3  A    between atoms: C_4  and  C_5
REMARK    4  A    between atoms: C_5  and  C_6
REMARK    5  A    between atoms: C_17  and  C_18
REMARK    6  A    between atoms: C_22  and  C_23
REMARK                            x       y       z     vdW  Elec       q    Type
REMARK                         _______ _______ _______ _____ _____    ______ ____
ROOT
ATOM      1  C   UNL     1       8.044   8.044  18.165  0.00  0.00    +0.000 A 
ATOM      2  C   UNL     1       8.974   8.655  19.040  0.00  0.00    +0.000 A 
ATOM      3  C   UNL     1       9.001   9.977  18.676  0.00  0.00    +0.000 A 
ATOM      4  O   UNL     1       8.120  10.157  17.647  0.00  0.00    +0.000 OA
ATOM      5  N   UNL     1       7.522   8.945  17.317  0.00  0.00    +0.000 NA
ENDROOT
BRANCH   3   6
ATOM      6  C   UNL     1       9.746  11.138  19.149  0.00  0.00    +0.000 A 
ATOM      7  C   UNL     1      10.955  11.488  18.533  0.00  0.00    +0.000 A 
ATOM      8  C   UNL     1      11.682  12.595  18.963  0.00  0.00    +0.000 A 
ATOM      9  C   UNL     1      11.222  13.355  20.038  0.00  0.00    +0.000 A 
ATOM     10  C   UNL     1      10.027  13.031  20.706  0.00  0.00    +0.000 A 
ATOM     11  C   UNL     1       9.295  11.926  20.223  0.00  0.00    +0.000 A 
BRANCH  10  12
ATOM     12  C   UNL     1       9.598  13.786  21.909  0.00  0.00    +0.000 A 
ATOM     13  C   UNL     1      10.057  15.091  22.169  0.00  0.00    +0.000 A 
ATOM     14  C   UNL     1       9.728  15.757  23.356  0.00  0.00    +0.000 A 
ATOM     15  C   UNL     1       8.913  15.142  24.299  0.00  0.00    +0.000 A 
ATOM     16  C   UNL     1       8.415  13.867  24.052  0.00  0.00    +0.000 A 
ATOM     17  C   UNL     1       8.757  13.199  22.873  0.00  0.00    +0.000 A 
ENDBRANCH  10  12
ENDBRANCH   3   6
BRANCH   1  19
ATOM     18  O   UNL     1       7.758   5.955  19.199  0.00  0.00    +0.000 OA
ATOM     19  C   UNL     1       7.694   6.624  18.172  0.00  0.00    +0.000 C 
ATOM     20  N   UNL     1       7.314   6.076  16.958  0.00  0.00    +0.000 N 
ATOM     21  H   UNL     1       7.368   6.667  16.134  0.00  0.00    +0.000 HD
BRANCH  20  22
ATOM     22  C   UNL     1       7.063   4.651  16.881  0.00  0.00    +0.000 C 
BRANCH  22  23
ATOM     23  C   UNL     1       5.715   4.280  16.269  0.00  0.00    +0.000 C 
BRANCH  23  24
ATOM     24  C   UNL     1       4.713   3.923  17.345  0.00  0.00    +0.000 A 
ATOM     25  C   UNL     1       5.139   3.734  18.680  0.00  0.00    +0.000 A 
ATOM     26  C   UNL     1       4.231   3.366  19.682  0.00  0.00    +0.000 A 
ATOM     27  C   UNL     1       2.914   3.186  19.320  0.00  0.00    +0.000 A 
ATOM     28  C   UNL     1       2.490   3.361  18.024  0.00  0.00    +0.000 A 
ATOM     29  C   UNL     1       3.360   3.728  17.017  0.00  0.00    +0.000 A 
ATOM     30  O   UNL     1       1.159   3.123  17.878  0.00  0.00    +0.000 OA
ATOM     31  C   UNL     1       0.801   2.746  19.224  0.00  0.00    +0.000 C 
ATOM     32  O   UNL     1       1.903   2.821  20.153  0.00  0.00    +0.000 OA
ENDBRANCH  23  24
ENDBRANCH  22  23
ENDBRANCH  20  22
ENDBRANCH   1  19
TORSDOF 6
ENDMDL
MODEL 6
REMARK VINA RESULT:      -8.7      8.234     11.383
REMARK  Name = 
REMARK  6 active torsions:
REMARK  status: ('A' for Active; 'I' for Inactive)
REMARK    1  A    between atoms: C_2  and  C_15
REMARK    2  A    between atoms: N_3  and  C_4
REMARK    3  A    between atoms: C_4  and  C_5
REMARK    4  A    between atoms: C_5  and  C_6
REMARK    5  A    between atoms: C_17  and  C_18
REMARK    6  A    between atoms: C_22  and  C_23
REMARK                            x       y       z     vdW  Elec       q    Type
REMARK                         _______ _______ _______ _____ _____    ______ ____
ROOT
ATOM      1  C   UNL     1      -0.345  10.820  22.581  0.00  0.00    +0.000 A 
ATOM      2  C   UNL     1      -0.103  10.492  21.226  0.00  0.00    +0.000 A 
ATOM      3  C   UNL     1       0.692   9.375  21.258  0.00  0.00    +0.000 A 
ATOM      4  O   UNL     1       0.904   9.036  22.565  0.00  0.00    +0.000 OA
ATOM      5  N   UNL     1       0.262   9.946  23.400  0.00  0.00    +0.000 NA
ENDROOT
BRANCH   3   6
ATOM      6  C   UNL     1       1.309   8.546  20.228  0.00  0.00    +0.000 A 
ATOM      7  C   UNL     1       1.736   9.130  19.028  0.00  0.00    +0.000 A 
ATOM      8  C   UNL     1       2.332   8.360  18.032  0.00  0.00    +0.000 A 
ATOM      9  C   UNL     1       2.485   6.987  18.212  0.00  0.00    +0.000 A 
ATOM     10  C   UNL     1       2.051   6.349  19.388  0.00  0.00    +0.000 A 
ATOM     11  C   UNL     1       1.484   7.161  20.394  0.00  0.00    +0.000 A 
BRANCH  10  12
ATOM     12  C   UNL     1       2.129   4.874  19.528  0.00  0.00    +0.000 A 
ATOM     13  C   UNL     1       2.910   4.086  18.662  0.00  0.00    +0.000 A 
ATOM     14  C   UNL     1       2.899   2.688  18.736  0.00  0.00    +0.000 A 
ATOM     15  C   UNL     1       2.123   2.046  19.695  0.00  0.00    +0.000 A 
ATOM     16  C   UNL     1       1.369   2.800  20.588  0.00  0.00    +0.000 A 
ATOM     17  C   UNL     1       1.371   4.195  20.501  0.00  0.00    +0.000 A 
ENDBRANCH  10  12
ENDBRANCH   3   6
BRANCH   1  19
ATOM     18  O   UNL     1      -0.615  13.023  23.346  0.00  0.00    +0.000 OA
ATOM     19  C   UNL     1      -1.141  11.957  23.041  0.00  0.00    +0.000 C 
ATOM     20  N   UNL     1      -2.508  11.757  23.134  0.00  0.00    +0.000 N 
ATOM     21  H   UNL     1      -2.864  10.824  22.949  0.00  0.00    +0.000 HD
BRANCH  20  22
ATOM     22  C   UNL     1      -3.334  12.811  23.688  0.00  0.00    +0.000 C 
BRANCH  22  23
ATOM     23  C   UNL     1      -3.910  13.772  22.651  0.00  0.00    +0.000 C 
BRANCH  23  24
ATOM     24  C   UNL     1      -4.311  13.031  21.394  0.00  0.00    +0.000 A 
ATOM     25  C   UNL     1      -3.395  12.889  20.326  0.00  0.00    +0.000 A 
ATOM     26  C   UNL     1      -3.762  12.239  19.141  0.00  0.00    +0.000 A 
ATOM     27  C   UNL     1      -5.048  11.754  19.047  0.00  0.00    +0.000 A 
ATOM     28  C   UNL     1      -5.950  11.893  20.075  0.00  0.00    +0.000 A 
ATOM     29  C   UNL     1      -5.615  12.523  21.257  0.00  0.00    +0.000 A 
ATOM     30  O   UNL     1      -7.163  11.358  19.775  0.00  0.00    +0.000 OA
ATOM     31  C   UNL     1      -6.931  10.896  18.428  0.00  0.00    +0.000 C 
ATOM     32  O   UNL     1      -5.579  11.111  17.973  0.00  0.00    +0.000 OA
ENDBRANCH  23  24
ENDBRANCH  22  23
ENDBRANCH  20  22
ENDBRANCH   1  19
TORSDOF 6
ENDMDL
MODEL 7
REMARK VINA RESULT:      -8.7      5.976      8.319
REMARK  Name = 
REMARK  6 active torsions:
REMARK  status: ('A' for Active; 'I' for Inactive)
REMARK    1  A    between atoms: C_2  and  C_15
REMARK    2  A    between atoms: N_3  and  C_4
REMARK    3  A    between atoms: C_4  and  C_5
REMARK    4  A    between atoms: C_5  and  C_6
REMARK    5  A    between atoms: C_17  and  C_18
REMARK    6  A    between atoms: C_22  and  C_23
REMARK                            x       y       z     vdW  Elec       q    Type
REMARK                         _______ _______ _______ _____ _____    ______ ____
ROOT
ATOM      1  C   UNL     1       2.971   7.700  18.116  0.00  0.00    +0.000 A 
ATOM      2  C   UNL     1       2.087   8.088  19.151  0.00  0.00    +0.000 A 
ATOM      3  C   UNL     1       1.450   9.210  18.685  0.00  0.00    +0.000 A 
ATOM      4  O   UNL     1       1.914   9.474  17.427  0.00  0.00    +0.000 OA
ATOM      5  N   UNL     1       2.875   8.534  17.068  0.00  0.00    +0.000 NA
ENDROOT
BRANCH   3   6
ATOM      6  C   UNL     1       0.446  10.107  19.247  0.00  0.00    +0.000 A 
ATOM      7  C   UNL     1       0.665  10.701  20.497  0.00  0.00    +0.000 A 
ATOM      8  C   UNL     1      -0.276  11.565  21.051  0.00  0.00    +0.000 A 
ATOM      9  C   UNL     1      -1.466  11.826  20.374  0.00  0.00    +0.000 A 
ATOM     10  C   UNL     1      -1.744  11.236  19.127  0.00  0.00    +0.000 A 
ATOM     11  C   UNL     1      -0.755  10.394  18.574  0.00  0.00    +0.000 A 
BRANCH  10  12
ATOM     12  C   UNL     1      -3.053  11.443  18.461  0.00  0.00    +0.000 A 
ATOM     13  C   UNL     1      -3.256  11.119  17.106  0.00  0.00    +0.000 A 
ATOM     14  C   UNL     1      -4.461  11.410  16.458  0.00  0.00    +0.000 A 
ATOM     15  C   UNL     1      -5.501  12.013  17.156  0.00  0.00    +0.000 A 
ATOM     16  C   UNL     1      -5.343  12.311  18.506  0.00  0.00    +0.000 A 
ATOM     17  C   UNL     1      -4.132  12.032  19.146  0.00  0.00    +0.000 A 
ENDBRANCH  10  12
ENDBRANCH   3   6
BRANCH   1  19
ATOM     18  O   UNL     1       4.302   6.126  19.240  0.00  0.00    +0.000 OA
ATOM     19  C   UNL     1       3.875   6.552  18.171  0.00  0.00    +0.000 C 
ATOM     20  N   UNL     1       4.239   5.994  16.958  0.00  0.00    +0.000 N 
ATOM     21  H   UNL     1       3.917   6.452  16.110  0.00  0.00    +0.000 HD
BRANCH  20  22
ATOM     22  C   UNL     1       5.217   4.926  16.943  0.00  0.00    +0.000 C 
BRANCH  22  23
ATOM     23  C   UNL     1       4.624   3.528  16.786  0.00  0.00    +0.000 C 
BRANCH  23  24
ATOM     24  C   UNL     1       3.582   3.261  17.851  0.00  0.00    +0.000 A 
ATOM     25  C   UNL     1       2.206   3.329  17.534  0.00  0.00    +0.000 A 
ATOM     26  C   UNL     1       1.229   3.123  18.516  0.00  0.00    +0.000 A 
ATOM     27  C   UNL     1       1.654   2.863  19.800  0.00  0.00    +0.000 A 
ATOM     28  C   UNL     1       2.988   2.802  20.121  0.00  0.00    +0.000 A 
ATOM     29  C   UNL     1       3.974   2.995  19.174  0.00  0.00    +0.000 A 
ATOM     30  O   UNL     1       3.193   2.546  21.441  0.00  0.00    +0.000 OA
ATOM     31  C   UNL     1       1.833   2.487  21.920  0.00  0.00    +0.000 C 
ATOM     32  O   UNL     1       0.850   2.649  20.876  0.00  0.00    +0.000 OA
ENDBRANCH  23  24
ENDBRANCH  22  23
ENDBRANCH  20  22
ENDBRANCH   1  19
TORSDOF 6
ENDMDL
MODEL 8
REMARK VINA RESULT:      -8.6      7.735     11.006
REMARK  Name = 
REMARK  6 active torsions:
REMARK  status: ('A' for Active; 'I' for Inactive)
REMARK    1  A    between atoms: C_2  and  C_15
REMARK    2  A    between atoms: N_3  and  C_4
REMARK    3  A    between atoms: C_4  and  C_5
REMARK    4  A    between atoms: C_5  and  C_6
REMARK    5  A    between atoms: C_17  and  C_18
REMARK    6  A    between atoms: C_22  and  C_23
REMARK                            x       y       z     vdW  Elec       q    Type
REMARK                         _______ _______ _______ _____ _____    ______ ____
ROOT
ATOM      1  C   UNL     1       0.422   9.840  21.421  0.00  0.00    +0.000 A 
ATOM      2  C   UNL     1       0.844   8.515  21.684  0.00  0.00    +0.000 A 
ATOM      3  C   UNL     1       1.379   8.063  20.505  0.00  0.00    +0.000 A 
ATOM      4  O   UNL     1       1.300   9.070  19.584  0.00  0.00    +0.000 OA
ATOM      5  N   UNL     1       0.691  10.185  20.152  0.00  0.00    +0.000 NA
ENDROOT
BRANCH   3   6
ATOM      6  C   UNL     1       1.971   6.797  20.086  0.00  0.00    +0.000 A 
ATOM      7  C   UNL     1       1.844   5.666  20.902  0.00  0.00    +0.000 A 
ATOM      8  C   UNL     1       2.395   4.445  20.521  0.00  0.00    +0.000 A 
ATOM      9  C   UNL     1       3.107   4.345  19.327  0.00  0.00    +0.000 A 
ATOM     10  C   UNL     1       3.283   5.457  18.483  0.00  0.00    +0.000 A 
ATOM     11  C   UNL     1       2.681   6.671  18.879  0.00  0.00    +0.000 A 
BRANCH  10  12
ATOM     12  C   UNL     1       4.124   5.365  17.265  0.00  0.00    +0.000 A 
ATOM     13  C   UNL     1       4.551   4.126  16.750  0.00  0.00    +0.000 A 
ATOM     14  C   UNL     1       5.427   4.050  15.661  0.00  0.00    +0.000 A 
ATOM     15  C   UNL     1       5.879   5.213  15.047  0.00  0.00    +0.000 A 
ATOM     16  C   UNL     1       5.445   6.451  15.511  0.00  0.00    +0.000 A 
ATOM     17  C   UNL     1       4.582   6.523  16.608  0.00  0.00    +0.000 A 
ENDBRANCH  10  12
ENDBRANCH   3   6
BRANCH   1  19
ATOM     18  O   UNL     1      -0.540  10.322  23.508  0.00  0.00    +0.000 OA
ATOM     19  C   UNL     1      -0.227  10.722  22.391  0.00  0.00    +0.000 C 
ATOM     20  N   UNL     1      -0.488  12.016  21.972  0.00  0.00    +0.000 N 
ATOM     21  H   UNL     1      -0.281  12.252  21.006  0.00  0.00    +0.000 HD
BRANCH  20  22
ATOM     22  C   UNL     1      -1.227  12.901  22.849  0.00  0.00    +0.000 C 
BRANCH  22  23
ATOM     23  C   UNL     1      -2.090  13.931  22.125  0.00  0.00    +0.000 C 
BRANCH  23  24
ATOM     24  C   UNL     1      -3.331  13.285  21.549  0.00  0.00    +0.000 A 
ATOM     25  C   UNL     1      -3.396  12.968  20.172  0.00  0.00    +0.000 A 
ATOM     26  C   UNL     1      -4.551  12.405  19.615  0.00  0.00    +0.000 A 
ATOM     27  C   UNL     1      -5.623  12.180  20.450  0.00  0.00    +0.000 A 
ATOM     28  C   UNL     1      -5.574  12.491  21.788  0.00  0.00    +0.000 A 
ATOM     29  C   UNL     1      -4.448  13.042  22.367  0.00  0.00    +0.000 A 
ATOM     30  O   UNL     1      -6.738  12.203  22.430  0.00  0.00    +0.000 OA
ATOM     31  C   UNL     1      -7.536  11.707  21.335  0.00  0.00    +0.000 C 
ATOM     32  O   UNL     1      -6.822  11.654  20.083  0.00  0.00    +0.000 OA
ENDBRANCH  23  24
ENDBRANCH  22  23
ENDBRANCH  20  22
ENDBRANCH   1  19
TORSDOF 6
ENDMDL
MODEL 9
REMARK VINA RESULT:      -8.5      2.254      3.197
REMARK  Name = 
REMARK  6 active torsions:
REMARK  status: ('A' for Active; 'I' for Inactive)
REMARK    1  A    between atoms: C_2  and  C_15
REMARK    2  A    between atoms: N_3  and  C_4
REMARK    3  A    between atoms: C_4  and  C_5
REMARK    4  A    between atoms: C_5  and  C_6
REMARK    5  A    between atoms: C_17  and  C_18
REMARK    6  A    between atoms: C_22  and  C_23
REMARK                            x       y       z     vdW  Elec       q    Type
REMARK                         _______ _______ _______ _____ _____    ______ ____
ROOT
ATOM      1  C   UNL     1       7.992   8.288  18.020  0.00  0.00    +0.000 A 
ATOM      2  C   UNL     1       8.995   8.887  18.818  0.00  0.00    +0.000 A 
ATOM      3  C   UNL     1       8.961  10.222  18.505  0.00  0.00    +0.000 A 
ATOM      4  O   UNL     1       7.976  10.420  17.579  0.00  0.00    +0.000 OA
ATOM      5  N   UNL     1       7.370   9.208  17.265  0.00  0.00    +0.000 NA
ENDROOT
BRANCH   3   6
ATOM      6  C   UNL     1       9.730  11.381  18.946  0.00  0.00    +0.000 A 
ATOM      7  C   UNL     1      10.907  11.196  19.683  0.00  0.00    +0.000 A 
ATOM      8  C   UNL     1      11.660  12.287  20.110  0.00  0.00    +0.000 A 
ATOM      9  C   UNL     1      11.231  13.583  19.828  0.00  0.00    +0.000 A 
ATOM     10  C   UNL     1      10.045  13.822  19.112  0.00  0.00    +0.000 A 
ATOM     11  C   UNL     1       9.322  12.696  18.661  0.00  0.00    +0.000 A 
BRANCH  10  12
ATOM     12  C   UNL     1       9.546  15.203  18.902  0.00  0.00    +0.000 A 
ATOM     13  C   UNL     1       8.234  15.579  19.248  0.00  0.00    +0.000 A 
ATOM     14  C   UNL     1       7.738  16.855  18.954  0.00  0.00    +0.000 A 
ATOM     15  C   UNL     1       8.552  17.792  18.328  0.00  0.00    +0.000 A 
ATOM     16  C   UNL     1       9.864  17.461  18.008  0.00  0.00    +0.000 A 
ATOM     17  C   UNL     1      10.351  16.182  18.289  0.00  0.00    +0.000 A 
ENDBRANCH  10  12
ENDBRANCH   3   6
BRANCH   1  19
ATOM     18  O   UNL     1       7.726   6.185  19.029  0.00  0.00    +0.000 OA
ATOM     19  C   UNL     1       7.670   6.862  18.007  0.00  0.00    +0.000 C 
ATOM     20  N   UNL     1       7.326   6.317  16.781  0.00  0.00    +0.000 N 
ATOM     21  H   UNL     1       7.385   6.917  15.963  0.00  0.00    +0.000 HD
BRANCH  20  22
ATOM     22  C   UNL     1       7.105   4.889  16.686  0.00  0.00    +0.000 C 
BRANCH  22  23
ATOM     23  C   UNL     1       5.751   4.497  16.098  0.00  0.00    +0.000 C 
BRANCH  23  24
ATOM     24  C   UNL     1       4.792   4.073  17.189  0.00  0.00    +0.000 A 
ATOM     25  C   UNL     1       5.259   3.863  18.508  0.00  0.00    +0.000 A 
ATOM     26  C   UNL     1       4.393   3.434  19.520  0.00  0.00    +0.000 A 
ATOM     27  C   UNL     1       3.074   3.213  19.187  0.00  0.00    +0.000 A 
ATOM     28  C   UNL     1       2.611   3.406  17.907  0.00  0.00    +0.000 A 
ATOM     29  C   UNL     1       3.440   3.834  16.890  0.00  0.00    +0.000 A 
ATOM     30  O   UNL     1       1.287   3.120  17.788  0.00  0.00    +0.000 OA
ATOM     31  C   UNL     1       0.978   2.693  19.131  0.00  0.00    +0.000 C 
ATOM     32  O   UNL     1       2.100   2.786  20.034  0.00  0.00    +0.000 OA
ENDBRANCH  23  24
ENDBRANCH  22  23
ENDBRANCH  20  22
ENDBRANCH   1  19
TORSDOF 6
ENDMDL
