MODEL 1
REMARK VINA RESULT:      -7.1      0.000      0.000
REMARK  Name = 
REMARK  5 active torsions:
REMARK  status: ('A' for Active; 'I' for Inactive)
REMARK    1  A    between atoms: C_1  and  C_2
REMARK    2  A    between atoms: C_2  and  N_3
REMARK    3  A    between atoms: N_3  and  C_4
REMARK    4  A    between atoms: C_6  and  N_7
REMARK    5  A    between atoms: C_14  and  N_15
REMARK                            x       y       z     vdW  Elec       q    Type
REMARK                         _______ _______ _______ _____ _____    ______ ____
ROOT
ATOM      1  C   UNL     1       6.298   4.364  17.792  0.00  0.00    +0.000 A 
ATOM      2  C   UNL     1       5.298   4.063  18.749  0.00  0.00    +0.000 A 
ATOM      3  C   UNL     1       3.950   3.792  18.428  0.00  0.00    +0.000 A 
ATOM      4  C   UNL     1       3.609   3.864  17.075  0.00  0.00    +0.000 A 
ATOM      5  C   UNL     1       4.547   4.189  16.094  0.00  0.00    +0.000 A 
ATOM      6  C   UNL     1       5.881   4.438  16.446  0.00  0.00    +0.000 A 
ENDROOT
BRANCH   3   7
ATOM      7  N   UNL     1       3.016   3.496  19.398  0.00  0.00    +0.000 N 
ATOM      8  C   UNL     1       1.599   3.832  19.329  0.00  0.00    +0.000 C 
ATOM      9  C   UNL     1       1.182   3.878  20.794  0.00  0.00    +0.000 C 
ATOM     10  C   UNL     1       2.010   2.774  21.425  0.00  0.00    +0.000 C 
ATOM     11  C   UNL     1       3.329   2.804  20.651  0.00  0.00    +0.000 C 
ENDBRANCH   3   7
BRANCH   6  12
ATOM     12  N   UNL     1       6.825   4.720  15.350  0.00  0.00    +0.000 N 
ATOM     13  O   UNL     1       7.646   5.641  15.497  0.00  0.00    +0.000 OA
ATOM     14  O   UNL     1       6.773   3.998  14.342  0.00  0.00    +0.000 OA
ENDBRANCH   6  12
BRANCH   1  15
ATOM     15  N   UNL     1       7.598   4.718  18.213  0.00  0.00    +0.000 N 
ATOM     16  H   UNL     1       8.137   3.886  18.485  0.00  0.00    +0.000 HD
BRANCH  15  18
ATOM     17  C   UNL     1       7.988   7.113  18.438  0.00  0.00    +0.000 C 
ATOM     18  C   UNL     1       7.759   5.803  19.178  0.00  0.00    +0.000 C 
ENDBRANCH  15  18
ENDBRANCH   1  15
TORSDOF 4
ENDMDL
MODEL 2
REMARK VINA RESULT:      -7.0      0.728      1.326
REMARK  Name = 
REMARK  5 active torsions:
REMARK  status: ('A' for Active; 'I' for Inactive)
REMARK    1  A    between atoms: C_1  and  C_2
REMARK    2  A    between atoms: C_2  and  N_3
REMARK    3  A    between atoms: N_3  and  C_4
REMARK    4  A    between atoms: C_6  and  N_7
REMARK    5  A    between atoms: C_14  and  N_15
REMARK                            x       y       z     vdW  Elec       q    Type
REMARK                         _______ _______ _______ _____ _____    ______ ____
ROOT
ATOM      1  C   UNL     1       6.530   4.771  17.516  0.00  0.00    +0.000 A 
ATOM      2  C   UNL     1       5.674   4.554  18.624  0.00  0.00    +0.000 A 
ATOM      3  C   UNL     1       4.366   4.031  18.524  0.00  0.00    +0.000 A 
ATOM      4  C   UNL     1       3.908   3.750  17.235  0.00  0.00    +0.000 A 
ATOM      5  C   UNL     1       4.697   3.977  16.106  0.00  0.00    +0.000 A 
ATOM      6  C   UNL     1       5.997   4.483  16.242  0.00  0.00    +0.000 A 
ENDROOT
BRANCH   3   7
ATOM      7  N   UNL     1       3.576   3.832  19.636  0.00  0.00    +0.000 N 
ATOM      8  C   UNL     1       3.463   2.578  20.372  0.00  0.00    +0.000 C 
ATOM      9  C   UNL     1       2.096   2.687  21.035  0.00  0.00    +0.000 C 
ATOM     10  C   UNL     1       1.993   4.163  21.377  0.00  0.00    +0.000 C 
ATOM     11  C   UNL     1       2.724   4.865  20.231  0.00  0.00    +0.000 C 
ENDBRANCH   3   7
BRANCH   6  12
ATOM     12  N   UNL     1       6.789   4.643  15.009  0.00  0.00    +0.000 N 
ATOM     13  O   UNL     1       6.614   3.833  14.084  0.00  0.00    +0.000 OA
ATOM     14  O   UNL     1       7.571   5.604  14.944  0.00  0.00    +0.000 OA
ENDBRANCH   6  12
BRANCH   1  15
ATOM     15  N   UNL     1       7.786   5.389  17.700  0.00  0.00    +0.000 N 
ATOM     16  H   UNL     1       8.501   4.699  17.962  0.00  0.00    +0.000 HD
BRANCH  15  18
ATOM     17  C   UNL     1       7.731   7.824  17.648  0.00  0.00    +0.000 C 
ATOM     18  C   UNL     1       7.869   6.591  18.527  0.00  0.00    +0.000 C 
ENDBRANCH  15  18
ENDBRANCH   1  15
TORSDOF 4
ENDMDL
MODEL 3
REMARK VINA RESULT:      -6.8      1.401      1.707
REMARK  Name = 
REMARK  5 active torsions:
REMARK  status: ('A' for Active; 'I' for Inactive)
REMARK    1  A    between atoms: C_1  and  C_2
REMARK    2  A    between atoms: C_2  and  N_3
REMARK    3  A    between atoms: N_3  and  C_4
REMARK    4  A    between atoms: C_6  and  N_7
REMARK    5  A    between atoms: C_14  and  N_15
REMARK                            x       y       z     vdW  Elec       q    Type
REMARK                         _______ _______ _______ _____ _____    ______ ____
ROOT
ATOM      1  C   UNL     1       5.776   5.935  16.824  0.00  0.00    +0.000 A 
ATOM      2  C   UNL     1       4.828   5.837  17.872  0.00  0.00    +0.000 A 
ATOM      3  C   UNL     1       3.915   4.769  18.017  0.00  0.00    +0.000 A 
ATOM      4  C   UNL     1       3.956   3.781  17.031  0.00  0.00    +0.000 A 
ATOM      5  C   UNL     1       4.846   3.845  15.958  0.00  0.00    +0.000 A 
ATOM      6  C   UNL     1       5.750   4.913  15.852  0.00  0.00    +0.000 A 
ENDROOT
BRANCH   3   7
ATOM      7  N   UNL     1       3.017   4.716  19.062  0.00  0.00    +0.000 N 
ATOM      8  C   UNL     1       2.433   3.496  19.607  0.00  0.00    +0.000 C 
ATOM      9  C   UNL     1       1.132   3.984  20.232  0.00  0.00    +0.000 C 
ATOM     10  C   UNL     1       1.500   5.352  20.777  0.00  0.00    +0.000 C 
ATOM     11  C   UNL     1       2.513   5.897  19.768  0.00  0.00    +0.000 C 
ENDBRANCH   3   7
BRANCH   6  12
ATOM     12  N   UNL     1       6.696   4.883  14.723  0.00  0.00    +0.000 N 
ATOM     13  O   UNL     1       7.810   5.413  14.869  0.00  0.00    +0.000 OA
ATOM     14  O   UNL     1       6.343   4.298  13.687  0.00  0.00    +0.000 OA
ENDBRANCH   6  12
BRANCH   1  15
ATOM     15  N   UNL     1       6.582   7.087  16.703  0.00  0.00    +0.000 N 
ATOM     16  H   UNL     1       6.953   7.180  15.750  0.00  0.00    +0.000 HD
BRANCH  15  18
ATOM     17  C   UNL     1       7.952   8.822  17.729  0.00  0.00    +0.000 C 
ATOM     18  C   UNL     1       7.612   7.339  17.709  0.00  0.00    +0.000 C 
ENDBRANCH  15  18
ENDBRANCH   1  15
TORSDOF 4
ENDMDL
MODEL 4
REMARK VINA RESULT:      -6.5      1.759      3.113
REMARK  Name = 
REMARK  5 active torsions:
REMARK  status: ('A' for Active; 'I' for Inactive)
REMARK    1  A    between atoms: C_1  and  C_2
REMARK    2  A    between atoms: C_2  and  N_3
REMARK    3  A    between atoms: N_3  and  C_4
REMARK    4  A    between atoms: C_6  and  N_7
REMARK    5  A    between atoms: C_14  and  N_15
REMARK                            x       y       z     vdW  Elec       q    Type
REMARK                         _______ _______ _______ _____ _____    ______ ____
ROOT
ATOM      1  C   UNL     1       5.471   5.296  16.798  0.00  0.00    +0.000 A 
ATOM      2  C   UNL     1       4.258   4.635  17.112  0.00  0.00    +0.000 A 
ATOM      3  C   UNL     1       3.752   4.489  18.423  0.00  0.00    +0.000 A 
ATOM      4  C   UNL     1       4.537   5.013  19.452  0.00  0.00    +0.000 A 
ATOM      5  C   UNL     1       5.757   5.645  19.201  0.00  0.00    +0.000 A 
ATOM      6  C   UNL     1       6.222   5.786  17.886  0.00  0.00    +0.000 A 
ENDROOT
BRANCH   3   7
ATOM      7  N   UNL     1       2.561   3.842  18.675  0.00  0.00    +0.000 N 
ATOM      8  C   UNL     1       1.527   4.313  19.589  0.00  0.00    +0.000 C 
ATOM      9  C   UNL     1       0.795   3.033  19.973  0.00  0.00    +0.000 C 
ATOM     10  C   UNL     1       0.827   2.217  18.694  0.00  0.00    +0.000 C 
ATOM     11  C   UNL     1       2.173   2.571  18.057  0.00  0.00    +0.000 C 
ENDBRANCH   3   7
BRANCH   6  12
ATOM     12  N   UNL     1       7.490   6.513  17.696  0.00  0.00    +0.000 N 
ATOM     13  O   UNL     1       7.739   6.988  16.576  0.00  0.00    +0.000 OA
ATOM     14  O   UNL     1       8.235   6.644  18.680  0.00  0.00    +0.000 OA
ENDBRANCH   6  12
BRANCH   1  15
ATOM     15  N   UNL     1       5.947   5.309  15.469  0.00  0.00    +0.000 N 
ATOM     16  H   UNL     1       5.259   5.733  14.835  0.00  0.00    +0.000 HD
BRANCH  15  18
ATOM     17  C   UNL     1       5.925   3.838  13.527  0.00  0.00    +0.000 C 
ATOM     18  C   UNL     1       6.513   4.085  14.908  0.00  0.00    +0.000 C 
ENDBRANCH  15  18
ENDBRANCH   1  15
TORSDOF 4
ENDMDL
MODEL 5
REMARK VINA RESULT:      -6.5      1.698      3.061
REMARK  Name = 
REMARK  5 active torsions:
REMARK  status: ('A' for Active; 'I' for Inactive)
REMARK    1  A    between atoms: C_1  and  C_2
REMARK    2  A    between atoms: C_2  and  N_3
REMARK    3  A    between atoms: N_3  and  C_4
REMARK    4  A    between atoms: C_6  and  N_7
REMARK    5  A    between atoms: C_14  and  N_15
REMARK                            x       y       z     vdW  Elec       q    Type
REMARK                         _______ _______ _______ _____ _____    ______ ____
ROOT
ATOM      1  C   UNL     1       5.139   5.030  16.438  0.00  0.00    +0.000 A 
ATOM      2  C   UNL     1       4.096   4.298  17.055  0.00  0.00    +0.000 A 
ATOM      3  C   UNL     1       3.834   4.307  18.443  0.00  0.00    +0.000 A 
ATOM      4  C   UNL     1       4.697   5.073  19.231  0.00  0.00    +0.000 A 
ATOM      5  C   UNL     1       5.762   5.787  18.679  0.00  0.00    +0.000 A 
ATOM      6  C   UNL     1       5.984   5.767  17.294  0.00  0.00    +0.000 A 
ENDROOT
BRANCH   3   7
ATOM      7  N   UNL     1       2.799   3.582  18.993  0.00  0.00    +0.000 N 
ATOM      8  C   UNL     1       2.158   2.429  18.372  0.00  0.00    +0.000 C 
ATOM      9  C   UNL     1       0.777   2.412  19.015  0.00  0.00    +0.000 C 
ATOM     10  C   UNL     1       1.049   2.871  20.436  0.00  0.00    +0.000 C 
ATOM     11  C   UNL     1       2.188   3.883  20.291  0.00  0.00    +0.000 C 
ENDBRANCH   3   7
BRANCH   6  12
ATOM     12  N   UNL     1       7.093   6.589  16.780  0.00  0.00    +0.000 N 
ATOM     13  O   UNL     1       7.762   6.154  15.828  0.00  0.00    +0.000 OA
ATOM     14  O   UNL     1       7.284   7.698  17.304  0.00  0.00    +0.000 OA
ENDBRANCH   6  12
BRANCH   1  15
ATOM     15  N   UNL     1       5.387   4.883  15.056  0.00  0.00    +0.000 N 
ATOM     16  H   UNL     1       4.561   5.144  14.504  0.00  0.00    +0.000 HD
BRANCH  15  18
ATOM     17  C   UNL     1       6.069   3.674  13.054  0.00  0.00    +0.000 C 
ATOM     18  C   UNL     1       5.989   3.643  14.572  0.00  0.00    +0.000 C 
ENDBRANCH  15  18
ENDBRANCH   1  15
TORSDOF 4
ENDMDL
MODEL 6
REMARK VINA RESULT:      -6.4      3.632      4.565
REMARK  Name = 
REMARK  5 active torsions:
REMARK  status: ('A' for Active; 'I' for Inactive)
REMARK    1  A    between atoms: C_1  and  C_2
REMARK    2  A    between atoms: C_2  and  N_3
REMARK    3  A    between atoms: N_3  and  C_4
REMARK    4  A    between atoms: C_6  and  N_7
REMARK    5  A    between atoms: C_14  and  N_15
REMARK                            x       y       z     vdW  Elec       q    Type
REMARK                         _______ _______ _______ _____ _____    ______ ____
ROOT
ATOM      1  C   UNL     1       4.761   4.409  19.023  0.00  0.00    +0.000 A 
ATOM      2  C   UNL     1       4.252   5.724  18.894  0.00  0.00    +0.000 A 
ATOM      3  C   UNL     1       2.910   6.083  19.149  0.00  0.00    +0.000 A 
ATOM      4  C   UNL     1       2.051   5.046  19.519  0.00  0.00    +0.000 A 
ATOM      5  C   UNL     1       2.492   3.726  19.629  0.00  0.00    +0.000 A 
ATOM      6  C   UNL     1       3.835   3.407  19.383  0.00  0.00    +0.000 A 
ENDROOT
BRANCH   3   7
ATOM      7  N   UNL     1       2.466   7.382  19.016  0.00  0.00    +0.000 N 
ATOM      8  C   UNL     1       1.813   8.157  20.064  0.00  0.00    +0.000 C 
ATOM      9  C   UNL     1       1.003   9.184  19.282  0.00  0.00    +0.000 C 
ATOM     10  C   UNL     1       1.894   9.495  18.093  0.00  0.00    +0.000 C 
ATOM     11  C   UNL     1       2.584   8.165  17.784  0.00  0.00    +0.000 C 
ENDBRANCH   3   7
BRANCH   6  12
ATOM     12  N   UNL     1       4.238   2.003  19.572  0.00  0.00    +0.000 N 
ATOM     13  O   UNL     1       3.777   1.145  18.801  0.00  0.00    +0.000 OA
ATOM     14  O   UNL     1       5.048   1.750  20.477  0.00  0.00    +0.000 OA
ENDBRANCH   6  12
BRANCH   1  15
ATOM     15  N   UNL     1       6.093   4.125  18.652  0.00  0.00    +0.000 N 
ATOM     16  H   UNL     1       6.628   3.759  19.450  0.00  0.00    +0.000 HD
BRANCH  15  18
ATOM     17  C   UNL     1       7.188   4.597  16.527  0.00  0.00    +0.000 C 
ATOM     18  C   UNL     1       6.852   5.130  17.912  0.00  0.00    +0.000 C 
ENDBRANCH  15  18
ENDBRANCH   1  15
TORSDOF 4
ENDMDL
MODEL 7
REMARK VINA RESULT:      -6.4      1.459      2.935
REMARK  Name = 
REMARK  5 active torsions:
REMARK  status: ('A' for Active; 'I' for Inactive)
REMARK    1  A    between atoms: C_1  and  C_2
REMARK    2  A    between atoms: C_2  and  N_3
REMARK    3  A    between atoms: N_3  and  C_4
REMARK    4  A    between atoms: C_6  and  N_7
REMARK    5  A    between atoms: C_14  and  N_15
REMARK                            x       y       z     vdW  Elec       q    Type
REMARK                         _______ _______ _______ _____ _____    ______ ____
ROOT
ATOM      1  C   UNL     1       5.186   4.156  16.839  0.00  0.00    +0.000 A 
ATOM      2  C   UNL     1       4.019   3.810  17.563  0.00  0.00    +0.000 A 
ATOM      3  C   UNL     1       3.720   4.286  18.858  0.00  0.00    +0.000 A 
ATOM      4  C   UNL     1       4.671   5.123  19.445  0.00  0.00    +0.000 A 
ATOM      5  C   UNL     1       5.854   5.469  18.791  0.00  0.00    +0.000 A 
ATOM      6  C   UNL     1       6.113   4.990  17.498  0.00  0.00    +0.000 A 
ENDROOT
BRANCH   3   7
ATOM      7  N   UNL     1       2.564   3.925  19.517  0.00  0.00    +0.000 N 
ATOM      8  C   UNL     1       2.312   4.121  20.940  0.00  0.00    +0.000 C 
ATOM      9  C   UNL     1       1.274   3.053  21.259  0.00  0.00    +0.000 C 
ATOM     10  C   UNL     1       0.427   3.005  20.000  0.00  0.00    +0.000 C 
ATOM     11  C   UNL     1       1.421   3.276  18.869  0.00  0.00    +0.000 C 
ENDBRANCH   3   7
BRANCH   6  12
ATOM     12  N   UNL     1       7.356   5.443  16.850  0.00  0.00    +0.000 N 
ATOM     13  O   UNL     1       8.139   4.587  16.407  0.00  0.00    +0.000 OA
ATOM     14  O   UNL     1       7.544   6.665  16.749  0.00  0.00    +0.000 OA
ENDBRANCH   6  12
BRANCH   1  15
ATOM     15  N   UNL     1       5.449   3.554  15.589  0.00  0.00    +0.000 N 
ATOM     16  H   UNL     1       6.329   3.025  15.613  0.00  0.00    +0.000 HD
BRANCH  15  18
ATOM     17  C   UNL     1       6.161   3.728  13.265  0.00  0.00    +0.000 C 
ATOM     18  C   UNL     1       5.339   4.363  14.377  0.00  0.00    +0.000 C 
ENDBRANCH  15  18
ENDBRANCH   1  15
TORSDOF 4
ENDMDL
MODEL 8
REMARK VINA RESULT:      -6.3      1.261      1.436
REMARK  Name = 
REMARK  5 active torsions:
REMARK  status: ('A' for Active; 'I' for Inactive)
REMARK    1  A    between atoms: C_1  and  C_2
REMARK    2  A    between atoms: C_2  and  N_3
REMARK    3  A    between atoms: N_3  and  C_4
REMARK    4  A    between atoms: C_6  and  N_7
REMARK    5  A    between atoms: C_14  and  N_15
REMARK                            x       y       z     vdW  Elec       q    Type
REMARK                         _______ _______ _______ _____ _____    ______ ____
ROOT
ATOM      1  C   UNL     1       5.507   5.682  17.471  0.00  0.00    +0.000 A 
ATOM      2  C   UNL     1       4.533   5.360  18.447  0.00  0.00    +0.000 A 
ATOM      3  C   UNL     1       3.755   4.181  18.431  0.00  0.00    +0.000 A 
ATOM      4  C   UNL     1       3.964   3.316  17.354  0.00  0.00    +0.000 A 
ATOM      5  C   UNL     1       4.887   3.601  16.347  0.00  0.00    +0.000 A 
ATOM      6  C   UNL     1       5.653   4.774  16.402  0.00  0.00    +0.000 A 
ENDROOT
BRANCH   3   7
ATOM      7  N   UNL     1       2.825   3.910  19.411  0.00  0.00    +0.000 N 
ATOM      8  C   UNL     1       2.643   4.683  20.634  0.00  0.00    +0.000 C 
ATOM      9  C   UNL     1       2.012   3.679  21.590  0.00  0.00    +0.000 C 
ATOM     10  C   UNL     1       1.120   2.850  20.683  0.00  0.00    +0.000 C 
ATOM     11  C   UNL     1       1.886   2.786  19.360  0.00  0.00    +0.000 C 
ENDBRANCH   3   7
BRANCH   6  12
ATOM     12  N   UNL     1       6.646   4.978  15.332  0.00  0.00    +0.000 N 
ATOM     13  O   UNL     1       6.272   5.499  14.268  0.00  0.00    +0.000 OA
ATOM     14  O   UNL     1       7.820   4.649  15.561  0.00  0.00    +0.000 OA
ENDBRANCH   6  12
BRANCH   1  15
ATOM     15  N   UNL     1       6.168   6.929  17.514  0.00  0.00    +0.000 N 
ATOM     16  H   UNL     1       6.097   7.415  16.611  0.00  0.00    +0.000 HD
BRANCH  15  18
ATOM     17  C   UNL     1       8.090   8.390  17.842  0.00  0.00    +0.000 C 
ATOM     18  C   UNL     1       7.523   6.994  18.055  0.00  0.00    +0.000 C 
ENDBRANCH  15  18
ENDBRANCH   1  15
TORSDOF 4
ENDMDL
MODEL 9
REMARK VINA RESULT:      -6.3      1.386      2.713
REMARK  Name = 
REMARK  5 active torsions:
REMARK  status: ('A' for Active; 'I' for Inactive)
REMARK    1  A    between atoms: C_1  and  C_2
REMARK    2  A    between atoms: C_2  and  N_3
REMARK    3  A    between atoms: N_3  and  C_4
REMARK    4  A    between atoms: C_6  and  N_7
REMARK    5  A    between atoms: C_14  and  N_15
REMARK                            x       y       z     vdW  Elec       q    Type
REMARK                         _______ _______ _______ _____ _____    ______ ____
ROOT
ATOM      1  C   UNL     1       5.301   4.066  16.807  0.00  0.00    +0.000 A 
ATOM      2  C   UNL     1       4.185   3.631  17.563  0.00  0.00    +0.000 A 
ATOM      3  C   UNL     1       3.894   4.074  18.872  0.00  0.00    +0.000 A 
ATOM      4  C   UNL     1       4.801   4.972  19.438  0.00  0.00    +0.000 A 
ATOM      5  C   UNL     1       5.935   5.407  18.751  0.00  0.00    +0.000 A 
ATOM      6  C   UNL     1       6.186   4.959  17.446  0.00  0.00    +0.000 A 
ENDROOT
BRANCH   3   7
ATOM      7  N   UNL     1       2.788   3.625  19.562  0.00  0.00    +0.000 N 
ATOM      8  C   UNL     1       1.414   3.688  19.079  0.00  0.00    +0.000 C 
ATOM      9  C   UNL     1       0.594   3.681  20.362  0.00  0.00    +0.000 C 
ATOM     10  C   UNL     1       1.385   2.762  21.275  0.00  0.00    +0.000 C 
ATOM     11  C   UNL     1       2.845   3.025  20.898  0.00  0.00    +0.000 C 
ENDBRANCH   3   7
BRANCH   6  12
ATOM     12  N   UNL     1       7.373   5.506  16.765  0.00  0.00    +0.000 N 
ATOM     13  O   UNL     1       7.542   6.736  16.765  0.00  0.00    +0.000 OA
ATOM     14  O   UNL     1       8.167   4.702  16.251  0.00  0.00    +0.000 OA
ENDBRANCH   6  12
BRANCH   1  15
ATOM     15  N   UNL     1       5.567   3.496  15.543  0.00  0.00    +0.000 N 
ATOM     16  H   UNL     1       6.476   3.017  15.538  0.00  0.00    +0.000 HD
BRANCH  15  18
ATOM     17  C   UNL     1       6.153   3.697  13.187  0.00  0.00    +0.000 C 
ATOM     18  C   UNL     1       5.383   4.312  14.345  0.00  0.00    +0.000 C 
ENDBRANCH  15  18
ENDBRANCH   1  15
TORSDOF 4
ENDMDL
