MODEL 1
REMARK VINA RESULT:      -8.1      0.000      0.000
REMARK  Name = 
REMARK  13 active torsions:
REMARK  status: ('A' for Active; 'I' for Inactive)
REMARK    1  A    between atoms: C_1  and  O_2
REMARK    2  A    between atoms: O_2  and  C_3
REMARK    3  A    between atoms: C_6  and  N_7
REMARK    4  A    between atoms: C_8  and  C_10
REMARK    5  A    between atoms: C_13  and  N_14
REMARK    6  A    between atoms: C_15  and  C_17
REMARK    7  A    between atoms: C_17  and  N_18
REMARK    8  A    between atoms: N_18  and  C_19
REMARK    9  A    between atoms: N_18  and  C_20
REMARK   10  A    between atoms: C_20  and  C_21
REMARK   11  A    between atoms: N_23  and  C_24
REMARK   12  A    between atoms: C_25  and  C_26
REMARK   13  A    between atoms: C_30  and  C_31
REMARK                            x       y       z     vdW  Elec       q    Type
REMARK                         _______ _______ _______ _____ _____    ______ ____
ROOT
ATOM      1  N   UNL     1       3.920   6.642  17.144  0.00  0.00    +0.000 N 
ATOM      2  C   UNL     1       5.274   6.892  16.963  0.00  0.00    +0.000 C 
ATOM      3  O   UNL     1       5.957   7.685  17.608  0.00  0.00    +0.000 OA
ATOM      4  H   UNL     1       3.539   5.838  16.654  0.00  0.00    +0.000 HD
ENDROOT
BRANCH   1   8
ATOM      5  C   UNL     1       1.328   8.812  19.672  0.00  0.00    +0.000 A 
ATOM      6  C   UNL     1       1.599   9.286  18.390  0.00  0.00    +0.000 A 
ATOM      7  C   UNL     1       2.453   8.567  17.550  0.00  0.00    +0.000 A 
ATOM      8  C   UNL     1       3.058   7.381  17.977  0.00  0.00    +0.000 A 
ATOM      9  C   UNL     1       2.781   6.905  19.262  0.00  0.00    +0.000 A 
ATOM     10  C   UNL     1       1.935   7.628  20.114  0.00  0.00    +0.000 A 
BRANCH   5  12
ATOM     11  N   UNL     1       0.026  10.804  20.150  0.00  0.00    +0.000 N 
ATOM     12  C   UNL     1       0.431   9.555  20.597  0.00  0.00    +0.000 C 
ATOM     13  O   UNL     1       0.106   9.001  21.638  0.00  0.00    +0.000 OA
ATOM     14  H   UNL     1       0.310  11.081  19.220  0.00  0.00    +0.000 HD
BRANCH  11  18
ATOM     15  C   UNL     1      -2.420  13.520  22.275  0.00  0.00    +0.000 A 
ATOM     16  C   UNL     1      -2.722  13.204  20.954  0.00  0.00    +0.000 A 
ATOM     17  C   UNL     1      -1.940  12.296  20.237  0.00  0.00    +0.000 A 
ATOM     18  C   UNL     1      -0.821  11.709  20.822  0.00  0.00    +0.000 A 
ATOM     19  C   UNL     1      -0.512  12.033  22.152  0.00  0.00    +0.000 A 
ATOM     20  C   UNL     1      -1.307  12.934  22.877  0.00  0.00    +0.000 A 
BRANCH  15  22
ATOM     21  C   UNL     1      -4.470  14.689  22.160  0.00  0.00    +0.000 C 
ATOM     22  O   UNL     1      -3.256  14.432  22.853  0.00  0.00    +0.000 OA
ENDBRANCH  15  22
ENDBRANCH  11  18
ENDBRANCH   5  12
ENDBRANCH   1   8
BRANCH   2  23
ATOM     23  C   UNL     1       5.921   6.039  15.874  0.00  0.00    +0.000 C 
BRANCH  23  24
ATOM     24  N   UNL     1       5.631   4.594  16.079  0.00  0.00    +0.000 NA
ATOM     25  C   UNL     1       6.185   3.835  14.944  0.00  0.00    +0.000 C 
BRANCH  24  26
ATOM     26  C   UNL     1       6.283   4.131  17.330  0.00  0.00    +0.000 C 
BRANCH  26  27
ATOM     27  C   UNL     1       5.289   4.141  18.500  0.00  0.00    +0.000 C 
ATOM     28  O   UNL     1       5.445   4.899  19.454  0.00  0.00    +0.000 OA
ATOM     29  N   UNL     1       4.256   3.223  18.357  0.00  0.00    +0.000 N 
ATOM     30  H   UNL     1       4.496   2.413  17.802  0.00  0.00    +0.000 HD
BRANCH  29  31
ATOM     31  C   UNL     1       3.242   3.065  19.334  0.00  0.00    +0.000 A 
ATOM     32  C   UNL     1       1.927   3.540  19.129  0.00  0.00    +0.000 A 
ATOM     33  C   UNL     1       1.425   4.147  17.850  0.00  0.00    +0.000 C 
ATOM     34  C   UNL     1       0.973   3.380  20.146  0.00  0.00    +0.000 A 
ATOM     35  C   UNL     1       1.291   2.720  21.326  0.00  0.00    +0.000 A 
ATOM     36  C   UNL     1       2.570   2.204  21.506  0.00  0.00    +0.000 A 
ATOM     37  C   UNL     1       3.558   2.370  20.524  0.00  0.00    +0.000 A 
ATOM     38  C   UNL     1       4.936   1.830  20.798  0.00  0.00    +0.000 C 
ENDBRANCH  29  31
ENDBRANCH  26  27
ENDBRANCH  24  26
ENDBRANCH  23  24
ENDBRANCH   2  23
TORSDOF 9
ENDMDL
MODEL 2
REMARK VINA RESULT:      -7.9      0.459      1.546
REMARK  Name = 
REMARK  13 active torsions:
REMARK  status: ('A' for Active; 'I' for Inactive)
REMARK    1  A    between atoms: C_1  and  O_2
REMARK    2  A    between atoms: O_2  and  C_3
REMARK    3  A    between atoms: C_6  and  N_7
REMARK    4  A    between atoms: C_8  and  C_10
REMARK    5  A    between atoms: C_13  and  N_14
REMARK    6  A    between atoms: C_15  and  C_17
REMARK    7  A    between atoms: C_17  and  N_18
REMARK    8  A    between atoms: N_18  and  C_19
REMARK    9  A    between atoms: N_18  and  C_20
REMARK   10  A    between atoms: C_20  and  C_21
REMARK   11  A    between atoms: N_23  and  C_24
REMARK   12  A    between atoms: C_25  and  C_26
REMARK   13  A    between atoms: C_30  and  C_31
REMARK                            x       y       z     vdW  Elec       q    Type
REMARK                         _______ _______ _______ _____ _____    ______ ____
ROOT
ATOM      1  N   UNL     1       3.931   6.662  17.101  0.00  0.00    +0.000 N 
ATOM      2  C   UNL     1       5.276   6.929  16.877  0.00  0.00    +0.000 C 
ATOM      3  O   UNL     1       5.974   7.716  17.513  0.00  0.00    +0.000 OA
ATOM      4  H   UNL     1       3.541   5.864  16.610  0.00  0.00    +0.000 HD
ENDROOT
BRANCH   1   8
ATOM      5  C   UNL     1       1.409   8.758  19.758  0.00  0.00    +0.000 A 
ATOM      6  C   UNL     1       1.690   9.296  18.504  0.00  0.00    +0.000 A 
ATOM      7  C   UNL     1       2.521   8.602  17.622  0.00  0.00    +0.000 A 
ATOM      8  C   UNL     1       3.093   7.377  17.978  0.00  0.00    +0.000 A 
ATOM      9  C   UNL     1       2.805   6.836  19.235  0.00  0.00    +0.000 A 
ATOM     10  C   UNL     1       1.983   7.533  20.130  0.00  0.00    +0.000 A 
BRANCH   5  12
ATOM     11  N   UNL     1      -0.096  10.603  20.231  0.00  0.00    +0.000 N 
ATOM     12  C   UNL     1       0.535   9.472  20.727  0.00  0.00    +0.000 C 
ATOM     13  O   UNL     1       0.423   8.995  21.848  0.00  0.00    +0.000 OA
ATOM     14  H   UNL     1       0.029  10.814  19.249  0.00  0.00    +0.000 HD
BRANCH  11  18
ATOM     15  C   UNL     1      -2.647  13.149  22.442  0.00  0.00    +0.000 A 
ATOM     16  C   UNL     1      -2.837  12.998  21.071  0.00  0.00    +0.000 A 
ATOM     17  C   UNL     1      -2.019  12.149  20.323  0.00  0.00    +0.000 A 
ATOM     18  C   UNL     1      -0.975  11.457  20.929  0.00  0.00    +0.000 A 
ATOM     19  C   UNL     1      -0.778  11.614  22.310  0.00  0.00    +0.000 A 
ATOM     20  C   UNL     1      -1.610  12.456  23.064  0.00  0.00    +0.000 A 
BRANCH  15  22
ATOM     21  C   UNL     1      -4.863  13.605  23.122  0.00  0.00    +0.000 C 
ATOM     22  O   UNL     1      -3.506  14.020  23.049  0.00  0.00    +0.000 OA
ENDBRANCH  15  22
ENDBRANCH  11  18
ENDBRANCH   5  12
ENDBRANCH   1   8
BRANCH   2  23
ATOM     23  C   UNL     1       5.892   6.103  15.750  0.00  0.00    +0.000 C 
BRANCH  23  24
ATOM     24  N   UNL     1       5.255   4.762  15.655  0.00  0.00    +0.000 NA
ATOM     25  C   UNL     1       5.538   4.197  14.325  0.00  0.00    +0.000 C 
BRANCH  24  26
ATOM     26  C   UNL     1       5.830   3.866  16.690  0.00  0.00    +0.000 C 
BRANCH  26  27
ATOM     27  C   UNL     1       5.017   3.938  17.990  0.00  0.00    +0.000 C 
ATOM     28  O   UNL     1       5.374   4.657  18.919  0.00  0.00    +0.000 OA
ATOM     29  N   UNL     1       3.895   3.118  17.988  0.00  0.00    +0.000 N 
ATOM     30  H   UNL     1       3.979   2.303  17.396  0.00  0.00    +0.000 HD
BRANCH  29  31
ATOM     31  C   UNL     1       3.019   3.030  19.098  0.00  0.00    +0.000 A 
ATOM     32  C   UNL     1       3.413   2.427  20.313  0.00  0.00    +0.000 A 
ATOM     33  C   UNL     1       4.797   1.925  20.611  0.00  0.00    +0.000 C 
ATOM     34  C   UNL     1       2.492   2.342  21.368  0.00  0.00    +0.000 A 
ATOM     35  C   UNL     1       1.219   2.886  21.249  0.00  0.00    +0.000 A 
ATOM     36  C   UNL     1       0.849   3.529  20.072  0.00  0.00    +0.000 A 
ATOM     37  C   UNL     1       1.733   3.606  18.986  0.00  0.00    +0.000 A 
ATOM     38  C   UNL     1       1.257   4.273  17.723  0.00  0.00    +0.000 C 
ENDBRANCH  29  31
ENDBRANCH  26  27
ENDBRANCH  24  26
ENDBRANCH  23  24
ENDBRANCH   2  23
TORSDOF 9
ENDMDL
MODEL 3
REMARK VINA RESULT:      -7.9      0.581      1.000
REMARK  Name = 
REMARK  13 active torsions:
REMARK  status: ('A' for Active; 'I' for Inactive)
REMARK    1  A    between atoms: C_1  and  O_2
REMARK    2  A    between atoms: O_2  and  C_3
REMARK    3  A    between atoms: C_6  and  N_7
REMARK    4  A    between atoms: C_8  and  C_10
REMARK    5  A    between atoms: C_13  and  N_14
REMARK    6  A    between atoms: C_15  and  C_17
REMARK    7  A    between atoms: C_17  and  N_18
REMARK    8  A    between atoms: N_18  and  C_19
REMARK    9  A    between atoms: N_18  and  C_20
REMARK   10  A    between atoms: C_20  and  C_21
REMARK   11  A    between atoms: N_23  and  C_24
REMARK   12  A    between atoms: C_25  and  C_26
REMARK   13  A    between atoms: C_30  and  C_31
REMARK                            x       y       z     vdW  Elec       q    Type
REMARK                         _______ _______ _______ _____ _____    ______ ____
ROOT
ATOM      1  N   UNL     1       3.561   6.766  17.093  0.00  0.00    +0.000 N 
ATOM      2  C   UNL     1       4.913   6.881  16.798  0.00  0.00    +0.000 C 
ATOM      3  O   UNL     1       5.730   7.572  17.403  0.00  0.00    +0.000 OA
ATOM      4  H   UNL     1       3.056   6.026  16.615  0.00  0.00    +0.000 HD
ENDROOT
BRANCH   1   8
ATOM      5  C   UNL     1       1.464   9.176  19.851  0.00  0.00    +0.000 A 
ATOM      6  C   UNL     1       1.902   7.910  20.234  0.00  0.00    +0.000 A 
ATOM      7  C   UNL     1       2.600   7.113  19.324  0.00  0.00    +0.000 A 
ATOM      8  C   UNL     1       2.858   7.555  18.023  0.00  0.00    +0.000 A 
ATOM      9  C   UNL     1       2.421   8.828  17.642  0.00  0.00    +0.000 A 
ATOM     10  C   UNL     1       1.709   9.627  18.546  0.00  0.00    +0.000 A 
BRANCH   5  12
ATOM     11  N   UNL     1      -0.455  10.601  20.277  0.00  0.00    +0.000 N 
ATOM     12  C   UNL     1       0.711  10.050  20.790  0.00  0.00    +0.000 C 
ATOM     13  O   UNL     1       1.155  10.181  21.922  0.00  0.00    +0.000 OA
ATOM     14  H   UNL     1      -0.734  10.320  19.347  0.00  0.00    +0.000 HD
BRANCH  11  18
ATOM     15  C   UNL     1      -3.096  13.115  22.417  0.00  0.00    +0.000 A 
ATOM     16  C   UNL     1      -2.966  13.259  21.040  0.00  0.00    +0.000 A 
ATOM     17  C   UNL     1      -2.114  12.430  20.308  0.00  0.00    +0.000 A 
ATOM     18  C   UNL     1      -1.352  11.456  20.950  0.00  0.00    +0.000 A 
ATOM     19  C   UNL     1      -1.477  11.315  22.340  0.00  0.00    +0.000 A 
ATOM     20  C   UNL     1      -2.345  12.140  23.072  0.00  0.00    +0.000 A 
BRANCH  15  22
ATOM     21  C   UNL     1      -3.661  15.376  22.804  0.00  0.00    +0.000 C 
ATOM     22  O   UNL     1      -3.950  14.000  23.011  0.00  0.00    +0.000 OA
ENDBRANCH  15  22
ENDBRANCH  11  18
ENDBRANCH   5  12
ENDBRANCH   1   8
BRANCH   2  23
ATOM     23  C   UNL     1       5.369   6.011  15.629  0.00  0.00    +0.000 C 
BRANCH  23  24
ATOM     24  N   UNL     1       5.316   4.566  15.981  0.00  0.00    +0.000 NA
ATOM     25  C   UNL     1       5.951   3.792  14.900  0.00  0.00    +0.000 C 
BRANCH  24  26
ATOM     26  C   UNL     1       6.066   4.336  17.242  0.00  0.00    +0.000 C 
BRANCH  26  27
ATOM     27  C   UNL     1       5.115   4.303  18.446  0.00  0.00    +0.000 C 
ATOM     28  O   UNL     1       5.277   5.061  19.399  0.00  0.00    +0.000 OA
ATOM     29  N   UNL     1       4.112   3.347  18.334  0.00  0.00    +0.000 N 
ATOM     30  H   UNL     1       4.362   2.550  17.766  0.00  0.00    +0.000 HD
BRANCH  29  31
ATOM     31  C   UNL     1       3.140   3.147  19.346  0.00  0.00    +0.000 A 
ATOM     32  C   UNL     1       1.807   3.589  19.197  0.00  0.00    +0.000 A 
ATOM     33  C   UNL     1       1.241   4.202  17.948  0.00  0.00    +0.000 C 
ATOM     34  C   UNL     1       0.896   3.388  20.246  0.00  0.00    +0.000 A 
ATOM     35  C   UNL     1       1.275   2.719  21.402  0.00  0.00    +0.000 A 
ATOM     36  C   UNL     1       2.574   2.234  21.526  0.00  0.00    +0.000 A 
ATOM     37  C   UNL     1       3.520   2.443  20.511  0.00  0.00    +0.000 A 
ATOM     38  C   UNL     1       4.921   1.936  20.725  0.00  0.00    +0.000 C 
ENDBRANCH  29  31
ENDBRANCH  26  27
ENDBRANCH  24  26
ENDBRANCH  23  24
ENDBRANCH   2  23
TORSDOF 9
ENDMDL
MODEL 4
REMARK VINA RESULT:      -7.4      0.847      2.034
REMARK  Name = 
REMARK  13 active torsions:
REMARK  status: ('A' for Active; 'I' for Inactive)
REMARK    1  A    between atoms: C_1  and  O_2
REMARK    2  A    between atoms: O_2  and  C_3
REMARK    3  A    between atoms: C_6  and  N_7
REMARK    4  A    between atoms: C_8  and  C_10
REMARK    5  A    between atoms: C_13  and  N_14
REMARK    6  A    between atoms: C_15  and  C_17
REMARK    7  A    between atoms: C_17  and  N_18
REMARK    8  A    between atoms: N_18  and  C_19
REMARK    9  A    between atoms: N_18  and  C_20
REMARK   10  A    between atoms: C_20  and  C_21
REMARK   11  A    between atoms: N_23  and  C_24
REMARK   12  A    between atoms: C_25  and  C_26
REMARK   13  A    between atoms: C_30  and  C_31
REMARK                            x       y       z     vdW  Elec       q    Type
REMARK                         _______ _______ _______ _____ _____    ______ ____
ROOT
ATOM      1  N   UNL     1       3.489   7.098  16.996  0.00  0.00    +0.000 N 
ATOM      2  C   UNL     1       4.860   7.091  16.775  0.00  0.00    +0.000 C 
ATOM      3  O   UNL     1       5.703   7.704  17.428  0.00  0.00    +0.000 OA
ATOM      4  H   UNL     1       2.946   6.408  16.486  0.00  0.00    +0.000 HD
ENDROOT
BRANCH   1   8
ATOM      5  C   UNL     1       1.472   9.684  19.653  0.00  0.00    +0.000 A 
ATOM      6  C   UNL     1       1.794   8.390  20.059  0.00  0.00    +0.000 A 
ATOM      7  C   UNL     1       2.465   7.535  19.183  0.00  0.00    +0.000 A 
ATOM      8  C   UNL     1       2.811   7.946  17.892  0.00  0.00    +0.000 A 
ATOM      9  C   UNL     1       2.491   9.247  17.488  0.00  0.00    +0.000 A 
ATOM     10  C   UNL     1       1.806  10.105  18.358  0.00  0.00    +0.000 A 
BRANCH   5  12
ATOM     11  N   UNL     1      -0.628  10.641  20.404  0.00  0.00    +0.000 N 
ATOM     12  C   UNL     1       0.751  10.620  20.556  0.00  0.00    +0.000 C 
ATOM     13  O   UNL     1       1.416  11.255  21.362  0.00  0.00    +0.000 OA
ATOM     14  H   UNL     1      -1.036   9.984  19.753  0.00  0.00    +0.000 HD
BRANCH  11  18
ATOM     15  C   UNL     1      -3.434  13.051  22.453  0.00  0.00    +0.000 A 
ATOM     16  C   UNL     1      -2.665  12.130  23.159  0.00  0.00    +0.000 A 
ATOM     17  C   UNL     1      -1.719  11.336  22.508  0.00  0.00    +0.000 A 
ATOM     18  C   UNL     1      -1.546  11.429  21.129  0.00  0.00    +0.000 A 
ATOM     19  C   UNL     1      -2.327  12.351  20.415  0.00  0.00    +0.000 A 
ATOM     20  C   UNL     1      -3.267  13.159  21.074  0.00  0.00    +0.000 A 
BRANCH  15  22
ATOM     21  C   UNL     1      -5.451  14.279  22.513  0.00  0.00    +0.000 C 
ATOM     22  O   UNL     1      -4.330  13.751  23.209  0.00  0.00    +0.000 OA
ENDBRANCH  15  22
ENDBRANCH  11  18
ENDBRANCH   5  12
ENDBRANCH   1   8
BRANCH   2  23
ATOM     23  C   UNL     1       5.298   6.185  15.626  0.00  0.00    +0.000 C 
BRANCH  23  24
ATOM     24  N   UNL     1       5.086   4.751  15.961  0.00  0.00    +0.000 NA
ATOM     25  C   UNL     1       5.525   3.929  14.820  0.00  0.00    +0.000 C 
BRANCH  24  26
ATOM     26  C   UNL     1       5.899   4.394  17.151  0.00  0.00    +0.000 C 
BRANCH  26  27
ATOM     27  C   UNL     1       5.023   4.322  18.410  0.00  0.00    +0.000 C 
ATOM     28  O   UNL     1       5.255   5.036  19.382  0.00  0.00    +0.000 OA
ATOM     29  N   UNL     1       4.000   3.385  18.320  0.00  0.00    +0.000 N 
ATOM     30  H   UNL     1       4.202   2.610  17.704  0.00  0.00    +0.000 HD
BRANCH  29  31
ATOM     31  C   UNL     1       3.089   3.154  19.380  0.00  0.00    +0.000 A 
ATOM     32  C   UNL     1       3.458   2.434  20.538  0.00  0.00    +0.000 A 
ATOM     33  C   UNL     1       4.845   1.938  20.833  0.00  0.00    +0.000 C 
ATOM     34  C   UNL     1       2.503   2.212  21.542  0.00  0.00    +0.000 A 
ATOM     35  C   UNL     1       1.220   2.733  21.435  0.00  0.00    +0.000 A 
ATOM     36  C   UNL     1       0.872   3.490  20.320  0.00  0.00    +0.000 A 
ATOM     37  C   UNL     1       1.792   3.707  19.283  0.00  0.00    +0.000 A 
ATOM     38  C   UNL     1       1.340   4.494  18.082  0.00  0.00    +0.000 C 
ENDBRANCH  29  31
ENDBRANCH  26  27
ENDBRANCH  24  26
ENDBRANCH  23  24
ENDBRANCH   2  23
TORSDOF 9
ENDMDL
MODEL 5
REMARK VINA RESULT:      -7.4      2.872     11.209
REMARK  Name = 
REMARK  13 active torsions:
REMARK  status: ('A' for Active; 'I' for Inactive)
REMARK    1  A    between atoms: C_1  and  O_2
REMARK    2  A    between atoms: O_2  and  C_3
REMARK    3  A    between atoms: C_6  and  N_7
REMARK    4  A    between atoms: C_8  and  C_10
REMARK    5  A    between atoms: C_13  and  N_14
REMARK    6  A    between atoms: C_15  and  C_17
REMARK    7  A    between atoms: C_17  and  N_18
REMARK    8  A    between atoms: N_18  and  C_19
REMARK    9  A    between atoms: N_18  and  C_20
REMARK   10  A    between atoms: C_20  and  C_21
REMARK   11  A    between atoms: N_23  and  C_24
REMARK   12  A    between atoms: C_25  and  C_26
REMARK   13  A    between atoms: C_30  and  C_31
REMARK                            x       y       z     vdW  Elec       q    Type
REMARK                         _______ _______ _______ _____ _____    ______ ____
ROOT
ATOM      1  N   UNL     1      -1.142  12.185  20.230  0.00  0.00    +0.000 N 
ATOM      2  C   UNL     1      -0.701  13.497  20.350  0.00  0.00    +0.000 C 
ATOM      3  O   UNL     1       0.442  13.899  20.138  0.00  0.00    +0.000 OA
ATOM      4  H   UNL     1      -2.146  12.041  20.268  0.00  0.00    +0.000 HD
ENDROOT
BRANCH   1   8
ATOM      5  C   UNL     1       1.323   8.829  19.537  0.00  0.00    +0.000 A 
ATOM      6  C   UNL     1       0.689   8.978  20.769  0.00  0.00    +0.000 A 
ATOM      7  C   UNL     1      -0.131  10.085  20.998  0.00  0.00    +0.000 A 
ATOM      8  C   UNL     1      -0.318  11.063  20.017  0.00  0.00    +0.000 A 
ATOM      9  C   UNL     1       0.315  10.909  18.779  0.00  0.00    +0.000 A 
ATOM     10  C   UNL     1       1.149   9.807  18.547  0.00  0.00    +0.000 A 
BRANCH   5  12
ATOM     11  N   UNL     1       2.809   7.668  18.009  0.00  0.00    +0.000 N 
ATOM     12  C   UNL     1       2.209   7.668  19.260  0.00  0.00    +0.000 C 
ATOM     13  O   UNL     1       2.358   6.843  20.151  0.00  0.00    +0.000 OA
ATOM     14  H   UNL     1       2.655   8.475  17.418  0.00  0.00    +0.000 HD
BRANCH  11  18
ATOM     15  C   UNL     1       5.349   4.654  16.480  0.00  0.00    +0.000 A 
ATOM     16  C   UNL     1       5.742   5.987  16.418  0.00  0.00    +0.000 A 
ATOM     17  C   UNL     1       4.928   6.999  16.932  0.00  0.00    +0.000 A 
ATOM     18  C   UNL     1       3.690   6.695  17.493  0.00  0.00    +0.000 A 
ATOM     19  C   UNL     1       3.290   5.352  17.549  0.00  0.00    +0.000 A 
ATOM     20  C   UNL     1       4.116   4.334  17.045  0.00  0.00    +0.000 A 
BRANCH  15  22
ATOM     21  C   UNL     1       6.289   3.756  14.507  0.00  0.00    +0.000 C 
ATOM     22  O   UNL     1       6.230   3.769  15.927  0.00  0.00    +0.000 OA
ENDBRANCH  15  22
ENDBRANCH  11  18
ENDBRANCH   5  12
ENDBRANCH   1   8
BRANCH   2  23
ATOM     23  C   UNL     1      -1.795  14.485  20.745  0.00  0.00    +0.000 C 
BRANCH  23  24
ATOM     24  N   UNL     1      -1.813  14.709  22.216  0.00  0.00    +0.000 NA
ATOM     25  C   UNL     1      -1.042  15.927  22.519  0.00  0.00    +0.000 C 
BRANCH  24  26
ATOM     26  C   UNL     1      -3.214  14.902  22.670  0.00  0.00    +0.000 C 
BRANCH  26  27
ATOM     27  C   UNL     1      -4.026  13.610  22.501  0.00  0.00    +0.000 C 
ATOM     28  O   UNL     1      -3.597  12.536  22.913  0.00  0.00    +0.000 OA
ATOM     29  N   UNL     1      -5.236  13.799  21.843  0.00  0.00    +0.000 N 
ATOM     30  H   UNL     1      -5.241  14.580  21.201  0.00  0.00    +0.000 HD
BRANCH  29  31
ATOM     31  C   UNL     1      -6.127  12.731  21.575  0.00  0.00    +0.000 A 
ATOM     32  C   UNL     1      -7.078  12.296  22.524  0.00  0.00    +0.000 A 
ATOM     33  C   UNL     1      -7.334  12.959  23.847  0.00  0.00    +0.000 C 
ATOM     34  C   UNL     1      -7.915  11.213  22.212  0.00  0.00    +0.000 A 
ATOM     35  C   UNL     1      -7.853  10.599  20.967  0.00  0.00    +0.000 A 
ATOM     36  C   UNL     1      -6.954  11.063  20.011  0.00  0.00    +0.000 A 
ATOM     37  C   UNL     1      -6.082  12.124  20.299  0.00  0.00    +0.000 A 
ATOM     38  C   UNL     1      -5.101  12.549  19.239  0.00  0.00    +0.000 C 
ENDBRANCH  29  31
ENDBRANCH  26  27
ENDBRANCH  24  26
ENDBRANCH  23  24
ENDBRANCH   2  23
TORSDOF 9
ENDMDL
MODEL 6
REMARK VINA RESULT:      -7.2      3.197     11.549
REMARK  Name = 
REMARK  13 active torsions:
REMARK  status: ('A' for Active; 'I' for Inactive)
REMARK    1  A    between atoms: C_1  and  O_2
REMARK    2  A    between atoms: O_2  and  C_3
REMARK    3  A    between atoms: C_6  and  N_7
REMARK    4  A    between atoms: C_8  and  C_10
REMARK    5  A    between atoms: C_13  and  N_14
REMARK    6  A    between atoms: C_15  and  C_17
REMARK    7  A    between atoms: C_17  and  N_18
REMARK    8  A    between atoms: N_18  and  C_19
REMARK    9  A    between atoms: N_18  and  C_20
REMARK   10  A    between atoms: C_20  and  C_21
REMARK   11  A    between atoms: N_23  and  C_24
REMARK   12  A    between atoms: C_25  and  C_26
REMARK   13  A    between atoms: C_30  and  C_31
REMARK                            x       y       z     vdW  Elec       q    Type
REMARK                         _______ _______ _______ _____ _____    ______ ____
ROOT
ATOM      1  N   UNL     1      -3.994  12.050  18.515  0.00  0.00    +0.000 N 
ATOM      2  C   UNL     1      -5.186  11.338  18.493  0.00  0.00    +0.000 C 
ATOM      3  O   UNL     1      -5.301  10.116  18.569  0.00  0.00    +0.000 OA
ATOM      4  H   UNL     1      -4.071  13.057  18.620  0.00  0.00    +0.000 HD
ENDROOT
BRANCH   1   8
ATOM      5  C   UNL     1      -0.150  10.322  18.287  0.00  0.00    +0.000 A 
ATOM      6  C   UNL     1      -0.422  11.272  19.269  0.00  0.00    +0.000 A 
ATOM      7  C   UNL     1      -1.695  11.842  19.349  0.00  0.00    +0.000 A 
ATOM      8  C   UNL     1      -2.705  11.487  18.449  0.00  0.00    +0.000 A 
ATOM      9  C   UNL     1      -2.430  10.530  17.467  0.00  0.00    +0.000 A 
ATOM     10  C   UNL     1      -1.152   9.964  17.374  0.00  0.00    +0.000 A 
BRANCH   5  12
ATOM     11  N   UNL     1       1.256   8.353  18.495  0.00  0.00    +0.000 N 
ATOM     12  C   UNL     1       1.196   9.700  18.167  0.00  0.00    +0.000 C 
ATOM     13  O   UNL     1       2.112  10.404  17.766  0.00  0.00    +0.000 OA
ATOM     14  H   UNL     1       0.386   7.890  18.722  0.00  0.00    +0.000 HD
BRANCH  11  18
ATOM     15  C   UNL     1       4.620   5.793  18.513  0.00  0.00    +0.000 A 
ATOM     16  C   UNL     1       4.480   6.746  17.509  0.00  0.00    +0.000 A 
ATOM     17  C   UNL     1       3.388   7.615  17.492  0.00  0.00    +0.000 A 
ATOM     18  C   UNL     1       2.397   7.525  18.466  0.00  0.00    +0.000 A 
ATOM     19  C   UNL     1       2.532   6.559  19.474  0.00  0.00    +0.000 A 
ATOM     20  C   UNL     1       3.639   5.696  19.499  0.00  0.00    +0.000 A 
BRANCH  15  22
ATOM     21  C   UNL     1       6.880   5.439  19.104  0.00  0.00    +0.000 C 
ATOM     22  O   UNL     1       5.725   4.998  18.402  0.00  0.00    +0.000 OA
ENDBRANCH  15  22
ENDBRANCH  11  18
ENDBRANCH   5  12
ENDBRANCH   1   8
BRANCH   2  23
ATOM     23  C   UNL     1      -6.431  12.216  18.408  0.00  0.00    +0.000 C 
BRANCH  23  24
ATOM     24  N   UNL     1      -6.606  13.024  19.645  0.00  0.00    +0.000 NA
ATOM     25  C   UNL     1      -7.749  13.935  19.457  0.00  0.00    +0.000 C 
BRANCH  24  26
ATOM     26  C   UNL     1      -6.893  12.122  20.789  0.00  0.00    +0.000 C 
BRANCH  26  27
ATOM     27  C   UNL     1      -6.298  12.680  22.089  0.00  0.00    +0.000 C 
ATOM     28  O   UNL     1      -6.716  12.313  23.184  0.00  0.00    +0.000 OA
ATOM     29  N   UNL     1      -5.291  13.616  21.880  0.00  0.00    +0.000 N 
ATOM     30  H   UNL     1      -5.372  14.123  21.009  0.00  0.00    +0.000 HD
BRANCH  29  31
ATOM     31  C   UNL     1      -4.623  14.261  22.950  0.00  0.00    +0.000 A 
ATOM     32  C   UNL     1      -5.126  15.440  23.542  0.00  0.00    +0.000 A 
ATOM     33  C   UNL     1      -6.444  16.075  23.202  0.00  0.00    +0.000 C 
ATOM     34  C   UNL     1      -4.404  16.050  24.580  0.00  0.00    +0.000 A 
ATOM     35  C   UNL     1      -3.232  15.482  25.063  0.00  0.00    +0.000 A 
ATOM     36  C   UNL     1      -2.765  14.290  24.517  0.00  0.00    +0.000 A 
ATOM     37  C   UNL     1      -3.444  13.669  23.459  0.00  0.00    +0.000 A 
ATOM     38  C   UNL     1      -2.863  12.406  22.880  0.00  0.00    +0.000 C 
ENDBRANCH  29  31
ENDBRANCH  26  27
ENDBRANCH  24  26
ENDBRANCH  23  24
ENDBRANCH   2  23
TORSDOF 9
ENDMDL
MODEL 7
REMARK VINA RESULT:      -7.2      2.498      4.511
REMARK  Name = 
REMARK  13 active torsions:
REMARK  status: ('A' for Active; 'I' for Inactive)
REMARK    1  A    between atoms: C_1  and  O_2
REMARK    2  A    between atoms: O_2  and  C_3
REMARK    3  A    between atoms: C_6  and  N_7
REMARK    4  A    between atoms: C_8  and  C_10
REMARK    5  A    between atoms: C_13  and  N_14
REMARK    6  A    between atoms: C_15  and  C_17
REMARK    7  A    between atoms: C_17  and  N_18
REMARK    8  A    between atoms: N_18  and  C_19
REMARK    9  A    between atoms: N_18  and  C_20
REMARK   10  A    between atoms: C_20  and  C_21
REMARK   11  A    between atoms: N_23  and  C_24
REMARK   12  A    between atoms: C_25  and  C_26
REMARK   13  A    between atoms: C_30  and  C_31
REMARK                            x       y       z     vdW  Elec       q    Type
REMARK                         _______ _______ _______ _____ _____    ______ ____
ROOT
ATOM      1  N   UNL     1       2.839   5.780  18.413  0.00  0.00    +0.000 N 
ATOM      2  C   UNL     1       2.165   4.741  17.785  0.00  0.00    +0.000 C 
ATOM      3  O   UNL     1       1.000   4.766  17.390  0.00  0.00    +0.000 OA
ATOM      4  H   UNL     1       3.842   5.668  18.521  0.00  0.00    +0.000 HD
ENDROOT
BRANCH   1   8
ATOM      5  C   UNL     1       1.103   9.395  19.728  0.00  0.00    +0.000 A 
ATOM      6  C   UNL     1       1.269   8.343  20.626  0.00  0.00    +0.000 A 
ATOM      7  C   UNL     1       1.848   7.148  20.194  0.00  0.00    +0.000 A 
ATOM      8  C   UNL     1       2.252   6.977  18.866  0.00  0.00    +0.000 A 
ATOM      9  C   UNL     1       2.089   8.036  17.968  0.00  0.00    +0.000 A 
ATOM     10  C   UNL     1       1.497   9.234  18.392  0.00  0.00    +0.000 A 
BRANCH   5  12
ATOM     11  N   UNL     1       0.899  11.797  19.440  0.00  0.00    +0.000 N 
ATOM     12  C   UNL     1       0.483  10.680  20.150  0.00  0.00    +0.000 C 
ATOM     13  O   UNL     1      -0.347  10.641  21.047  0.00  0.00    +0.000 OA
ATOM     14  H   UNL     1       1.526  11.648  18.661  0.00  0.00    +0.000 HD
BRANCH  11  18
ATOM     15  C   UNL     1      -0.357  15.771  20.152  0.00  0.00    +0.000 A 
ATOM     16  C   UNL     1      -0.206  15.316  18.845  0.00  0.00    +0.000 A 
ATOM     17  C   UNL     1       0.190  14.003  18.584  0.00  0.00    +0.000 A 
ATOM     18  C   UNL     1       0.471  13.128  19.630  0.00  0.00    +0.000 A 
ATOM     19  C   UNL     1       0.327  13.588  20.948  0.00  0.00    +0.000 A 
ATOM     20  C   UNL     1      -0.086  14.904  21.209  0.00  0.00    +0.000 A 
BRANCH  15  22
ATOM     21  C   UNL     1      -0.049  17.998  19.424  0.00  0.00    +0.000 C 
ATOM     22  O   UNL     1      -0.734  17.079  20.265  0.00  0.00    +0.000 OA
ENDBRANCH  15  22
ENDBRANCH  11  18
ENDBRANCH   5  12
ENDBRANCH   1   8
BRANCH   2  23
ATOM     23  C   UNL     1       3.019   3.497  17.556  0.00  0.00    +0.000 C 
BRANCH  23  24
ATOM     24  N   UNL     1       3.247   2.758  18.828  0.00  0.00    +0.000 NA
ATOM     25  C   UNL     1       2.768   1.375  18.664  0.00  0.00    +0.000 C 
BRANCH  24  26
ATOM     26  C   UNL     1       4.701   2.732  19.130  0.00  0.00    +0.000 C 
BRANCH  26  27
ATOM     27  C   UNL     1       5.269   4.155  19.212  0.00  0.00    +0.000 C 
ATOM     28  O   UNL     1       4.885   4.940  20.075  0.00  0.00    +0.000 OA
ATOM     29  N   UNL     1       6.210   4.434  18.228  0.00  0.00    +0.000 N 
ATOM     30  H   UNL     1       6.089   3.901  17.377  0.00  0.00    +0.000 HD
BRANCH  29  31
ATOM     31  C   UNL     1       6.844   5.696  18.121  0.00  0.00    +0.000 A 
ATOM     32  C   UNL     1       7.854   6.102  19.020  0.00  0.00    +0.000 A 
ATOM     33  C   UNL     1       8.445   5.235  20.095  0.00  0.00    +0.000 C 
ATOM     34  C   UNL     1       8.425   7.377  18.882  0.00  0.00    +0.000 A 
ATOM     35  C   UNL     1       8.045   8.220  17.845  0.00  0.00    +0.000 A 
ATOM     36  C   UNL     1       7.089   7.799  16.926  0.00  0.00    +0.000 A 
ATOM     37  C   UNL     1       6.476   6.543  17.051  0.00  0.00    +0.000 A 
ATOM     38  C   UNL     1       5.415   6.164  16.052  0.00  0.00    +0.000 C 
ENDBRANCH  29  31
ENDBRANCH  26  27
ENDBRANCH  24  26
ENDBRANCH  23  24
ENDBRANCH   2  23
TORSDOF 9
ENDMDL
MODEL 8
REMARK VINA RESULT:      -7.1      2.880     11.546
REMARK  Name = 
REMARK  13 active torsions:
REMARK  status: ('A' for Active; 'I' for Inactive)
REMARK    1  A    between atoms: C_1  and  O_2
REMARK    2  A    between atoms: O_2  and  C_3
REMARK    3  A    between atoms: C_6  and  N_7
REMARK    4  A    between atoms: C_8  and  C_10
REMARK    5  A    between atoms: C_13  and  N_14
REMARK    6  A    between atoms: C_15  and  C_17
REMARK    7  A    between atoms: C_17  and  N_18
REMARK    8  A    between atoms: N_18  and  C_19
REMARK    9  A    between atoms: N_18  and  C_20
REMARK   10  A    between atoms: C_20  and  C_21
REMARK   11  A    between atoms: N_23  and  C_24
REMARK   12  A    between atoms: C_25  and  C_26
REMARK   13  A    between atoms: C_30  and  C_31
REMARK                            x       y       z     vdW  Elec       q    Type
REMARK                         _______ _______ _______ _____ _____    ______ ____
ROOT
ATOM      1  N   UNL     1      -1.398  11.462  21.404  0.00  0.00    +0.000 N 
ATOM      2  C   UNL     1      -1.353  11.456  22.792  0.00  0.00    +0.000 C 
ATOM      3  O   UNL     1      -0.464  10.966  23.486  0.00  0.00    +0.000 OA
ATOM      4  H   UNL     1      -2.103  12.056  20.977  0.00  0.00    +0.000 HD
ENDROOT
BRANCH   1   8
ATOM      5  C   UNL     1       1.239   9.315  18.905  0.00  0.00    +0.000 A 
ATOM      6  C   UNL     1       0.634  10.478  18.433  0.00  0.00    +0.000 A 
ATOM      7  C   UNL     1      -0.235  11.192  19.260  0.00  0.00    +0.000 A 
ATOM      8  C   UNL     1      -0.525  10.754  20.556  0.00  0.00    +0.000 A 
ATOM      9  C   UNL     1       0.087   9.589  21.029  0.00  0.00    +0.000 A 
ATOM     10  C   UNL     1       0.950   8.861  20.200  0.00  0.00    +0.000 A 
BRANCH   5  12
ATOM     11  N   UNL     1       2.469   7.256  18.524  0.00  0.00    +0.000 N 
ATOM     12  C   UNL     1       2.164   8.523  18.050  0.00  0.00    +0.000 C 
ATOM     13  O   UNL     1       2.546   9.033  17.005  0.00  0.00    +0.000 OA
ATOM     14  H   UNL     1       1.995   6.946  19.363  0.00  0.00    +0.000 HD
BRANCH  11  18
ATOM     15  C   UNL     1       4.885   4.307  16.698  0.00  0.00    +0.000 A 
ATOM     16  C   UNL     1       5.347   5.615  16.798  0.00  0.00    +0.000 A 
ATOM     17  C   UNL     1       4.575   6.603  17.413  0.00  0.00    +0.000 A 
ATOM     18  C   UNL     1       3.311   6.304  17.914  0.00  0.00    +0.000 A 
ATOM     19  C   UNL     1       2.841   4.986  17.806  0.00  0.00    +0.000 A 
ATOM     20  C   UNL     1       3.624   3.991  17.201  0.00  0.00    +0.000 A 
BRANCH  15  22
ATOM     21  C   UNL     1       6.376   3.953  14.899  0.00  0.00    +0.000 C 
ATOM     22  O   UNL     1       5.732   3.445  16.060  0.00  0.00    +0.000 OA
ENDBRANCH  15  22
ENDBRANCH  11  18
ENDBRANCH   5  12
ENDBRANCH   1   8
BRANCH   2  23
ATOM     23  C   UNL     1      -2.525  12.178  23.453  0.00  0.00    +0.000 C 
BRANCH  23  24
ATOM     24  N   UNL     1      -3.025  13.289  22.598  0.00  0.00    +0.000 NA
ATOM     25  C   UNL     1      -4.476  13.124  22.410  0.00  0.00    +0.000 C 
BRANCH  24  26
ATOM     26  C   UNL     1      -2.772  14.586  23.275  0.00  0.00    +0.000 C 
BRANCH  26  27
ATOM     27  C   UNL     1      -1.858  15.478  22.424  0.00  0.00    +0.000 C 
ATOM     28  O   UNL     1      -1.128  16.316  22.947  0.00  0.00    +0.000 OA
ATOM     29  N   UNL     1      -1.966  15.241  21.058  0.00  0.00    +0.000 N 
ATOM     30  H   UNL     1      -2.869  14.886  20.771  0.00  0.00    +0.000 HD
BRANCH  29  31
ATOM     31  C   UNL     1      -1.217  15.968  20.101  0.00  0.00    +0.000 A 
ATOM     32  C   UNL     1       0.094  15.591  19.737  0.00  0.00    +0.000 A 
ATOM     33  C   UNL     1       0.794  14.352  20.215  0.00  0.00    +0.000 C 
ATOM     34  C   UNL     1       0.798  16.368  18.803  0.00  0.00    +0.000 A 
ATOM     35  C   UNL     1       0.204  17.469  18.199  0.00  0.00    +0.000 A 
ATOM     36  C   UNL     1      -1.108  17.808  18.516  0.00  0.00    +0.000 A 
ATOM     37  C   UNL     1      -1.831  17.072  19.466  0.00  0.00    +0.000 A 
ATOM     38  C   UNL     1      -3.230  17.517  19.801  0.00  0.00    +0.000 C 
ENDBRANCH  29  31
ENDBRANCH  26  27
ENDBRANCH  24  26
ENDBRANCH  23  24
ENDBRANCH   2  23
TORSDOF 9
ENDMDL
MODEL 9
REMARK VINA RESULT:      -7.1      2.905      4.595
REMARK  Name = 
REMARK  13 active torsions:
REMARK  status: ('A' for Active; 'I' for Inactive)
REMARK    1  A    between atoms: C_1  and  O_2
REMARK    2  A    between atoms: O_2  and  C_3
REMARK    3  A    between atoms: C_6  and  N_7
REMARK    4  A    between atoms: C_8  and  C_10
REMARK    5  A    between atoms: C_13  and  N_14
REMARK    6  A    between atoms: C_15  and  C_17
REMARK    7  A    between atoms: C_17  and  N_18
REMARK    8  A    between atoms: N_18  and  C_19
REMARK    9  A    between atoms: N_18  and  C_20
REMARK   10  A    between atoms: C_20  and  C_21
REMARK   11  A    between atoms: N_23  and  C_24
REMARK   12  A    between atoms: C_25  and  C_26
REMARK   13  A    between atoms: C_30  and  C_31
REMARK                            x       y       z     vdW  Elec       q    Type
REMARK                         _______ _______ _______ _____ _____    ______ ____
ROOT
ATOM      1  N   UNL     1       2.541   5.324  19.322  0.00  0.00    +0.000 N 
ATOM      2  C   UNL     1       1.984   4.372  18.477  0.00  0.00    +0.000 C 
ATOM      3  O   UNL     1       1.163   4.585  17.586  0.00  0.00    +0.000 OA
ATOM      4  H   UNL     1       3.330   5.022  19.885  0.00  0.00    +0.000 HD
ENDROOT
BRANCH   1   8
ATOM      5  C   UNL     1       1.280   9.337  19.665  0.00  0.00    +0.000 A 
ATOM      6  C   UNL     1       1.797   8.877  18.455  0.00  0.00    +0.000 A 
ATOM      7  C   UNL     1       2.210   7.548  18.338  0.00  0.00    +0.000 A 
ATOM      8  C   UNL     1       2.130   6.667  19.421  0.00  0.00    +0.000 A 
ATOM      9  C   UNL     1       1.607   7.130  20.633  0.00  0.00    +0.000 A 
ATOM     10  C   UNL     1       1.202   8.466  20.760  0.00  0.00    +0.000 A 
BRANCH   5  12
ATOM     11  N   UNL     1       1.470  11.665  19.002  0.00  0.00    +0.000 N 
ATOM     12  C   UNL     1       0.838  10.748  19.828  0.00  0.00    +0.000 C 
ATOM     13  O   UNL     1      -0.051  10.972  20.639  0.00  0.00    +0.000 OA
ATOM     14  H   UNL     1       2.121  11.304  18.317  0.00  0.00    +0.000 HD
BRANCH  11  18
ATOM     15  C   UNL     1       0.921  15.855  18.856  0.00  0.00    +0.000 A 
ATOM     16  C   UNL     1      -0.152  15.006  18.601  0.00  0.00    +0.000 A 
ATOM     17  C   UNL     1      -0.000  13.620  18.661  0.00  0.00    +0.000 A 
ATOM     18  C   UNL     1       1.240  13.055  18.949  0.00  0.00    +0.000 A 
ATOM     19  C   UNL     1       2.324  13.910  19.199  0.00  0.00    +0.000 A 
ATOM     20  C   UNL     1       2.167  15.304  19.153  0.00  0.00    +0.000 A 
BRANCH  15  22
ATOM     21  C   UNL     1       1.222  18.026  19.737  0.00  0.00    +0.000 C 
ATOM     22  O   UNL     1       0.640  17.187  18.749  0.00  0.00    +0.000 OA
ENDBRANCH  15  22
ENDBRANCH  11  18
ENDBRANCH   5  12
ENDBRANCH   1   8
BRANCH   2  23
ATOM     23  C   UNL     1       2.515   2.958  18.702  0.00  0.00    +0.000 C 
BRANCH  23  24
ATOM     24  N   UNL     1       3.992   2.959  18.877  0.00  0.00    +0.000 NA
ATOM     25  C   UNL     1       4.360   1.869  19.797  0.00  0.00    +0.000 C 
BRANCH  24  26
ATOM     26  C   UNL     1       4.647   2.722  17.566  0.00  0.00    +0.000 C 
BRANCH  26  27
ATOM     27  C   UNL     1       5.555   3.901  17.187  0.00  0.00    +0.000 C 
ATOM     28  O   UNL     1       6.146   3.922  16.110  0.00  0.00    +0.000 OA
ATOM     29  N   UNL     1       5.633   4.879  18.171  0.00  0.00    +0.000 N 
ATOM     30  H   UNL     1       5.484   4.534  19.110  0.00  0.00    +0.000 HD
BRANCH  29  31
ATOM     31  C   UNL     1       6.429   6.041  18.023  0.00  0.00    +0.000 A 
ATOM     32  C   UNL     1       6.099   7.059  17.102  0.00  0.00    +0.000 A 
ATOM     33  C   UNL     1       4.847   7.094  16.274  0.00  0.00    +0.000 C 
ATOM     34  C   UNL     1       6.943   8.175  16.979  0.00  0.00    +0.000 A 
ATOM     35  C   UNL     1       8.066   8.311  17.785  0.00  0.00    +0.000 A 
ATOM     36  C   UNL     1       8.362   7.335  18.731  0.00  0.00    +0.000 A 
ATOM     37  C   UNL     1       7.558   6.193  18.861  0.00  0.00    +0.000 A 
ATOM     38  C   UNL     1       7.956   5.150  19.871  0.00  0.00    +0.000 C 
ENDBRANCH  29  31
ENDBRANCH  26  27
ENDBRANCH  24  26
ENDBRANCH  23  24
ENDBRANCH   2  23
TORSDOF 9
ENDMDL
