MODEL 1
REMARK VINA RESULT:      -7.7      0.000      0.000
REMARK  Name = 
REMARK  4 active torsions:
REMARK  status: ('A' for Active; 'I' for Inactive)
REMARK    1  A    between atoms: C_4  and  C_5
REMARK    2  A    between atoms: C_8  and  C_9
REMARK    3  A    between atoms: N_13  and  C_14
REMARK    4  A    between atoms: C_14  and  C_15
REMARK                            x       y       z     vdW  Elec       q    Type
REMARK                         _______ _______ _______ _____ _____    ______ ____
ROOT
ATOM      1  C   UNL     1       4.852   4.666  19.171  0.00  0.00    +0.000 C 
ATOM      2  C   UNL     1       4.464   3.195  19.235  0.00  0.00    +0.000 C 
ATOM      3  C   UNL     1       3.398   3.171  20.306  0.00  0.00    +0.000 C 
ATOM      4  C   UNL     1       2.670   4.491  20.125  0.00  0.00    +0.000 C 
ATOM      5  N   UNL     1       3.592   5.426  19.434  0.00  0.00    +0.000 NA
ENDROOT
BRANCH   1   9
ATOM      6  C   UNL     1       6.434   5.134  15.992  0.00  0.00    +0.000 A 
ATOM      7  N   UNL     1       6.867   6.246  16.616  0.00  0.00    +0.000 NA
ATOM      8  O   UNL     1       6.319   6.146  17.896  0.00  0.00    +0.000 OA
ATOM      9  C   UNL     1       5.612   4.981  17.926  0.00  0.00    +0.000 A 
ATOM     10  N   UNL     1       5.687   4.306  16.803  0.00  0.00    +0.000 NA
BRANCH   6  14
ATOM     11  C   UNL     1       7.237   4.253  11.954  0.00  0.00    +0.000 A 
ATOM     12  C   UNL     1       6.183   3.597  12.576  0.00  0.00    +0.000 A 
ATOM     13  C   UNL     1       5.878   3.893  13.904  0.00  0.00    +0.000 A 
ATOM     14  C   UNL     1       6.650   4.840  14.574  0.00  0.00    +0.000 A 
ATOM     15  N   UNL     1       7.679   5.494  13.969  0.00  0.00    +0.000 NA
ATOM     16  C   UNL     1       7.946   5.189  12.683  0.00  0.00    +0.000 A 
ENDBRANCH   6  14
ENDBRANCH   1   9
BRANCH   5  17
ATOM     17  C   UNL     1       2.944   5.979  18.222  0.00  0.00    +0.000 C 
BRANCH  17  18
ATOM     18  C   UNL     1       2.349   7.334  18.482  0.00  0.00    +0.000 A 
ATOM     19  N   UNL     1       1.911   7.806  19.632  0.00  0.00    +0.000 NA
ATOM     20  C   UNL     1       1.593   9.118  19.397  0.00  0.00    +0.000 A 
ATOM     21  C   UNL     1       1.832   9.448  18.085  0.00  0.00    +0.000 A 
ATOM     22  N   UNL     1       2.285   8.296  17.506  0.00  0.00    +0.000 N 
ATOM     23  H   UNL     1       2.600   8.172  16.553  0.00  0.00    +0.000 HD
ENDBRANCH  17  18
ENDBRANCH   5  17
TORSDOF 4
ENDMDL
MODEL 2
REMARK VINA RESULT:      -7.6      0.981      1.296
REMARK  Name = 
REMARK  4 active torsions:
REMARK  status: ('A' for Active; 'I' for Inactive)
REMARK    1  A    between atoms: C_4  and  C_5
REMARK    2  A    between atoms: C_8  and  C_9
REMARK    3  A    between atoms: N_13  and  C_14
REMARK    4  A    between atoms: C_14  and  C_15
REMARK                            x       y       z     vdW  Elec       q    Type
REMARK                         _______ _______ _______ _____ _____    ______ ____
ROOT
ATOM      1  C   UNL     1       4.022   3.586  18.708  0.00  0.00    +0.000 C 
ATOM      2  C   UNL     1       3.193   2.396  18.245  0.00  0.00    +0.000 C 
ATOM      3  C   UNL     1       2.001   2.429  19.174  0.00  0.00    +0.000 C 
ATOM      4  C   UNL     1       1.762   3.911  19.406  0.00  0.00    +0.000 C 
ATOM      5  N   UNL     1       3.033   4.624  19.133  0.00  0.00    +0.000 NA
ENDROOT
BRANCH   1   9
ATOM      6  C   UNL     1       6.205   4.385  15.984  0.00  0.00    +0.000 A 
ATOM      7  N   UNL     1       6.832   5.058  16.968  0.00  0.00    +0.000 NA
ATOM      8  O   UNL     1       6.062   4.786  18.101  0.00  0.00    +0.000 OA
ATOM      9  C   UNL     1       5.048   3.970  17.694  0.00  0.00    +0.000 A 
ATOM     10  N   UNL     1       5.116   3.662  16.421  0.00  0.00    +0.000 NA
BRANCH   6  14
ATOM     11  C   UNL     1       7.437   4.556  11.961  0.00  0.00    +0.000 A 
ATOM     12  C   UNL     1       6.391   3.706  12.296  0.00  0.00    +0.000 A 
ATOM     13  C   UNL     1       5.945   3.653  13.616  0.00  0.00    +0.000 A 
ATOM     14  C   UNL     1       6.571   4.456  14.568  0.00  0.00    +0.000 A 
ATOM     15  N   UNL     1       7.591   5.299  14.246  0.00  0.00    +0.000 NA
ATOM     16  C   UNL     1       7.996   5.330  12.960  0.00  0.00    +0.000 A 
ENDBRANCH   6  14
ENDBRANCH   1   9
BRANCH   5  17
ATOM     17  C   UNL     1       2.812   5.703  18.141  0.00  0.00    +0.000 C 
BRANCH  17  18
ATOM     18  C   UNL     1       2.370   6.978  18.801  0.00  0.00    +0.000 A 
ATOM     19  N   UNL     1       2.036   8.108  18.210  0.00  0.00    +0.000 NA
ATOM     20  C   UNL     1       1.577   8.926  19.209  0.00  0.00    +0.000 A 
ATOM     21  C   UNL     1       1.640   8.291  20.426  0.00  0.00    +0.000 A 
ATOM     22  N   UNL     1       2.174   7.062  20.157  0.00  0.00    +0.000 N 
ATOM     23  H   UNL     1       2.329   6.305  20.809  0.00  0.00    +0.000 HD
ENDBRANCH  17  18
ENDBRANCH   5  17
TORSDOF 4
ENDMDL
MODEL 3
REMARK VINA RESULT:      -7.4      1.365      1.855
REMARK  Name = 
REMARK  4 active torsions:
REMARK  status: ('A' for Active; 'I' for Inactive)
REMARK    1  A    between atoms: C_4  and  C_5
REMARK    2  A    between atoms: C_8  and  C_9
REMARK    3  A    between atoms: N_13  and  C_14
REMARK    4  A    between atoms: C_14  and  C_15
REMARK                            x       y       z     vdW  Elec       q    Type
REMARK                         _______ _______ _______ _____ _____    ______ ____
ROOT
ATOM      1  C   UNL     1       3.443   3.709  19.796  0.00  0.00    +0.000 C 
ATOM      2  C   UNL     1       2.443   2.678  19.292  0.00  0.00    +0.000 C 
ATOM      3  C   UNL     1       1.238   2.913  20.173  0.00  0.00    +0.000 C 
ATOM      4  C   UNL     1       1.244   4.413  20.405  0.00  0.00    +0.000 C 
ATOM      5  N   UNL     1       2.628   4.900  20.188  0.00  0.00    +0.000 NA
ENDROOT
BRANCH   1   9
ATOM      6  C   UNL     1       5.825   4.219  17.171  0.00  0.00    +0.000 A 
ATOM      7  N   UNL     1       6.608   4.497  18.231  0.00  0.00    +0.000 NA
ATOM      8  O   UNL     1       5.767   4.299  19.328  0.00  0.00    +0.000 OA
ATOM      9  C   UNL     1       4.559   3.914  18.827  0.00  0.00    +0.000 A 
ATOM     10  N   UNL     1       4.556   3.809  17.519  0.00  0.00    +0.000 NA
BRANCH   6  14
ATOM     11  C   UNL     1       7.155   4.696  13.204  0.00  0.00    +0.000 A 
ATOM     12  C   UNL     1       6.081   3.847  13.444  0.00  0.00    +0.000 A 
ATOM     13  C   UNL     1       5.603   3.695  14.745  0.00  0.00    +0.000 A 
ATOM     14  C   UNL     1       6.226   4.399  15.774  0.00  0.00    +0.000 A 
ATOM     15  N   UNL     1       7.273   5.239  15.547  0.00  0.00    +0.000 NA
ATOM     16  C   UNL     1       7.709   5.369  14.277  0.00  0.00    +0.000 A 
ENDBRANCH   6  14
ENDBRANCH   1   9
BRANCH   5  17
ATOM     17  C   UNL     1       2.633   6.001  19.196  0.00  0.00    +0.000 C 
BRANCH  17  18
ATOM     18  C   UNL     1       2.097   7.276  19.782  0.00  0.00    +0.000 A 
ATOM     19  N   UNL     1       1.696   8.348  19.129  0.00  0.00    +0.000 NA
ATOM     20  C   UNL     1       1.170   9.185  20.078  0.00  0.00    +0.000 A 
ATOM     21  C   UNL     1       1.259   8.620  21.327  0.00  0.00    +0.000 A 
ATOM     22  N   UNL     1       1.878   7.418  21.130  0.00  0.00    +0.000 N 
ATOM     23  H   UNL     1       2.074   6.708  21.823  0.00  0.00    +0.000 HD
ENDBRANCH  17  18
ENDBRANCH   5  17
TORSDOF 4
ENDMDL
MODEL 4
REMARK VINA RESULT:      -7.3      2.203      6.381
REMARK  Name = 
REMARK  4 active torsions:
REMARK  status: ('A' for Active; 'I' for Inactive)
REMARK    1  A    between atoms: C_4  and  C_5
REMARK    2  A    between atoms: C_8  and  C_9
REMARK    3  A    between atoms: N_13  and  C_14
REMARK    4  A    between atoms: C_14  and  C_15
REMARK                            x       y       z     vdW  Elec       q    Type
REMARK                         _______ _______ _______ _____ _____    ______ ____
ROOT
ATOM      1  C   UNL     1       5.277   5.446  15.410  0.00  0.00    +0.000 C 
ATOM      2  C   UNL     1       5.297   4.090  14.720  0.00  0.00    +0.000 C 
ATOM      3  C   UNL     1       6.529   4.169  13.849  0.00  0.00    +0.000 C 
ATOM      4  C   UNL     1       7.502   4.998  14.670  0.00  0.00    +0.000 C 
ATOM      5  N   UNL     1       6.711   5.808  15.628  0.00  0.00    +0.000 NA
ENDROOT
BRANCH   1   9
ATOM      6  C   UNL     1       3.162   5.035  18.271  0.00  0.00    +0.000 A 
ATOM      7  N   UNL     1       3.319   6.373  18.309  0.00  0.00    +0.000 NA
ATOM      8  O   UNL     1       4.121   6.644  17.199  0.00  0.00    +0.000 OA
ATOM      9  C   UNL     1       4.367   5.448  16.593  0.00  0.00    +0.000 A 
ATOM     10  N   UNL     1       3.768   4.442  17.185  0.00  0.00    +0.000 NA
BRANCH   6  14
ATOM     11  C   UNL     1       1.195   2.938  21.347  0.00  0.00    +0.000 A 
ATOM     12  C   UNL     1       0.753   2.765  20.042  0.00  0.00    +0.000 A 
ATOM     13  C   UNL     1       1.406   3.425  19.003  0.00  0.00    +0.000 A 
ATOM     14  C   UNL     1       2.487   4.250  19.307  0.00  0.00    +0.000 A 
ATOM     15  N   UNL     1       2.933   4.418  20.582  0.00  0.00    +0.000 NA
ATOM     16  C   UNL     1       2.283   3.762  21.565  0.00  0.00    +0.000 A 
ENDBRANCH   6  14
ENDBRANCH   1   9
BRANCH   5  17
ATOM     17  C   UNL     1       7.197   5.584  17.010  0.00  0.00    +0.000 C 
BRANCH  17  18
ATOM     18  C   UNL     1       7.625   6.868  17.661  0.00  0.00    +0.000 A 
ATOM     19  N   UNL     1       8.330   7.007  18.766  0.00  0.00    +0.000 NA
ATOM     20  C   UNL     1       8.580   8.349  18.879  0.00  0.00    +0.000 A 
ATOM     21  C   UNL     1       8.014   9.039  17.835  0.00  0.00    +0.000 A 
ATOM     22  N   UNL     1       7.384   8.089  17.082  0.00  0.00    +0.000 N 
ATOM     23  H   UNL     1       6.892   8.225  16.208  0.00  0.00    +0.000 HD
ENDBRANCH  17  18
ENDBRANCH   5  17
TORSDOF 4
ENDMDL
MODEL 5
REMARK VINA RESULT:      -7.3      3.093      6.824
REMARK  Name = 
REMARK  4 active torsions:
REMARK  status: ('A' for Active; 'I' for Inactive)
REMARK    1  A    between atoms: C_4  and  C_5
REMARK    2  A    between atoms: C_8  and  C_9
REMARK    3  A    between atoms: N_13  and  C_14
REMARK    4  A    between atoms: C_14  and  C_15
REMARK                            x       y       z     vdW  Elec       q    Type
REMARK                         _______ _______ _______ _____ _____    ______ ____
ROOT
ATOM      1  C   UNL     1       3.016   4.462  17.615  0.00  0.00    +0.000 C 
ATOM      2  C   UNL     1       1.899   3.519  18.040  0.00  0.00    +0.000 C 
ATOM      3  C   UNL     1       2.539   2.156  17.915  0.00  0.00    +0.000 C 
ATOM      4  C   UNL     1       3.985   2.395  18.314  0.00  0.00    +0.000 C 
ATOM      5  N   UNL     1       4.281   3.833  18.104  0.00  0.00    +0.000 NA
ENDROOT
BRANCH   1   9
ATOM      6  C   UNL     1       2.157   7.678  18.938  0.00  0.00    +0.000 A 
ATOM      7  N   UNL     1       3.050   8.059  18.004  0.00  0.00    +0.000 NA
ATOM      8  O   UNL     1       3.434   6.860  17.401  0.00  0.00    +0.000 OA
ATOM      9  C   UNL     1       2.733   5.870  18.022  0.00  0.00    +0.000 A 
ATOM     10  N   UNL     1       1.909   6.322  18.937  0.00  0.00    +0.000 NA
BRANCH   6  14
ATOM     11  C   UNL     1       0.268  10.284  21.652  0.00  0.00    +0.000 A 
ATOM     12  C   UNL     1       0.696   9.046  22.114  0.00  0.00    +0.000 A 
ATOM     13  C   UNL     1       1.351   8.177  21.242  0.00  0.00    +0.000 A 
ATOM     14  C   UNL     1       1.551   8.577  19.922  0.00  0.00    +0.000 A 
ATOM     15  N   UNL     1       1.143   9.792  19.463  0.00  0.00    +0.000 NA
ATOM     16  C   UNL     1       0.516  10.612  20.332  0.00  0.00    +0.000 A 
ENDBRANCH   6  14
ENDBRANCH   1   9
BRANCH   5  17
ATOM     17  C   UNL     1       4.823   4.430  19.347  0.00  0.00    +0.000 C 
BRANCH  17  18
ATOM     18  C   UNL     1       6.040   5.268  19.074  0.00  0.00    +0.000 A 
ATOM     19  N   UNL     1       7.165   5.290  19.761  0.00  0.00    +0.000 NA
ATOM     20  C   UNL     1       8.015   6.098  19.053  0.00  0.00    +0.000 A 
ATOM     21  C   UNL     1       7.399   6.582  17.924  0.00  0.00    +0.000 A 
ATOM     22  N   UNL     1       6.133   6.070  17.964  0.00  0.00    +0.000 N 
ATOM     23  H   UNL     1       5.404   6.180  17.271  0.00  0.00    +0.000 HD
ENDBRANCH  17  18
ENDBRANCH   5  17
TORSDOF 4
ENDMDL
MODEL 6
REMARK VINA RESULT:      -7.3      2.635      7.274
REMARK  Name = 
REMARK  4 active torsions:
REMARK  status: ('A' for Active; 'I' for Inactive)
REMARK    1  A    between atoms: C_4  and  C_5
REMARK    2  A    between atoms: C_8  and  C_9
REMARK    3  A    between atoms: N_13  and  C_14
REMARK    4  A    between atoms: C_14  and  C_15
REMARK                            x       y       z     vdW  Elec       q    Type
REMARK                         _______ _______ _______ _____ _____    ______ ____
ROOT
ATOM      1  C   UNL     1       4.279   6.351  17.620  0.00  0.00    +0.000 C 
ATOM      2  C   UNL     1       4.751   6.561  16.188  0.00  0.00    +0.000 C 
ATOM      3  C   UNL     1       5.477   5.273  15.877  0.00  0.00    +0.000 C 
ATOM      4  C   UNL     1       4.685   4.217  16.628  0.00  0.00    +0.000 C 
ATOM      5  N   UNL     1       3.956   4.895  17.728  0.00  0.00    +0.000 NA
ENDROOT
BRANCH   1   9
ATOM      6  C   UNL     1       1.825   8.605  18.934  0.00  0.00    +0.000 A 
ATOM      7  N   UNL     1       1.911   9.086  17.678  0.00  0.00    +0.000 NA
ATOM      8  O   UNL     1       2.839   8.244  17.062  0.00  0.00    +0.000 OA
ATOM      9  C   UNL     1       3.221   7.332  18.001  0.00  0.00    +0.000 A 
ATOM     10  N   UNL     1       2.599   7.484  19.145  0.00  0.00    +0.000 NA
BRANCH   6  14
ATOM     11  C   UNL     1      -0.530  10.419  21.915  0.00  0.00    +0.000 A 
ATOM     12  C   UNL     1       0.117   9.228  22.218  0.00  0.00    +0.000 A 
ATOM     13  C   UNL     1       0.926   8.623  21.258  0.00  0.00    +0.000 A 
ATOM     14  C   UNL     1       1.058   9.232  20.012  0.00  0.00    +0.000 A 
ATOM     15  N   UNL     1       0.435  10.405  19.709  0.00  0.00    +0.000 NA
ATOM     16  C   UNL     1      -0.337  10.968  20.662  0.00  0.00    +0.000 A 
ENDBRANCH   6  14
ENDBRANCH   1   9
BRANCH   5  17
ATOM     17  C   UNL     1       2.509   4.580  17.652  0.00  0.00    +0.000 C 
BRANCH  17  18
ATOM     18  C   UNL     1       2.008   3.974  18.931  0.00  0.00    +0.000 A 
ATOM     19  N   UNL     1       1.517   2.762  19.103  0.00  0.00    +0.000 NA
ATOM     20  C   UNL     1       1.328   2.627  20.453  0.00  0.00    +0.000 A 
ATOM     21  C   UNL     1       1.699   3.773  21.113  0.00  0.00    +0.000 A 
ATOM     22  N   UNL     1       2.102   4.633  20.131  0.00  0.00    +0.000 N 
ATOM     23  H   UNL     1       2.483   5.563  20.249  0.00  0.00    +0.000 HD
ENDBRANCH  17  18
ENDBRANCH   5  17
TORSDOF 4
ENDMDL
MODEL 7
REMARK VINA RESULT:      -7.2      2.212      6.446
REMARK  Name = 
REMARK  4 active torsions:
REMARK  status: ('A' for Active; 'I' for Inactive)
REMARK    1  A    between atoms: C_4  and  C_5
REMARK    2  A    between atoms: C_8  and  C_9
REMARK    3  A    between atoms: N_13  and  C_14
REMARK    4  A    between atoms: C_14  and  C_15
REMARK                            x       y       z     vdW  Elec       q    Type
REMARK                         _______ _______ _______ _____ _____    ______ ____
ROOT
ATOM      1  C   UNL     1       5.242   5.412  15.491  0.00  0.00    +0.000 C 
ATOM      2  C   UNL     1       5.366   4.051  14.821  0.00  0.00    +0.000 C 
ATOM      3  C   UNL     1       6.566   4.225  13.919  0.00  0.00    +0.000 C 
ATOM      4  C   UNL     1       7.479   5.151  14.702  0.00  0.00    +0.000 C 
ATOM      5  N   UNL     1       6.643   5.904  15.667  0.00  0.00    +0.000 NA
ENDROOT
BRANCH   1   9
ATOM      6  C   UNL     1       3.261   4.872  18.426  0.00  0.00    +0.000 A 
ATOM      7  N   UNL     1       3.232   6.218  18.390  0.00  0.00    +0.000 NA
ATOM      8  O   UNL     1       3.966   6.537  17.246  0.00  0.00    +0.000 OA
ATOM      9  C   UNL     1       4.364   5.354  16.697  0.00  0.00    +0.000 A 
ATOM     10  N   UNL     1       3.923   4.309  17.356  0.00  0.00    +0.000 NA
BRANCH   6  14
ATOM     11  C   UNL     1       1.859   2.593  21.677  0.00  0.00    +0.000 A 
ATOM     12  C   UNL     1       0.981   3.476  21.062  0.00  0.00    +0.000 A 
ATOM     13  C   UNL     1       1.413   4.220  19.965  0.00  0.00    +0.000 A 
ATOM     14  C   UNL     1       2.723   4.060  19.519  0.00  0.00    +0.000 A 
ATOM     15  N   UNL     1       3.588   3.190  20.110  0.00  0.00    +0.000 NA
ATOM     16  C   UNL     1       3.139   2.481  21.167  0.00  0.00    +0.000 A 
ENDBRANCH   6  14
ENDBRANCH   1   9
BRANCH   5  17
ATOM     17  C   UNL     1       7.180   5.748  17.040  0.00  0.00    +0.000 C 
BRANCH  17  18
ATOM     18  C   UNL     1       7.715   7.046  17.574  0.00  0.00    +0.000 A 
ATOM     19  N   UNL     1       7.539   8.251  17.070  0.00  0.00    +0.000 NA
ATOM     20  C   UNL     1       8.096   9.116  17.974  0.00  0.00    +0.000 A 
ATOM     21  C   UNL     1       8.627   8.430  19.040  0.00  0.00    +0.000 A 
ATOM     22  N   UNL     1       8.404   7.112  18.760  0.00  0.00    +0.000 N 
ATOM     23  H   UNL     1       8.623   6.315  19.343  0.00  0.00    +0.000 HD
ENDBRANCH  17  18
ENDBRANCH   5  17
TORSDOF 4
ENDMDL
MODEL 8
REMARK VINA RESULT:      -7.2      2.626      7.276
REMARK  Name = 
REMARK  4 active torsions:
REMARK  status: ('A' for Active; 'I' for Inactive)
REMARK    1  A    between atoms: C_4  and  C_5
REMARK    2  A    between atoms: C_8  and  C_9
REMARK    3  A    between atoms: N_13  and  C_14
REMARK    4  A    between atoms: C_14  and  C_15
REMARK                            x       y       z     vdW  Elec       q    Type
REMARK                         _______ _______ _______ _____ _____    ______ ____
ROOT
ATOM      1  C   UNL     1       4.305   6.339  17.682  0.00  0.00    +0.000 C 
ATOM      2  C   UNL     1       4.763   6.510  16.240  0.00  0.00    +0.000 C 
ATOM      3  C   UNL     1       5.513   5.228  15.967  0.00  0.00    +0.000 C 
ATOM      4  C   UNL     1       4.748   4.182  16.758  0.00  0.00    +0.000 C 
ATOM      5  N   UNL     1       4.012   4.881  17.840  0.00  0.00    +0.000 NA
ENDROOT
BRANCH   1   9
ATOM      6  C   UNL     1       1.803   8.574  18.937  0.00  0.00    +0.000 A 
ATOM      7  N   UNL     1       1.907   9.048  17.679  0.00  0.00    +0.000 NA
ATOM      8  O   UNL     1       2.855   8.213  17.086  0.00  0.00    +0.000 OA
ATOM      9  C   UNL     1       3.229   7.311  18.037  0.00  0.00    +0.000 A 
ATOM     10  N   UNL     1       2.585   7.463  19.169  0.00  0.00    +0.000 NA
BRANCH   6  14
ATOM     11  C   UNL     1      -0.315  10.411  22.077  0.00  0.00    +0.000 A 
ATOM     12  C   UNL     1      -0.561  10.835  20.778  0.00  0.00    +0.000 A 
ATOM     13  C   UNL     1       0.106  10.223  19.718  0.00  0.00    +0.000 A 
ATOM     14  C   UNL     1       1.010   9.200  19.996  0.00  0.00    +0.000 A 
ATOM     15  N   UNL     1       1.251   8.772  21.266  0.00  0.00    +0.000 NA
ATOM     16  C   UNL     1       0.586   9.381  22.270  0.00  0.00    +0.000 A 
ENDBRANCH   6  14
ENDBRANCH   1   9
BRANCH   5  17
ATOM     17  C   UNL     1       2.572   4.535  17.785  0.00  0.00    +0.000 C 
BRANCH  17  18
ATOM     18  C   UNL     1       2.083   3.991  19.097  0.00  0.00    +0.000 A 
ATOM     19  N   UNL     1       1.317   2.936  19.288  0.00  0.00    +0.000 NA
ATOM     20  C   UNL     1       1.260   2.761  20.646  0.00  0.00    +0.000 A 
ATOM     21  C   UNL     1       1.992   3.727  21.292  0.00  0.00    +0.000 A 
ATOM     22  N   UNL     1       2.487   4.522  20.297  0.00  0.00    +0.000 N 
ATOM     23  H   UNL     1       3.109   5.314  20.396  0.00  0.00    +0.000 HD
ENDBRANCH  17  18
ENDBRANCH   5  17
TORSDOF 4
ENDMDL
MODEL 9
REMARK VINA RESULT:      -7.2      3.103      6.895
REMARK  Name = 
REMARK  4 active torsions:
REMARK  status: ('A' for Active; 'I' for Inactive)
REMARK    1  A    between atoms: C_4  and  C_5
REMARK    2  A    between atoms: C_8  and  C_9
REMARK    3  A    between atoms: N_13  and  C_14
REMARK    4  A    between atoms: C_14  and  C_15
REMARK                            x       y       z     vdW  Elec       q    Type
REMARK                         _______ _______ _______ _____ _____    ______ ____
ROOT
ATOM      1  C   UNL     1       2.947   4.532  17.635  0.00  0.00    +0.000 C 
ATOM      2  C   UNL     1       1.830   3.589  18.058  0.00  0.00    +0.000 C 
ATOM      3  C   UNL     1       2.475   2.227  17.947  0.00  0.00    +0.000 C 
ATOM      4  C   UNL     1       3.917   2.472  18.354  0.00  0.00    +0.000 C 
ATOM      5  N   UNL     1       4.210   3.910  18.137  0.00  0.00    +0.000 NA
ENDROOT
BRANCH   1   9
ATOM      6  C   UNL     1       2.066   7.754  18.929  0.00  0.00    +0.000 A 
ATOM      7  N   UNL     1       2.973   8.131  18.006  0.00  0.00    +0.000 NA
ATOM      8  O   UNL     1       3.366   6.929  17.414  0.00  0.00    +0.000 OA
ATOM      9  C   UNL     1       2.656   5.942  18.031  0.00  0.00    +0.000 A 
ATOM     10  N   UNL     1       1.819   6.398  18.931  0.00  0.00    +0.000 NA
BRANCH   6  14
ATOM     11  C   UNL     1       0.443  10.345  21.823  0.00  0.00    +0.000 A 
ATOM     12  C   UNL     1       0.401  10.735  20.490  0.00  0.00    +0.000 A 
ATOM     13  C   UNL     1       0.906   9.881  19.510  0.00  0.00    +0.000 A 
ATOM     14  C   UNL     1       1.446   8.657  19.900  0.00  0.00    +0.000 A 
ATOM     15  N   UNL     1       1.482   8.263  21.203  0.00  0.00    +0.000 NA
ATOM     16  C   UNL     1       0.982   9.109  22.127  0.00  0.00    +0.000 A 
ENDBRANCH   6  14
ENDBRANCH   1   9
BRANCH   5  17
ATOM     17  C   UNL     1       4.742   4.516  19.380  0.00  0.00    +0.000 C 
BRANCH  17  18
ATOM     18  C   UNL     1       6.016   5.271  19.127  0.00  0.00    +0.000 A 
ATOM     19  N   UNL     1       7.108   5.265  19.865  0.00  0.00    +0.000 NA
ATOM     20  C   UNL     1       8.034   5.989  19.161  0.00  0.00    +0.000 A 
ATOM     21  C   UNL     1       7.498   6.451  17.983  0.00  0.00    +0.000 A 
ATOM     22  N   UNL     1       6.204   6.012  17.987  0.00  0.00    +0.000 N 
ATOM     23  H   UNL     1       5.515   6.129  17.256  0.00  0.00    +0.000 HD
ENDBRANCH  17  18
ENDBRANCH   5  17
TORSDOF 4
ENDMDL
