MODEL 1
REMARK VINA RESULT:      -8.8      0.000      0.000
REMARK  Name = 
REMARK  8 active torsions:
REMARK  status: ('A' for Active; 'I' for Inactive)
REMARK    1  A    between atoms: C_1  and  C_2
REMARK    2  A    between atoms: C_2  and  O_3
REMARK    3  A    between atoms: O_3  and  C_4
REMARK    4  A    between atoms: C_9  and  O_10
REMARK    5  A    between atoms: O_10  and  C_11
REMARK    6  A    between atoms: N_19  and  C_20
REMARK    7  A    between atoms: C_23  and  S_24
REMARK    8  A    between atoms: S_24  and  C_25
REMARK                            x       y       z     vdW  Elec       q    Type
REMARK                         _______ _______ _______ _____ _____    ______ ____
ROOT
ATOM      1  C   UNL     1       2.861   6.576  18.862  0.00  0.00    +0.000 A 
ATOM      2  N   UNL     1       2.682   5.729  19.884  0.00  0.00    +0.000 NA
ATOM      3  C   UNL     1       1.855   6.154  20.852  0.00  0.00    +0.000 A 
ATOM      4  N   UNL     1       1.205   7.328  20.892  0.00  0.00    +0.000 NA
ATOM      5  C   UNL     1       1.417   8.142  19.855  0.00  0.00    +0.000 A 
ATOM      6  C   UNL     1       2.246   7.796  18.809  0.00  0.00    +0.000 A 
ATOM      7  C   UNL     1       2.287   8.850  17.775  0.00  0.00    +0.000 C 
ATOM      8  C   UNL     1       1.492   9.977  18.454  0.00  0.00    +0.000 C 
ATOM      9  N   UNL     1       0.847   9.439  19.667  0.00  0.00    +0.000 N 
ENDROOT
BRANCH   9  10
ATOM     10  C   UNL     1       0.032  10.234  20.487  0.00  0.00    +0.000 A 
ATOM     11  C   UNL     1       0.120  10.179  21.891  0.00  0.00    +0.000 A 
ATOM     12  C   UNL     1      -0.694  10.969  22.721  0.00  0.00    +0.000 A 
ATOM     13  C   UNL     1      -1.630  11.828  22.153  0.00  0.00    +0.000 A 
ATOM     14  C   UNL     1      -1.745  11.925  20.774  0.00  0.00    +0.000 A 
ATOM     15  C   UNL     1      -0.927  11.134  19.964  0.00  0.00    +0.000 A 
ATOM     16  F   UNL     1      -1.097  11.270  18.642  0.00  0.00    +0.000 F 
BRANCH  13  17
ATOM     17  S   UNL     1      -2.666  12.838  23.178  0.00  0.00    +0.000 S 
ATOM     18  C   UNL     1      -3.666  13.711  22.001  0.00  0.00    +0.000 C 
ATOM     19  O   UNL     1      -3.527  11.953  23.941  0.00  0.00    +0.000 OA
ATOM     20  O   UNL     1      -1.810  13.800  23.844  0.00  0.00    +0.000 OA
ENDBRANCH  13  17
ENDBRANCH   9  10
BRANCH   1  21
ATOM     21  O   UNL     1       3.638   6.199  17.791  0.00  0.00    +0.000 OA
BRANCH  21  27
ATOM     22  C   UNL     1       6.850   4.738  14.479  0.00  0.00    +0.000 C 
ATOM     23  O   UNL     1       7.741   5.510  14.143  0.00  0.00    +0.000 OA
ATOM     24  N   UNL     1       5.984   4.981  15.527  0.00  0.00    +0.000 N 
ATOM     25  C   UNL     1       6.038   6.276  16.182  0.00  0.00    +0.000 C 
ATOM     26  C   UNL     1       6.018   6.083  17.690  0.00  0.00    +0.000 C 
ATOM     27  C   UNL     1       4.745   5.338  18.110  0.00  0.00    +0.000 C 
ATOM     28  C   UNL     1       4.666   3.994  17.362  0.00  0.00    +0.000 C 
ATOM     29  C   UNL     1       4.826   4.151  15.850  0.00  0.00    +0.000 C 
BRANCH  22  30
ATOM     30  O   UNL     1       6.578   3.577  13.829  0.00  0.00    +0.000 OA
BRANCH  30  32
ATOM     31  C   UNL     1       5.124   3.183  11.981  0.00  0.00    +0.000 C 
ATOM     32  C   UNL     1       6.487   3.702  12.404  0.00  0.00    +0.000 C 
ENDBRANCH  30  32
ENDBRANCH  22  30
ENDBRANCH  21  27
ENDBRANCH   1  21
TORSDOF 6
ENDMDL
MODEL 2
REMARK VINA RESULT:      -8.7      0.846      1.197
REMARK  Name = 
REMARK  8 active torsions:
REMARK  status: ('A' for Active; 'I' for Inactive)
REMARK    1  A    between atoms: C_1  and  C_2
REMARK    2  A    between atoms: C_2  and  O_3
REMARK    3  A    between atoms: O_3  and  C_4
REMARK    4  A    between atoms: C_9  and  O_10
REMARK    5  A    between atoms: O_10  and  C_11
REMARK    6  A    between atoms: N_19  and  C_20
REMARK    7  A    between atoms: C_23  and  S_24
REMARK    8  A    between atoms: S_24  and  C_25
REMARK                            x       y       z     vdW  Elec       q    Type
REMARK                         _______ _______ _______ _____ _____    ______ ____
ROOT
ATOM      1  C   UNL     1       2.875   6.557  18.831  0.00  0.00    +0.000 A 
ATOM      2  N   UNL     1       2.674   5.702  19.841  0.00  0.00    +0.000 NA
ATOM      3  C   UNL     1       1.838   6.127  20.803  0.00  0.00    +0.000 A 
ATOM      4  N   UNL     1       1.200   7.307  20.846  0.00  0.00    +0.000 NA
ATOM      5  C   UNL     1       1.434   8.128  19.819  0.00  0.00    +0.000 A 
ATOM      6  C   UNL     1       2.274   7.784  18.781  0.00  0.00    +0.000 A 
ATOM      7  C   UNL     1       2.340   8.848  17.758  0.00  0.00    +0.000 C 
ATOM      8  C   UNL     1       1.547   9.976  18.438  0.00  0.00    +0.000 C 
ATOM      9  N   UNL     1       0.880   9.433  19.637  0.00  0.00    +0.000 N 
ENDROOT
BRANCH   9  10
ATOM     10  C   UNL     1       0.063  10.229  20.454  0.00  0.00    +0.000 A 
ATOM     11  C   UNL     1      -0.973  11.016  19.920  0.00  0.00    +0.000 A 
ATOM     12  C   UNL     1      -1.795  11.820  20.730  0.00  0.00    +0.000 A 
ATOM     13  C   UNL     1      -1.581  11.858  22.104  0.00  0.00    +0.000 A 
ATOM     14  C   UNL     1      -0.578  11.089  22.678  0.00  0.00    +0.000 A 
ATOM     15  C   UNL     1       0.226  10.296  21.859  0.00  0.00    +0.000 A 
ATOM     16  F   UNL     1       1.181   9.587  22.477  0.00  0.00    +0.000 F 
BRANCH  13  17
ATOM     17  S   UNL     1      -2.606  12.860  23.149  0.00  0.00    +0.000 S 
ATOM     18  C   UNL     1      -3.582  13.781  21.989  0.00  0.00    +0.000 C 
ATOM     19  O   UNL     1      -3.487  11.971  23.882  0.00  0.00    +0.000 OA
ATOM     20  O   UNL     1      -1.736  13.789  23.845  0.00  0.00    +0.000 OA
ENDBRANCH  13  17
ENDBRANCH   9  10
BRANCH   1  21
ATOM     21  O   UNL     1       3.662   6.182  17.767  0.00  0.00    +0.000 OA
BRANCH  21  27
ATOM     22  C   UNL     1       6.913   4.741  14.484  0.00  0.00    +0.000 C 
ATOM     23  O   UNL     1       7.799   5.520  14.151  0.00  0.00    +0.000 OA
ATOM     24  N   UNL     1       6.036   4.979  15.524  0.00  0.00    +0.000 N 
ATOM     25  C   UNL     1       6.073   6.277  16.175  0.00  0.00    +0.000 C 
ATOM     26  C   UNL     1       6.044   6.089  17.683  0.00  0.00    +0.000 C 
ATOM     27  C   UNL     1       4.775   5.333  18.096  0.00  0.00    +0.000 C 
ATOM     28  C   UNL     1       4.715   3.986  17.353  0.00  0.00    +0.000 C 
ATOM     29  C   UNL     1       4.884   4.139  15.841  0.00  0.00    +0.000 C 
BRANCH  22  30
ATOM     30  O   UNL     1       6.656   3.574  13.835  0.00  0.00    +0.000 OA
BRANCH  30  32
ATOM     31  C   UNL     1       5.121   3.292  12.034  0.00  0.00    +0.000 C 
ATOM     32  C   UNL     1       6.533   3.702  12.413  0.00  0.00    +0.000 C 
ENDBRANCH  30  32
ENDBRANCH  22  30
ENDBRANCH  21  27
ENDBRANCH   1  21
TORSDOF 6
ENDMDL
MODEL 3
REMARK VINA RESULT:      -8.4      0.859      1.009
REMARK  Name = 
REMARK  8 active torsions:
REMARK  status: ('A' for Active; 'I' for Inactive)
REMARK    1  A    between atoms: C_1  and  C_2
REMARK    2  A    between atoms: C_2  and  O_3
REMARK    3  A    between atoms: O_3  and  C_4
REMARK    4  A    between atoms: C_9  and  O_10
REMARK    5  A    between atoms: O_10  and  C_11
REMARK    6  A    between atoms: N_19  and  C_20
REMARK    7  A    between atoms: C_23  and  S_24
REMARK    8  A    between atoms: S_24  and  C_25
REMARK                            x       y       z     vdW  Elec       q    Type
REMARK                         _______ _______ _______ _____ _____    ______ ____
ROOT
ATOM      1  C   UNL     1       2.676   6.926  18.902  0.00  0.00    +0.000 A 
ATOM      2  N   UNL     1       2.440   6.138  19.958  0.00  0.00    +0.000 NA
ATOM      3  C   UNL     1       1.604   6.639  20.880  0.00  0.00    +0.000 A 
ATOM      4  N   UNL     1       0.996   7.835  20.845  0.00  0.00    +0.000 NA
ATOM      5  C   UNL     1       1.264   8.589  19.775  0.00  0.00    +0.000 A 
ATOM      6  C   UNL     1       2.108   8.162  18.772  0.00  0.00    +0.000 A 
ATOM      7  C   UNL     1       2.214   9.162  17.689  0.00  0.00    +0.000 C 
ATOM      8  C   UNL     1       1.443  10.348  18.289  0.00  0.00    +0.000 C 
ATOM      9  N   UNL     1       0.746   9.894  19.509  0.00  0.00    +0.000 N 
ENDROOT
BRANCH   9  10
ATOM     10  C   UNL     1      -0.060  10.757  20.266  0.00  0.00    +0.000 A 
ATOM     11  C   UNL     1       0.309  11.167  21.560  0.00  0.00    +0.000 A 
ATOM     12  C   UNL     1      -0.494  12.028  22.329  0.00  0.00    +0.000 A 
ATOM     13  C   UNL     1      -1.701  12.488  21.812  0.00  0.00    +0.000 A 
ATOM     14  C   UNL     1      -2.102  12.119  20.535  0.00  0.00    +0.000 A 
ATOM     15  C   UNL     1      -1.291  11.265  19.786  0.00  0.00    +0.000 A 
ATOM     16  F   UNL     1      -1.743  10.942  18.566  0.00  0.00    +0.000 F 
BRANCH  13  17
ATOM     17  S   UNL     1      -2.731  13.578  22.758  0.00  0.00    +0.000 S 
ATOM     18  C   UNL     1      -1.600  14.280  23.931  0.00  0.00    +0.000 C 
ATOM     19  O   UNL     1      -3.183  14.634  21.873  0.00  0.00    +0.000 OA
ATOM     20  O   UNL     1      -3.680  12.756  23.483  0.00  0.00    +0.000 OA
ENDBRANCH  13  17
ENDBRANCH   9  10
BRANCH   1  21
ATOM     21  O   UNL     1       3.467   6.469  17.873  0.00  0.00    +0.000 OA
BRANCH  21  27
ATOM     22  C   UNL     1       6.734   4.751  14.743  0.00  0.00    +0.000 C 
ATOM     23  O   UNL     1       7.689   5.459  14.441  0.00  0.00    +0.000 OA
ATOM     24  N   UNL     1       5.836   5.066  15.743  0.00  0.00    +0.000 N 
ATOM     25  C   UNL     1       5.942   6.365  16.383  0.00  0.00    +0.000 C 
ATOM     26  C   UNL     1       5.837   6.199  17.890  0.00  0.00    +0.000 C 
ATOM     27  C   UNL     1       4.499   5.543  18.257  0.00  0.00    +0.000 C 
ATOM     28  C   UNL     1       4.370   4.196  17.523  0.00  0.00    +0.000 C 
ATOM     29  C   UNL     1       4.612   4.318  16.019  0.00  0.00    +0.000 C 
BRANCH  22  30
ATOM     30  O   UNL     1       6.418   3.599  14.095  0.00  0.00    +0.000 OA
BRANCH  30  32
ATOM     31  C   UNL     1       5.177   3.297  12.083  0.00  0.00    +0.000 C 
ATOM     32  C   UNL     1       6.527   3.673  12.668  0.00  0.00    +0.000 C 
ENDBRANCH  30  32
ENDBRANCH  22  30
ENDBRANCH  21  27
ENDBRANCH   1  21
TORSDOF 6
ENDMDL
MODEL 4
REMARK VINA RESULT:      -8.3      1.190      1.355
REMARK  Name = 
REMARK  8 active torsions:
REMARK  status: ('A' for Active; 'I' for Inactive)
REMARK    1  A    between atoms: C_1  and  C_2
REMARK    2  A    between atoms: C_2  and  O_3
REMARK    3  A    between atoms: O_3  and  C_4
REMARK    4  A    between atoms: C_9  and  O_10
REMARK    5  A    between atoms: O_10  and  C_11
REMARK    6  A    between atoms: N_19  and  C_20
REMARK    7  A    between atoms: C_23  and  S_24
REMARK    8  A    between atoms: S_24  and  C_25
REMARK                            x       y       z     vdW  Elec       q    Type
REMARK                         _______ _______ _______ _____ _____    ______ ____
ROOT
ATOM      1  C   UNL     1       2.580   6.568  18.940  0.00  0.00    +0.000 A 
ATOM      2  N   UNL     1       2.312   5.882  20.059  0.00  0.00    +0.000 NA
ATOM      3  C   UNL     1       1.643   6.557  21.007  0.00  0.00    +0.000 A 
ATOM      4  N   UNL     1       1.228   7.832  20.941  0.00  0.00    +0.000 NA
ATOM      5  C   UNL     1       1.521   8.477  19.809  0.00  0.00    +0.000 A 
ATOM      6  C   UNL     1       2.202   7.870  18.774  0.00  0.00    +0.000 A 
ATOM      7  C   UNL     1       2.372   8.783  17.625  0.00  0.00    +0.000 C 
ATOM      8  C   UNL     1       1.848  10.107  18.205  0.00  0.00    +0.000 C 
ATOM      9  N   UNL     1       1.192   9.833  19.498  0.00  0.00    +0.000 N 
ENDROOT
BRANCH   9  10
ATOM     10  C   UNL     1       0.595  10.851  20.257  0.00  0.00    +0.000 A 
ATOM     11  C   UNL     1      -0.581  10.629  20.996  0.00  0.00    +0.000 A 
ATOM     12  C   UNL     1      -1.189  11.644  21.756  0.00  0.00    +0.000 A 
ATOM     13  C   UNL     1      -0.628  12.917  21.778  0.00  0.00    +0.000 A 
ATOM     14  C   UNL     1       0.539  13.180  21.075  0.00  0.00    +0.000 A 
ATOM     15  C   UNL     1       1.129  12.160  20.327  0.00  0.00    +0.000 A 
ATOM     16  F   UNL     1       2.248  12.486  19.665  0.00  0.00    +0.000 F 
BRANCH  13  17
ATOM     17  S   UNL     1      -1.372  14.214  22.732  0.00  0.00    +0.000 S 
ATOM     18  C   UNL     1      -3.075  13.724  22.815  0.00  0.00    +0.000 C 
ATOM     19  O   UNL     1      -0.814  14.151  24.070  0.00  0.00    +0.000 OA
ATOM     20  O   UNL     1      -1.289  15.430  21.947  0.00  0.00    +0.000 OA
ENDBRANCH  13  17
ENDBRANCH   9  10
BRANCH   1  21
ATOM     21  O   UNL     1       3.201   5.938  17.887  0.00  0.00    +0.000 OA
BRANCH  21  27
ATOM     22  C   UNL     1       6.627   4.727  14.689  0.00  0.00    +0.000 C 
ATOM     23  O   UNL     1       7.482   5.556  14.401  0.00  0.00    +0.000 OA
ATOM     24  N   UNL     1       5.706   4.900  15.704  0.00  0.00    +0.000 N 
ATOM     25  C   UNL     1       5.656   6.185  16.379  0.00  0.00    +0.000 C 
ATOM     26  C   UNL     1       5.587   5.966  17.882  0.00  0.00    +0.000 C 
ATOM     27  C   UNL     1       4.345   5.139  18.238  0.00  0.00    +0.000 C 
ATOM     28  C   UNL     1       4.377   3.806  17.468  0.00  0.00    +0.000 C 
ATOM     29  C   UNL     1       4.588   3.997  15.967  0.00  0.00    +0.000 C 
BRANCH  22  30
ATOM     30  O   UNL     1       6.451   3.562  14.011  0.00  0.00    +0.000 OA
BRANCH  30  32
ATOM     31  C   UNL     1       5.074   3.376  12.075  0.00  0.00    +0.000 C 
ATOM     32  C   UNL     1       6.467   3.699  12.585  0.00  0.00    +0.000 C 
ENDBRANCH  30  32
ENDBRANCH  22  30
ENDBRANCH  21  27
ENDBRANCH   1  21
TORSDOF 6
ENDMDL
MODEL 5
REMARK VINA RESULT:      -8.3      1.288      1.387
REMARK  Name = 
REMARK  8 active torsions:
REMARK  status: ('A' for Active; 'I' for Inactive)
REMARK    1  A    between atoms: C_1  and  C_2
REMARK    2  A    between atoms: C_2  and  O_3
REMARK    3  A    between atoms: O_3  and  C_4
REMARK    4  A    between atoms: C_9  and  O_10
REMARK    5  A    between atoms: O_10  and  C_11
REMARK    6  A    between atoms: N_19  and  C_20
REMARK    7  A    between atoms: C_23  and  S_24
REMARK    8  A    between atoms: S_24  and  C_25
REMARK                            x       y       z     vdW  Elec       q    Type
REMARK                         _______ _______ _______ _____ _____    ______ ____
ROOT
ATOM      1  C   UNL     1       2.529   6.742  18.895  0.00  0.00    +0.000 A 
ATOM      2  N   UNL     1       2.251   6.119  20.047  0.00  0.00    +0.000 NA
ATOM      3  C   UNL     1       1.597   6.853  20.961  0.00  0.00    +0.000 A 
ATOM      4  N   UNL     1       1.205   8.130  20.831  0.00  0.00    +0.000 NA
ATOM      5  C   UNL     1       1.507   8.712  19.667  0.00  0.00    +0.000 A 
ATOM      6  C   UNL     1       2.175   8.042  18.664  0.00  0.00    +0.000 A 
ATOM      7  C   UNL     1       2.360   8.893  17.470  0.00  0.00    +0.000 C 
ATOM      8  C   UNL     1       1.861  10.254  17.983  0.00  0.00    +0.000 C 
ATOM      9  N   UNL     1       1.203  10.057  19.290  0.00  0.00    +0.000 N 
ENDROOT
BRANCH   9  10
ATOM     10  C   UNL     1       0.627  11.123  19.997  0.00  0.00    +0.000 A 
ATOM     11  C   UNL     1       1.415  12.121  20.600  0.00  0.00    +0.000 A 
ATOM     12  C   UNL     1       0.847  13.191  21.314  0.00  0.00    +0.000 A 
ATOM     13  C   UNL     1      -0.535  13.273  21.448  0.00  0.00    +0.000 A 
ATOM     14  C   UNL     1      -1.353  12.318  20.861  0.00  0.00    +0.000 A 
ATOM     15  C   UNL     1      -0.773  11.264  20.155  0.00  0.00    +0.000 A 
ATOM     16  F   UNL     1      -1.620  10.373  19.622  0.00  0.00    +0.000 F 
BRANCH  13  17
ATOM     17  S   UNL     1      -1.277  14.615  22.340  0.00  0.00    +0.000 S 
ATOM     18  C   UNL     1      -0.770  16.040  21.414  0.00  0.00    +0.000 C 
ATOM     19  O   UNL     1      -2.716  14.480  22.219  0.00  0.00    +0.000 OA
ATOM     20  O   UNL     1      -0.641  14.672  23.642  0.00  0.00    +0.000 OA
ENDBRANCH  13  17
ENDBRANCH   9  10
BRANCH   1  21
ATOM     21  O   UNL     1       3.137   6.049  17.874  0.00  0.00    +0.000 OA
BRANCH  21  27
ATOM     22  C   UNL     1       6.652   4.790  14.795  0.00  0.00    +0.000 C 
ATOM     23  O   UNL     1       7.526   5.609  14.532  0.00  0.00    +0.000 OA
ATOM     24  N   UNL     1       5.700   4.976  15.778  0.00  0.00    +0.000 N 
ATOM     25  C   UNL     1       5.642   6.264  16.447  0.00  0.00    +0.000 C 
ATOM     26  C   UNL     1       5.521   6.051  17.947  0.00  0.00    +0.000 C 
ATOM     27  C   UNL     1       4.259   5.239  18.265  0.00  0.00    +0.000 C 
ATOM     28  C   UNL     1       4.303   3.903  17.501  0.00  0.00    +0.000 C 
ATOM     29  C   UNL     1       4.565   4.087  16.006  0.00  0.00    +0.000 C 
BRANCH  22  30
ATOM     30  O   UNL     1       6.486   3.625  14.115  0.00  0.00    +0.000 OA
BRANCH  30  32
ATOM     31  C   UNL     1       5.286   3.213  12.098  0.00  0.00    +0.000 C 
ATOM     32  C   UNL     1       6.575   3.752  12.691  0.00  0.00    +0.000 C 
ENDBRANCH  30  32
ENDBRANCH  22  30
ENDBRANCH  21  27
ENDBRANCH   1  21
TORSDOF 6
ENDMDL
MODEL 6
REMARK VINA RESULT:      -8.1      1.257      1.489
REMARK  Name = 
REMARK  8 active torsions:
REMARK  status: ('A' for Active; 'I' for Inactive)
REMARK    1  A    between atoms: C_1  and  C_2
REMARK    2  A    between atoms: C_2  and  O_3
REMARK    3  A    between atoms: O_3  and  C_4
REMARK    4  A    between atoms: C_9  and  O_10
REMARK    5  A    between atoms: O_10  and  C_11
REMARK    6  A    between atoms: N_19  and  C_20
REMARK    7  A    between atoms: C_23  and  S_24
REMARK    8  A    between atoms: S_24  and  C_25
REMARK                            x       y       z     vdW  Elec       q    Type
REMARK                         _______ _______ _______ _____ _____    ______ ____
ROOT
ATOM      1  C   UNL     1       2.598   6.558  18.939  0.00  0.00    +0.000 A 
ATOM      2  N   UNL     1       2.341   5.914  20.084  0.00  0.00    +0.000 NA
ATOM      3  C   UNL     1       1.698   6.630  21.021  0.00  0.00    +0.000 A 
ATOM      4  N   UNL     1       1.299   7.908  20.919  0.00  0.00    +0.000 NA
ATOM      5  C   UNL     1       1.581   8.510  19.761  0.00  0.00    +0.000 A 
ATOM      6  C   UNL     1       2.235   7.860  18.736  0.00  0.00    +0.000 A 
ATOM      7  C   UNL     1       2.397   8.731  17.554  0.00  0.00    +0.000 C 
ATOM      8  C   UNL     1       1.901  10.081  18.097  0.00  0.00    +0.000 C 
ATOM      9  N   UNL     1       1.265   9.859  19.410  0.00  0.00    +0.000 N 
ENDROOT
BRANCH   9  10
ATOM     10  C   UNL     1       0.696  10.911  20.145  0.00  0.00    +0.000 A 
ATOM     11  C   UNL     1       1.327  12.164  20.250  0.00  0.00    +0.000 A 
ATOM     12  C   UNL     1       0.767  13.223  20.986  0.00  0.00    +0.000 A 
ATOM     13  C   UNL     1      -0.444  13.038  21.647  0.00  0.00    +0.000 A 
ATOM     14  C   UNL     1      -1.109  11.822  21.562  0.00  0.00    +0.000 A 
ATOM     15  C   UNL     1      -0.538  10.783  20.826  0.00  0.00    +0.000 A 
ATOM     16  F   UNL     1      -1.228   9.635  20.793  0.00  0.00    +0.000 F 
BRANCH  13  17
ATOM     17  S   UNL     1      -1.174  14.358  22.579  0.00  0.00    +0.000 S 
ATOM     18  C   UNL     1      -2.471  13.545  23.477  0.00  0.00    +0.000 C 
ATOM     19  O   UNL     1      -0.184  14.824  23.531  0.00  0.00    +0.000 OA
ATOM     20  O   UNL     1      -1.784  15.270  21.632  0.00  0.00    +0.000 OA
ENDBRANCH  13  17
ENDBRANCH   9  10
BRANCH   1  21
ATOM     21  O   UNL     1       3.192   5.885  17.897  0.00  0.00    +0.000 OA
BRANCH  21  27
ATOM     22  C   UNL     1       6.476   4.714  14.540  0.00  0.00    +0.000 C 
ATOM     23  O   UNL     1       7.223   5.590  14.117  0.00  0.00    +0.000 OA
ATOM     24  N   UNL     1       5.620   4.891  15.609  0.00  0.00    +0.000 N 
ATOM     25  C   UNL     1       5.493   6.221  16.179  0.00  0.00    +0.000 C 
ATOM     26  C   UNL     1       5.556   6.130  17.695  0.00  0.00    +0.000 C 
ATOM     27  C   UNL     1       4.431   5.228  18.218  0.00  0.00    +0.000 C 
ATOM     28  C   UNL     1       4.538   3.841  17.559  0.00  0.00    +0.000 C 
ATOM     29  C   UNL     1       4.618   3.917  16.034  0.00  0.00    +0.000 C 
BRANCH  22  30
ATOM     30  O   UNL     1       6.367   3.483  13.975  0.00  0.00    +0.000 OA
BRANCH  30  32
ATOM     31  C   UNL     1       4.882   3.509  12.111  0.00  0.00    +0.000 C 
ATOM     32  C   UNL     1       6.338   3.488  12.543  0.00  0.00    +0.000 C 
ENDBRANCH  30  32
ENDBRANCH  22  30
ENDBRANCH  21  27
ENDBRANCH   1  21
TORSDOF 6
ENDMDL
MODEL 7
REMARK VINA RESULT:      -8.0      1.434      1.676
REMARK  Name = 
REMARK  8 active torsions:
REMARK  status: ('A' for Active; 'I' for Inactive)
REMARK    1  A    between atoms: C_1  and  C_2
REMARK    2  A    between atoms: C_2  and  O_3
REMARK    3  A    between atoms: O_3  and  C_4
REMARK    4  A    between atoms: C_9  and  O_10
REMARK    5  A    between atoms: O_10  and  C_11
REMARK    6  A    between atoms: N_19  and  C_20
REMARK    7  A    between atoms: C_23  and  S_24
REMARK    8  A    between atoms: S_24  and  C_25
REMARK                            x       y       z     vdW  Elec       q    Type
REMARK                         _______ _______ _______ _____ _____    ______ ____
ROOT
ATOM      1  C   UNL     1       2.335   7.294  19.397  0.00  0.00    +0.000 A 
ATOM      2  N   UNL     1       1.964   6.638  20.504  0.00  0.00    +0.000 NA
ATOM      3  C   UNL     1       1.084   7.277  21.291  0.00  0.00    +0.000 A 
ATOM      4  N   UNL     1       0.553   8.491  21.077  0.00  0.00    +0.000 NA
ATOM      5  C   UNL     1       0.954   9.110  19.963  0.00  0.00    +0.000 A 
ATOM      6  C   UNL     1       1.853   8.535  19.089  0.00  0.00    +0.000 A 
ATOM      7  C   UNL     1       2.109   9.405  17.922  0.00  0.00    +0.000 C 
ATOM      8  C   UNL     1       1.361  10.686  18.324  0.00  0.00    +0.000 C 
ATOM      9  N   UNL     1       0.539  10.402  19.516  0.00  0.00    +0.000 N 
ENDROOT
BRANCH   9  10
ATOM     10  C   UNL     1      -0.276  11.382  20.104  0.00  0.00    +0.000 A 
ATOM     11  C   UNL     1       0.153  12.129  21.216  0.00  0.00    +0.000 A 
ATOM     12  C   UNL     1      -0.658  13.110  21.815  0.00  0.00    +0.000 A 
ATOM     13  C   UNL     1      -1.932  13.351  21.311  0.00  0.00    +0.000 A 
ATOM     14  C   UNL     1      -2.394  12.647  20.208  0.00  0.00    +0.000 A 
ATOM     15  C   UNL     1      -1.575  11.678  19.626  0.00  0.00    +0.000 A 
ATOM     16  F   UNL     1      -2.087  11.029  18.571  0.00  0.00    +0.000 F 
BRANCH  13  17
ATOM     17  S   UNL     1      -2.973  14.585  22.045  0.00  0.00    +0.000 S 
ATOM     18  C   UNL     1      -4.372  13.649  22.603  0.00  0.00    +0.000 C 
ATOM     19  O   UNL     1      -2.282  15.109  23.207  0.00  0.00    +0.000 OA
ATOM     20  O   UNL     1      -3.415  15.466  20.981  0.00  0.00    +0.000 OA
ENDBRANCH  13  17
ENDBRANCH   9  10
BRANCH   1  21
ATOM     21  O   UNL     1       3.181   6.689  18.497  0.00  0.00    +0.000 OA
BRANCH  21  27
ATOM     22  C   UNL     1       6.727   4.321  16.208  0.00  0.00    +0.000 C 
ATOM     23  O   UNL     1       7.888   4.534  16.541  0.00  0.00    +0.000 OA
ATOM     24  N   UNL     1       5.633   4.809  16.895  0.00  0.00    +0.000 N 
ATOM     25  C   UNL     1       5.862   5.733  17.992  0.00  0.00    +0.000 C 
ATOM     26  C   UNL     1       5.013   5.325  19.185  0.00  0.00    +0.000 C 
ATOM     27  C   UNL     1       3.528   5.326  18.801  0.00  0.00    +0.000 C 
ATOM     28  C   UNL     1       3.307   4.392  17.598  0.00  0.00    +0.000 C 
ATOM     29  C   UNL     1       4.251   4.695  16.435  0.00  0.00    +0.000 C 
BRANCH  22  30
ATOM     30  O   UNL     1       6.382   3.624  15.094  0.00  0.00    +0.000 OA
BRANCH  30  32
ATOM     31  C   UNL     1       6.042   3.483  12.739  0.00  0.00    +0.000 C 
ATOM     32  C   UNL     1       6.647   4.306  13.862  0.00  0.00    +0.000 C 
ENDBRANCH  30  32
ENDBRANCH  22  30
ENDBRANCH  21  27
ENDBRANCH   1  21
TORSDOF 6
ENDMDL
MODEL 8
REMARK VINA RESULT:      -7.7      2.813      4.076
REMARK  Name = 
REMARK  8 active torsions:
REMARK  status: ('A' for Active; 'I' for Inactive)
REMARK    1  A    between atoms: C_1  and  C_2
REMARK    2  A    between atoms: C_2  and  O_3
REMARK    3  A    between atoms: O_3  and  C_4
REMARK    4  A    between atoms: C_9  and  O_10
REMARK    5  A    between atoms: O_10  and  C_11
REMARK    6  A    between atoms: N_19  and  C_20
REMARK    7  A    between atoms: C_23  and  S_24
REMARK    8  A    between atoms: S_24  and  C_25
REMARK                            x       y       z     vdW  Elec       q    Type
REMARK                         _______ _______ _______ _____ _____    ______ ____
ROOT
ATOM      1  C   UNL     1       1.407   8.973  19.772  0.00  0.00    +0.000 A 
ATOM      2  N   UNL     1       1.254   9.639  18.620  0.00  0.00    +0.000 NA
ATOM      3  C   UNL     1       0.545  10.776  18.697  0.00  0.00    +0.000 A 
ATOM      4  N   UNL     1      -0.017  11.298  19.798  0.00  0.00    +0.000 NA
ATOM      5  C   UNL     1       0.158  10.598  20.923  0.00  0.00    +0.000 A 
ATOM      6  C   UNL     1       0.873   9.418  20.948  0.00  0.00    +0.000 A 
ATOM      7  C   UNL     1       0.948   8.857  22.313  0.00  0.00    +0.000 C 
ATOM      8  C   UNL     1       0.000   9.791  23.082  0.00  0.00    +0.000 C 
ATOM      9  N   UNL     1      -0.340  10.938  22.218  0.00  0.00    +0.000 N 
ENDROOT
BRANCH   9  10
ATOM     10  C   UNL     1      -1.178  11.975  22.659  0.00  0.00    +0.000 A 
ATOM     11  C   UNL     1      -2.451  11.716  23.198  0.00  0.00    +0.000 A 
ATOM     12  C   UNL     1      -3.299  12.748  23.638  0.00  0.00    +0.000 A 
ATOM     13  C   UNL     1      -2.885  14.072  23.533  0.00  0.00    +0.000 A 
ATOM     14  C   UNL     1      -1.632  14.375  23.019  0.00  0.00    +0.000 A 
ATOM     15  C   UNL     1      -0.803  13.338  22.588  0.00  0.00    +0.000 A 
ATOM     16  F   UNL     1       0.388  13.702  22.094  0.00  0.00    +0.000 F 
BRANCH  13  17
ATOM     17  S   UNL     1      -3.933  15.392  24.086  0.00  0.00    +0.000 S 
ATOM     18  C   UNL     1      -3.648  16.662  22.881  0.00  0.00    +0.000 C 
ATOM     19  O   UNL     1      -5.307  14.943  23.959  0.00  0.00    +0.000 OA
ATOM     20  O   UNL     1      -3.414  15.852  25.359  0.00  0.00    +0.000 OA
ENDBRANCH  13  17
ENDBRANCH   9  10
BRANCH   1  21
ATOM     21  O   UNL     1       2.176   7.833  19.803  0.00  0.00    +0.000 OA
BRANCH  21  27
ATOM     22  C   UNL     1       5.356   4.411  18.539  0.00  0.00    +0.000 C 
ATOM     23  O   UNL     1       5.426   3.393  19.218  0.00  0.00    +0.000 OA
ATOM     24  N   UNL     1       4.380   5.374  18.703  0.00  0.00    +0.000 N 
ATOM     25  C   UNL     1       3.467   5.247  19.825  0.00  0.00    +0.000 C 
ATOM     26  C   UNL     1       2.043   5.494  19.352  0.00  0.00    +0.000 C 
ATOM     27  C   UNL     1       1.927   6.896  18.740  0.00  0.00    +0.000 C 
ATOM     28  C   UNL     1       2.943   7.041  17.592  0.00  0.00    +0.000 C 
ATOM     29  C   UNL     1       4.363   6.660  18.011  0.00  0.00    +0.000 C 
BRANCH  22  30
ATOM     30  O   UNL     1       6.260   4.737  17.578  0.00  0.00    +0.000 OA
BRANCH  30  32
ATOM     31  C   UNL     1       7.858   5.922  18.890  0.00  0.00    +0.000 C 
ATOM     32  C   UNL     1       7.625   4.705  18.013  0.00  0.00    +0.000 C 
ENDBRANCH  30  32
ENDBRANCH  22  30
ENDBRANCH  21  27
ENDBRANCH   1  21
TORSDOF 6
ENDMDL
MODEL 9
REMARK VINA RESULT:      -7.5      1.469      1.812
REMARK  Name = 
REMARK  8 active torsions:
REMARK  status: ('A' for Active; 'I' for Inactive)
REMARK    1  A    between atoms: C_1  and  C_2
REMARK    2  A    between atoms: C_2  and  O_3
REMARK    3  A    between atoms: O_3  and  C_4
REMARK    4  A    between atoms: C_9  and  O_10
REMARK    5  A    between atoms: O_10  and  C_11
REMARK    6  A    between atoms: N_19  and  C_20
REMARK    7  A    between atoms: C_23  and  S_24
REMARK    8  A    between atoms: S_24  and  C_25
REMARK                            x       y       z     vdW  Elec       q    Type
REMARK                         _______ _______ _______ _____ _____    ______ ____
ROOT
ATOM      1  C   UNL     1       2.325   7.202  19.523  0.00  0.00    +0.000 A 
ATOM      2  N   UNL     1       1.949   6.504  20.602  0.00  0.00    +0.000 NA
ATOM      3  C   UNL     1       1.009   7.080  21.367  0.00  0.00    +0.000 A 
ATOM      4  N   UNL     1       0.424   8.270  21.158  0.00  0.00    +0.000 NA
ATOM      5  C   UNL     1       0.833   8.933  20.073  0.00  0.00    +0.000 A 
ATOM      6  C   UNL     1       1.791   8.424  19.221  0.00  0.00    +0.000 A 
ATOM      7  C   UNL     1       2.044   9.330  18.082  0.00  0.00    +0.000 C 
ATOM      8  C   UNL     1       1.216  10.563  18.482  0.00  0.00    +0.000 C 
ATOM      9  N   UNL     1       0.367  10.211  19.637  0.00  0.00    +0.000 N 
ENDROOT
BRANCH   9  10
ATOM     10  C   UNL     1      -0.518  11.135  20.213  0.00  0.00    +0.000 A 
ATOM     11  C   UNL     1      -1.561  11.720  19.472  0.00  0.00    +0.000 A 
ATOM     12  C   UNL     1      -2.451  12.649  20.039  0.00  0.00    +0.000 A 
ATOM     13  C   UNL     1      -2.301  13.021  21.371  0.00  0.00    +0.000 A 
ATOM     14  C   UNL     1      -1.294  12.461  22.145  0.00  0.00    +0.000 A 
ATOM     15  C   UNL     1      -0.421  11.540  21.566  0.00  0.00    +0.000 A 
ATOM     16  F   UNL     1       0.534  11.047  22.367  0.00  0.00    +0.000 F 
BRANCH  13  17
ATOM     17  S   UNL     1      -3.413  14.187  22.113  0.00  0.00    +0.000 S 
ATOM     18  C   UNL     1      -4.062  15.066  20.715  0.00  0.00    +0.000 C 
ATOM     19  O   UNL     1      -4.494  13.437  22.723  0.00  0.00    +0.000 OA
ATOM     20  O   UNL     1      -2.613  15.110  22.894  0.00  0.00    +0.000 OA
ENDBRANCH  13  17
ENDBRANCH   9  10
BRANCH   1  21
ATOM     21  O   UNL     1       3.233   6.661  18.643  0.00  0.00    +0.000 OA
BRANCH  21  27
ATOM     22  C   UNL     1       6.724   4.383  16.184  0.00  0.00    +0.000 C 
ATOM     23  O   UNL     1       7.893   4.605  16.478  0.00  0.00    +0.000 OA
ATOM     24  N   UNL     1       5.649   4.843  16.919  0.00  0.00    +0.000 N 
ATOM     25  C   UNL     1       5.906   5.751  18.023  0.00  0.00    +0.000 C 
ATOM     26  C   UNL     1       5.107   5.311  19.239  0.00  0.00    +0.000 C 
ATOM     27  C   UNL     1       3.609   5.298  18.910  0.00  0.00    +0.000 C 
ATOM     28  C   UNL     1       3.357   4.381  17.699  0.00  0.00    +0.000 C 
ATOM     29  C   UNL     1       4.253   4.718  16.508  0.00  0.00    +0.000 C 
BRANCH  22  30
ATOM     30  O   UNL     1       6.347   3.700  15.071  0.00  0.00    +0.000 OA
BRANCH  30  32
ATOM     31  C   UNL     1       6.074   3.526  12.709  0.00  0.00    +0.000 C 
ATOM     32  C   UNL     1       6.653   4.362  13.838  0.00  0.00    +0.000 C 
ENDBRANCH  30  32
ENDBRANCH  22  30
ENDBRANCH  21  27
ENDBRANCH   1  21
TORSDOF 6
ENDMDL
