MODEL 1
REMARK VINA RESULT:      -7.0      0.000      0.000
REMARK  Name = 
REMARK  5 active torsions:
REMARK  status: ('A' for Active; 'I' for Inactive)
REMARK    1  A    between atoms: O_1  and  C_2
REMARK    2  A    between atoms: C_7  and  C_8
REMARK    3  A    between atoms: C_8  and  N_9
REMARK    4  A    between atoms: N_9  and  C_10
REMARK    5  A    between atoms: C_10  and  C_11
REMARK                            x       y       z     vdW  Elec       q    Type
REMARK                         _______ _______ _______ _____ _____    ______ ____
ROOT
ATOM      1  C   UNL     1       3.423   2.570  17.515  0.00  0.00    +0.000 C 
ENDROOT
BRANCH   1   7
ATOM      2  C   UNL     1       3.544   2.457  20.079  0.00  0.00    +0.000 A 
ATOM      3  C   UNL     1       2.953   2.619  21.337  0.00  0.00    +0.000 A 
ATOM      4  C   UNL     1       1.618   3.011  21.437  0.00  0.00    +0.000 A 
ATOM      5  C   UNL     1       0.875   3.228  20.280  0.00  0.00    +0.000 A 
ATOM      6  C   UNL     1       1.468   3.064  19.028  0.00  0.00    +0.000 A 
ATOM      7  C   UNL     1       2.818   2.688  18.904  0.00  0.00    +0.000 A 
BRANCH   2   8
ATOM      8  O   UNL     1       4.857   2.080  19.996  0.00  0.00    +0.000 OA
ATOM      9  H   UNL     1       4.886   1.131  19.787  0.00  0.00    +0.000 HD
ENDBRANCH   2   8
ENDBRANCH   1   7
BRANCH   1  10
ATOM     10  N   UNL     1       4.660   3.351  17.438  0.00  0.00    +0.000 NA
ATOM     11  H   UNL     1       5.200   3.021  16.638  0.00  0.00    +0.000 HD
BRANCH  10  12
ATOM     12  C   UNL     1       4.441   4.789  17.294  0.00  0.00    +0.000 C 
BRANCH  12  13
ATOM     13  C   UNL     1       5.681   5.554  17.719  0.00  0.00    +0.000 A 
ATOM     14  C   UNL     1       6.120   6.688  17.026  0.00  0.00    +0.000 A 
ATOM     15  C   UNL     1       7.287   7.356  17.416  0.00  0.00    +0.000 A 
ATOM     16  C   UNL     1       8.028   6.897  18.506  0.00  0.00    +0.000 A 
ATOM     17  C   UNL     1       7.597   5.780  19.211  0.00  0.00    +0.000 A 
ATOM     18  C   UNL     1       6.431   5.115  18.823  0.00  0.00    +0.000 A 
ENDBRANCH  12  13
ENDBRANCH  10  12
ENDBRANCH   1  10
TORSDOF 5
ENDMDL
MODEL 2
REMARK VINA RESULT:      -6.7      1.609      5.840
REMARK  Name = 
REMARK  5 active torsions:
REMARK  status: ('A' for Active; 'I' for Inactive)
REMARK    1  A    between atoms: O_1  and  C_2
REMARK    2  A    between atoms: C_7  and  C_8
REMARK    3  A    between atoms: C_8  and  N_9
REMARK    4  A    between atoms: N_9  and  C_10
REMARK    5  A    between atoms: C_10  and  C_11
REMARK                            x       y       z     vdW  Elec       q    Type
REMARK                         _______ _______ _______ _____ _____    ______ ____
ROOT
ATOM      1  C   UNL     1       4.440   4.602  17.295  0.00  0.00    +0.000 C 
ENDROOT
BRANCH   1   7
ATOM      2  C   UNL     1       6.183   6.449  16.904  0.00  0.00    +0.000 A 
ATOM      3  C   UNL     1       7.310   7.170  17.313  0.00  0.00    +0.000 A 
ATOM      4  C   UNL     1       7.963   6.832  18.499  0.00  0.00    +0.000 A 
ATOM      5  C   UNL     1       7.495   5.769  19.265  0.00  0.00    +0.000 A 
ATOM      6  C   UNL     1       6.370   5.053  18.852  0.00  0.00    +0.000 A 
ATOM      7  C   UNL     1       5.685   5.388  17.670  0.00  0.00    +0.000 A 
BRANCH   2   8
ATOM      8  O   UNL     1       5.548   6.796  15.743  0.00  0.00    +0.000 OA
ATOM      9  H   UNL     1       5.796   6.153  15.058  0.00  0.00    +0.000 HD
ENDBRANCH   2   8
ENDBRANCH   1   7
BRANCH   1  10
ATOM     10  N   UNL     1       4.650   3.175  17.557  0.00  0.00    +0.000 NA
ATOM     11  H   UNL     1       5.147   3.079  18.443  0.00  0.00    +0.000 HD
BRANCH  10  12
ATOM     12  C   UNL     1       3.412   2.400  17.627  0.00  0.00    +0.000 C 
BRANCH  12  13
ATOM     13  C   UNL     1       2.693   2.678  18.934  0.00  0.00    +0.000 A 
ATOM     14  C   UNL     1       1.378   3.156  18.963  0.00  0.00    +0.000 A 
ATOM     15  C   UNL     1       0.747   3.438  20.180  0.00  0.00    +0.000 A 
ATOM     16  C   UNL     1       1.427   3.245  21.384  0.00  0.00    +0.000 A 
ATOM     17  C   UNL     1       2.729   2.760  21.371  0.00  0.00    +0.000 A 
ATOM     18  C   UNL     1       3.357   2.476  20.155  0.00  0.00    +0.000 A 
ENDBRANCH  12  13
ENDBRANCH  10  12
ENDBRANCH   1  10
TORSDOF 5
ENDMDL
MODEL 3
REMARK VINA RESULT:      -6.7      1.398      2.005
REMARK  Name = 
REMARK  5 active torsions:
REMARK  status: ('A' for Active; 'I' for Inactive)
REMARK    1  A    between atoms: O_1  and  C_2
REMARK    2  A    between atoms: C_7  and  C_8
REMARK    3  A    between atoms: C_8  and  N_9
REMARK    4  A    between atoms: N_9  and  C_10
REMARK    5  A    between atoms: C_10  and  C_11
REMARK                            x       y       z     vdW  Elec       q    Type
REMARK                         _______ _______ _______ _____ _____    ______ ____
ROOT
ATOM      1  C   UNL     1       3.593   4.333  17.173  0.00  0.00    +0.000 C 
ENDROOT
BRANCH   1   7
ATOM      2  C   UNL     1       2.209   2.732  18.632  0.00  0.00    +0.000 A 
ATOM      3  C   UNL     1       1.463   2.470  19.785  0.00  0.00    +0.000 A 
ATOM      4  C   UNL     1       1.228   3.485  20.713  0.00  0.00    +0.000 A 
ATOM      5  C   UNL     1       1.731   4.762  20.478  0.00  0.00    +0.000 A 
ATOM      6  C   UNL     1       2.475   5.019  19.326  0.00  0.00    +0.000 A 
ATOM      7  C   UNL     1       2.739   4.005  18.386  0.00  0.00    +0.000 A 
BRANCH   2   8
ATOM      8  O   UNL     1       2.438   1.725  17.735  0.00  0.00    +0.000 OA
ATOM      9  H   UNL     1       3.316   1.863  17.341  0.00  0.00    +0.000 HD
ENDBRANCH   2   8
ENDBRANCH   1   7
BRANCH   1  10
ATOM     10  N   UNL     1       4.750   3.435  17.117  0.00  0.00    +0.000 NA
ATOM     11  H   UNL     1       4.446   2.543  16.726  0.00  0.00    +0.000 HD
BRANCH  10  12
ATOM     12  C   UNL     1       5.855   3.948  16.310  0.00  0.00    +0.000 C 
BRANCH  12  13
ATOM     13  C   UNL     1       6.626   5.000  17.086  0.00  0.00    +0.000 A 
ATOM     14  C   UNL     1       7.280   4.698  18.286  0.00  0.00    +0.000 A 
ATOM     15  C   UNL     1       7.955   5.693  19.002  0.00  0.00    +0.000 A 
ATOM     16  C   UNL     1       7.985   7.004  18.524  0.00  0.00    +0.000 A 
ATOM     17  C   UNL     1       7.352   7.317  17.328  0.00  0.00    +0.000 A 
ATOM     18  C   UNL     1       6.680   6.322  16.612  0.00  0.00    +0.000 A 
ENDBRANCH  12  13
ENDBRANCH  10  12
ENDBRANCH   1  10
TORSDOF 5
ENDMDL
MODEL 4
REMARK VINA RESULT:      -6.7      1.595      5.933
REMARK  Name = 
REMARK  5 active torsions:
REMARK  status: ('A' for Active; 'I' for Inactive)
REMARK    1  A    between atoms: O_1  and  C_2
REMARK    2  A    between atoms: C_7  and  C_8
REMARK    3  A    between atoms: C_8  and  N_9
REMARK    4  A    between atoms: N_9  and  C_10
REMARK    5  A    between atoms: C_10  and  C_11
REMARK                            x       y       z     vdW  Elec       q    Type
REMARK                         _______ _______ _______ _____ _____    ______ ____
ROOT
ATOM      1  C   UNL     1       4.404   4.645  17.420  0.00  0.00    +0.000 C 
ENDROOT
BRANCH   1   7
ATOM      2  C   UNL     1       6.162   6.462  16.960  0.00  0.00    +0.000 A 
ATOM      3  C   UNL     1       7.310   7.171  17.331  0.00  0.00    +0.000 A 
ATOM      4  C   UNL     1       7.988   6.841  18.505  0.00  0.00    +0.000 A 
ATOM      5  C   UNL     1       7.524   5.794  19.297  0.00  0.00    +0.000 A 
ATOM      6  C   UNL     1       6.379   5.089  18.922  0.00  0.00    +0.000 A 
ATOM      7  C   UNL     1       5.669   5.418  17.753  0.00  0.00    +0.000 A 
BRANCH   2   8
ATOM      8  O   UNL     1       5.503   6.803  15.811  0.00  0.00    +0.000 OA
ATOM      9  H   UNL     1       6.125   7.282  15.236  0.00  0.00    +0.000 HD
ENDBRANCH   2   8
ENDBRANCH   1   7
BRANCH   1  10
ATOM     10  N   UNL     1       4.649   3.206  17.543  0.00  0.00    +0.000 NA
ATOM     11  H   UNL     1       5.218   3.045  18.374  0.00  0.00    +0.000 HD
BRANCH  10  12
ATOM     12  C   UNL     1       3.429   2.408  17.649  0.00  0.00    +0.000 C 
BRANCH  12  13
ATOM     13  C   UNL     1       2.739   2.678  18.974  0.00  0.00    +0.000 A 
ATOM     14  C   UNL     1       3.409   2.538  20.195  0.00  0.00    +0.000 A 
ATOM     15  C   UNL     1       2.742   2.759  21.405  0.00  0.00    +0.000 A 
ATOM     16  C   UNL     1       1.395   3.125  21.408  0.00  0.00    +0.000 A 
ATOM     17  C   UNL     1       0.720   3.280  20.203  0.00  0.00    +0.000 A 
ATOM     18  C   UNL     1       1.388   3.062  18.994  0.00  0.00    +0.000 A 
ENDBRANCH  12  13
ENDBRANCH  10  12
ENDBRANCH   1  10
TORSDOF 5
ENDMDL
MODEL 5
REMARK VINA RESULT:      -6.7      1.895      3.107
REMARK  Name = 
REMARK  5 active torsions:
REMARK  status: ('A' for Active; 'I' for Inactive)
REMARK    1  A    between atoms: O_1  and  C_2
REMARK    2  A    between atoms: C_7  and  C_8
REMARK    3  A    between atoms: C_8  and  N_9
REMARK    4  A    between atoms: N_9  and  C_10
REMARK    5  A    between atoms: C_10  and  C_11
REMARK                            x       y       z     vdW  Elec       q    Type
REMARK                         _______ _______ _______ _____ _____    ______ ____
ROOT
ATOM      1  C   UNL     1       4.886   5.128  19.730  0.00  0.00    +0.000 C 
ENDROOT
BRANCH   1   7
ATOM      2  C   UNL     1       4.247   2.691  19.222  0.00  0.00    +0.000 A 
ATOM      3  C   UNL     1       3.454   1.752  18.555  0.00  0.00    +0.000 A 
ATOM      4  C   UNL     1       2.484   2.174  17.646  0.00  0.00    +0.000 A 
ATOM      5  C   UNL     1       2.318   3.534  17.398  0.00  0.00    +0.000 A 
ATOM      6  C   UNL     1       3.112   4.468  18.065  0.00  0.00    +0.000 A 
ATOM      7  C   UNL     1       4.083   4.065  19.000  0.00  0.00    +0.000 A 
BRANCH   2   8
ATOM      8  O   UNL     1       5.189   2.262  20.116  0.00  0.00    +0.000 OA
ATOM      9  H   UNL     1       6.037   2.178  19.647  0.00  0.00    +0.000 HD
ENDBRANCH   2   8
ENDBRANCH   1   7
BRANCH   1  10
ATOM     10  N   UNL     1       6.320   4.868  19.575  0.00  0.00    +0.000 NA
ATOM     11  H   UNL     1       6.440   3.910  19.246  0.00  0.00    +0.000 HD
BRANCH  10  12
ATOM     12  C   UNL     1       6.985   5.773  18.639  0.00  0.00    +0.000 C 
BRANCH  12  13
ATOM     13  C   UNL     1       6.520   5.495  17.221  0.00  0.00    +0.000 A 
ATOM     14  C   UNL     1       6.883   4.325  16.544  0.00  0.00    +0.000 A 
ATOM     15  C   UNL     1       6.470   4.108  15.224  0.00  0.00    +0.000 A 
ATOM     16  C   UNL     1       5.688   5.059  14.566  0.00  0.00    +0.000 A 
ATOM     17  C   UNL     1       5.310   6.219  15.231  0.00  0.00    +0.000 A 
ATOM     18  C   UNL     1       5.720   6.434  16.550  0.00  0.00    +0.000 A 
ENDBRANCH  12  13
ENDBRANCH  10  12
ENDBRANCH   1  10
TORSDOF 5
ENDMDL
MODEL 6
REMARK VINA RESULT:      -6.6      1.924      5.930
REMARK  Name = 
REMARK  5 active torsions:
REMARK  status: ('A' for Active; 'I' for Inactive)
REMARK    1  A    between atoms: O_1  and  C_2
REMARK    2  A    between atoms: C_7  and  C_8
REMARK    3  A    between atoms: C_8  and  N_9
REMARK    4  A    between atoms: N_9  and  C_10
REMARK    5  A    between atoms: C_10  and  C_11
REMARK                            x       y       z     vdW  Elec       q    Type
REMARK                         _______ _______ _______ _____ _____    ______ ____
ROOT
ATOM      1  C   UNL     1       5.615   4.988  18.851  0.00  0.00    +0.000 C 
ENDROOT
BRANCH   1   7
ATOM      2  C   UNL     1       7.137   4.575  16.822  0.00  0.00    +0.000 A 
ATOM      3  C   UNL     1       7.363   4.600  15.442  0.00  0.00    +0.000 A 
ATOM      4  C   UNL     1       6.383   5.094  14.581  0.00  0.00    +0.000 A 
ATOM      5  C   UNL     1       5.184   5.572  15.103  0.00  0.00    +0.000 A 
ATOM      6  C   UNL     1       4.963   5.545  16.481  0.00  0.00    +0.000 A 
ATOM      7  C   UNL     1       5.930   5.034  17.366  0.00  0.00    +0.000 A 
BRANCH   2   8
ATOM      8  O   UNL     1       8.104   4.081  17.653  0.00  0.00    +0.000 OA
ATOM      9  H   UNL     1       8.367   4.788  18.266  0.00  0.00    +0.000 HD
ENDBRANCH   2   8
ENDBRANCH   1   7
BRANCH   1  10
ATOM     10  N   UNL     1       5.598   3.598  19.317  0.00  0.00    +0.000 NA
ATOM     11  H   UNL     1       5.496   3.601  20.332  0.00  0.00    +0.000 HD
BRANCH  10  12
ATOM     12  C   UNL     1       4.522   2.796  18.740  0.00  0.00    +0.000 C 
BRANCH  12  13
ATOM     13  C   UNL     1       3.251   2.959  19.554  0.00  0.00    +0.000 A 
ATOM     14  C   UNL     1       3.208   2.651  20.919  0.00  0.00    +0.000 A 
ATOM     15  C   UNL     1       2.015   2.776  21.641  0.00  0.00    +0.000 A 
ATOM     16  C   UNL     1       0.851   3.211  21.005  0.00  0.00    +0.000 A 
ATOM     17  C   UNL     1       0.883   3.532  19.653  0.00  0.00    +0.000 A 
ATOM     18  C   UNL     1       2.074   3.410  18.933  0.00  0.00    +0.000 A 
ENDBRANCH  12  13
ENDBRANCH  10  12
ENDBRANCH   1  10
TORSDOF 5
ENDMDL
MODEL 7
REMARK VINA RESULT:      -6.6      1.467      1.727
REMARK  Name = 
REMARK  5 active torsions:
REMARK  status: ('A' for Active; 'I' for Inactive)
REMARK    1  A    between atoms: O_1  and  C_2
REMARK    2  A    between atoms: C_7  and  C_8
REMARK    3  A    between atoms: C_8  and  N_9
REMARK    4  A    between atoms: N_9  and  C_10
REMARK    5  A    between atoms: C_10  and  C_11
REMARK                            x       y       z     vdW  Elec       q    Type
REMARK                         _______ _______ _______ _____ _____    ______ ____
ROOT
ATOM      1  C   UNL     1       3.632   4.568  17.323  0.00  0.00    +0.000 C 
ENDROOT
BRANCH   1   7
ATOM      2  C   UNL     1       2.008   2.896  18.404  0.00  0.00    +0.000 A 
ATOM      3  C   UNL     1       1.147   2.530  19.444  0.00  0.00    +0.000 A 
ATOM      4  C   UNL     1       0.912   3.410  20.501  0.00  0.00    +0.000 A 
ATOM      5  C   UNL     1       1.531   4.657  20.509  0.00  0.00    +0.000 A 
ATOM      6  C   UNL     1       2.389   5.018  19.469  0.00  0.00    +0.000 A 
ATOM      7  C   UNL     1       2.654   4.139  18.403  0.00  0.00    +0.000 A 
BRANCH   2   8
ATOM      8  O   UNL     1       2.234   2.020  17.378  0.00  0.00    +0.000 OA
ATOM      9  H   UNL     1       2.955   2.374  16.831  0.00  0.00    +0.000 HD
ENDBRANCH   2   8
ENDBRANCH   1   7
BRANCH   1  10
ATOM     10  N   UNL     1       4.708   3.581  17.200  0.00  0.00    +0.000 NA
ATOM     11  H   UNL     1       4.327   2.743  16.762  0.00  0.00    +0.000 HD
BRANCH  10  12
ATOM     12  C   UNL     1       5.847   4.047  16.410  0.00  0.00    +0.000 C 
BRANCH  12  13
ATOM     13  C   UNL     1       6.602   5.126  17.164  0.00  0.00    +0.000 A 
ATOM     14  C   UNL     1       6.746   6.420  16.650  0.00  0.00    +0.000 A 
ATOM     15  C   UNL     1       7.477   7.388  17.348  0.00  0.00    +0.000 A 
ATOM     16  C   UNL     1       8.072   7.073  18.570  0.00  0.00    +0.000 A 
ATOM     17  C   UNL     1       7.927   5.796  19.099  0.00  0.00    +0.000 A 
ATOM     18  C   UNL     1       7.195   4.830  18.403  0.00  0.00    +0.000 A 
ENDBRANCH  12  13
ENDBRANCH  10  12
ENDBRANCH   1  10
TORSDOF 5
ENDMDL
MODEL 8
REMARK VINA RESULT:      -6.6      0.825      1.490
REMARK  Name = 
REMARK  5 active torsions:
REMARK  status: ('A' for Active; 'I' for Inactive)
REMARK    1  A    between atoms: O_1  and  C_2
REMARK    2  A    between atoms: C_7  and  C_8
REMARK    3  A    between atoms: C_8  and  N_9
REMARK    4  A    between atoms: N_9  and  C_10
REMARK    5  A    between atoms: C_10  and  C_11
REMARK                            x       y       z     vdW  Elec       q    Type
REMARK                         _______ _______ _______ _____ _____    ______ ____
ROOT
ATOM      1  C   UNL     1       3.632   4.303  17.607  0.00  0.00    +0.000 C 
ENDROOT
BRANCH   1   7
ATOM      2  C   UNL     1       3.616   3.042  19.847  0.00  0.00    +0.000 A 
ATOM      3  C   UNL     1       2.943   2.590  20.987  0.00  0.00    +0.000 A 
ATOM      4  C   UNL     1       1.578   2.835  21.138  0.00  0.00    +0.000 A 
ATOM      5  C   UNL     1       0.887   3.521  20.143  0.00  0.00    +0.000 A 
ATOM      6  C   UNL     1       1.562   3.970  19.007  0.00  0.00    +0.000 A 
ATOM      7  C   UNL     1       2.942   3.751  18.843  0.00  0.00    +0.000 A 
BRANCH   2   8
ATOM      8  O   UNL     1       4.956   2.802  19.716  0.00  0.00    +0.000 OA
ATOM      9  H   UNL     1       5.340   3.513  19.176  0.00  0.00    +0.000 HD
ENDBRANCH   2   8
ENDBRANCH   1   7
BRANCH   1  10
ATOM     10  N   UNL     1       4.709   3.401  17.189  0.00  0.00    +0.000 NA
ATOM     11  H   UNL     1       4.292   2.603  16.709  0.00  0.00    +0.000 HD
BRANCH  10  12
ATOM     12  C   UNL     1       5.686   4.025  16.299  0.00  0.00    +0.000 C 
BRANCH  12  13
ATOM     13  C   UNL     1       6.510   5.048  17.060  0.00  0.00    +0.000 A 
ATOM     14  C   UNL     1       7.282   4.691  18.172  0.00  0.00    +0.000 A 
ATOM     15  C   UNL     1       8.006   5.659  18.878  0.00  0.00    +0.000 A 
ATOM     16  C   UNL     1       7.967   6.996  18.479  0.00  0.00    +0.000 A 
ATOM     17  C   UNL     1       7.215   7.362  17.370  0.00  0.00    +0.000 A 
ATOM     18  C   UNL     1       6.494   6.395  16.663  0.00  0.00    +0.000 A 
ENDBRANCH  12  13
ENDBRANCH  10  12
ENDBRANCH   1  10
TORSDOF 5
ENDMDL
MODEL 9
REMARK VINA RESULT:      -6.6      1.701      2.595
REMARK  Name = 
REMARK  5 active torsions:
REMARK  status: ('A' for Active; 'I' for Inactive)
REMARK    1  A    between atoms: O_1  and  C_2
REMARK    2  A    between atoms: C_7  and  C_8
REMARK    3  A    between atoms: C_8  and  N_9
REMARK    4  A    between atoms: N_9  and  C_10
REMARK    5  A    between atoms: C_10  and  C_11
REMARK                            x       y       z     vdW  Elec       q    Type
REMARK                         _______ _______ _______ _____ _____    ______ ____
ROOT
ATOM      1  C   UNL     1       4.558   2.444  20.364  0.00  0.00    +0.000 C 
ENDROOT
BRANCH   1   7
ATOM      2  C   UNL     1       2.451   2.097  18.934  0.00  0.00    +0.000 A 
ATOM      3  C   UNL     1       1.092   2.319  18.690  0.00  0.00    +0.000 A 
ATOM      4  C   UNL     1       0.355   3.145  19.539  0.00  0.00    +0.000 A 
ATOM      5  C   UNL     1       0.982   3.756  20.622  0.00  0.00    +0.000 A 
ATOM      6  C   UNL     1       2.339   3.532  20.861  0.00  0.00    +0.000 A 
ATOM      7  C   UNL     1       3.096   2.687  20.028  0.00  0.00    +0.000 A 
BRANCH   2   8
ATOM      8  O   UNL     1       3.159   1.278  18.097  0.00  0.00    +0.000 OA
ATOM      9  H   UNL     1       2.846   0.367  18.229  0.00  0.00    +0.000 HD
ENDBRANCH   2   8
ENDBRANCH   1   7
BRANCH   1  10
ATOM     10  N   UNL     1       5.416   3.072  19.355  0.00  0.00    +0.000 NA
ATOM     11  H   UNL     1       5.231   2.629  18.455  0.00  0.00    +0.000 HD
BRANCH  10  12
ATOM     12  C   UNL     1       5.209   4.513  19.220  0.00  0.00    +0.000 C 
BRANCH  12  13
ATOM     13  C   UNL     1       5.268   4.917  17.758  0.00  0.00    +0.000 A 
ATOM     14  C   UNL     1       5.206   6.258  17.363  0.00  0.00    +0.000 A 
ATOM     15  C   UNL     1       5.227   6.604  16.006  0.00  0.00    +0.000 A 
ATOM     16  C   UNL     1       5.310   5.610  15.030  0.00  0.00    +0.000 A 
ATOM     17  C   UNL     1       5.385   4.275  15.408  0.00  0.00    +0.000 A 
ATOM     18  C   UNL     1       5.367   3.931  16.763  0.00  0.00    +0.000 A 
ENDBRANCH  12  13
ENDBRANCH  10  12
ENDBRANCH   1  10
TORSDOF 5
ENDMDL
