MODEL 1
REMARK VINA RESULT:      -7.6      0.000      0.000
REMARK  Name = 
REMARK  14 active torsions:
REMARK  status: ('A' for Active; 'I' for Inactive)
REMARK    1  A    between atoms: P_2  and  O_3
REMARK    2  A    between atoms: P_2  and  O_4
REMARK    3  A    between atoms: P_2  and  C_5
REMARK    4  A    between atoms: C_5  and  O_6
REMARK    5  A    between atoms: C_5  and  C_7
REMARK    6  A    between atoms: C_5  and  P_23
REMARK    7  A    between atoms: C_7  and  C_8
REMARK    8  A    between atoms: C_8  and  C_9
REMARK    9  A    between atoms: C_9  and  C_10
REMARK   10  A    between atoms: C_10  and  O_11
REMARK   11  A    between atoms: O_11  and  C_12
REMARK   12  A    between atoms: C_16  and  C_17
REMARK   13  A    between atoms: P_23  and  O_25
REMARK   14  A    between atoms: P_23  and  O_26
REMARK                            x       y       z     vdW  Elec       q    Type
REMARK                         _______ _______ _______ _____ _____    ______ ____
ROOT
ATOM      1  C   UNL     1       3.449   4.668  18.643  0.00  0.00    +0.000 C 
ENDROOT
BRANCH   1   2
ATOM      2  C   UNL     1       3.000   3.595  19.678  0.00  0.00    +0.000 C 
BRANCH   2   4
ATOM      3  O   UNL     1       5.404   1.374  20.517  0.00  0.00    +0.000 OA
ATOM      4  P   UNL     1       4.302   2.391  20.133  0.00  0.00    +0.000 P 
BRANCH   4   5
ATOM      5  O   UNL     1       5.427   3.308  19.324  0.00  0.00    +0.000 OA
ATOM      6  H   UNL     1       5.931   3.786  20.019  0.00  0.00    +0.000 HD
ENDBRANCH   4   5
BRANCH   4   7
ATOM      7  O   UNL     1       3.953   1.458  18.823  0.00  0.00    +0.000 OA
ATOM      8  H   UNL     1       4.805   1.095  18.500  0.00  0.00    +0.000 HD
ENDBRANCH   4   7
ENDBRANCH   2   4
BRANCH   2   9
ATOM      9  O   UNL     1       2.536   4.307  20.880  0.00  0.00    +0.000 OA
ATOM     10  H   UNL     1       1.662   4.675  20.601  0.00  0.00    +0.000 HD
ENDBRANCH   2   9
BRANCH   2  11
ATOM     11  P   UNL     1       1.565   2.703  18.973  0.00  0.00    +0.000 P 
ATOM     12  O   UNL     1       0.579   3.662  19.641  0.00  0.00    +0.000 OA
BRANCH  11  13
ATOM     13  O   UNL     1       1.828   3.314  17.471  0.00  0.00    +0.000 OA
ATOM     14  H   UNL     1       0.969   3.585  17.064  0.00  0.00    +0.000 HD
ENDBRANCH  11  13
BRANCH  11  15
ATOM     15  O   UNL     1       0.210   1.859  18.306  0.00  0.00    +0.000 OA
ATOM     16  H   UNL     1      -0.205   2.494  17.687  0.00  0.00    +0.000 HD
ENDBRANCH  11  15
ENDBRANCH   2  11
ENDBRANCH   1   2
BRANCH   1  17
ATOM     17  C   UNL     1       3.140   6.107  19.038  0.00  0.00    +0.000 C 
BRANCH  17  18
ATOM     18  C   UNL     1       3.431   7.097  17.909  0.00  0.00    +0.000 C 
BRANCH  18  19
ATOM     19  C   UNL     1       4.300   6.404  16.865  0.00  0.00    +0.000 C 
BRANCH  19  20
ATOM     20  O   UNL     1       5.636   6.900  16.917  0.00  0.00    +0.000 OA
BRANCH  20  21
ATOM     21  C   UNL     1       6.527   5.937  17.267  0.00  0.00    +0.000 A 
ATOM     22  N   UNL     1       6.948   5.829  18.528  0.00  0.00    +0.000 NA
ATOM     23  O   UNL     1       7.842   4.765  18.502  0.00  0.00    +0.000 OA
ATOM     24  N   UNL     1       7.956   4.236  17.225  0.00  0.00    +0.000 NA
ATOM     25  C   UNL     1       7.120   4.952  16.454  0.00  0.00    +0.000 A 
BRANCH  25  26
ATOM     26  C   UNL     1       6.976   4.689  15.029  0.00  0.00    +0.000 A 
ATOM     27  C   UNL     1       5.986   3.823  14.547  0.00  0.00    +0.000 A 
ATOM     28  C   UNL     1       5.862   3.583  13.176  0.00  0.00    +0.000 A 
ATOM     29  C   UNL     1       6.720   4.209  12.275  0.00  0.00    +0.000 A 
ATOM     30  C   UNL     1       7.709   5.071  12.740  0.00  0.00    +0.000 A 
ATOM     31  C   UNL     1       7.839   5.307  14.110  0.00  0.00    +0.000 A 
ENDBRANCH  25  26
ENDBRANCH  20  21
ENDBRANCH  19  20
ENDBRANCH  18  19
ENDBRANCH  17  18
ENDBRANCH   1  17
TORSDOF 14
ENDMDL
MODEL 2
REMARK VINA RESULT:      -7.2      0.823      1.062
REMARK  Name = 
REMARK  14 active torsions:
REMARK  status: ('A' for Active; 'I' for Inactive)
REMARK    1  A    between atoms: P_2  and  O_3
REMARK    2  A    between atoms: P_2  and  O_4
REMARK    3  A    between atoms: P_2  and  C_5
REMARK    4  A    between atoms: C_5  and  O_6
REMARK    5  A    between atoms: C_5  and  C_7
REMARK    6  A    between atoms: C_5  and  P_23
REMARK    7  A    between atoms: C_7  and  C_8
REMARK    8  A    between atoms: C_8  and  C_9
REMARK    9  A    between atoms: C_9  and  C_10
REMARK   10  A    between atoms: C_10  and  O_11
REMARK   11  A    between atoms: O_11  and  C_12
REMARK   12  A    between atoms: C_16  and  C_17
REMARK   13  A    between atoms: P_23  and  O_25
REMARK   14  A    between atoms: P_23  and  O_26
REMARK                            x       y       z     vdW  Elec       q    Type
REMARK                         _______ _______ _______ _____ _____    ______ ____
ROOT
ATOM      1  C   UNL     1       2.869   5.208  17.965  0.00  0.00    +0.000 C 
ENDROOT
BRANCH   1   2
ATOM      2  C   UNL     1       2.665   4.251  19.177  0.00  0.00    +0.000 C 
BRANCH   2   4
ATOM      3  O   UNL     1       5.408   2.472  20.030  0.00  0.00    +0.000 OA
ATOM      4  P   UNL     1       4.150   3.287  19.639  0.00  0.00    +0.000 P 
BRANCH   4   5
ATOM      5  O   UNL     1       5.005   4.700  19.826  0.00  0.00    +0.000 OA
ATOM      6  H   UNL     1       5.928   4.491  19.560  0.00  0.00    +0.000 HD
ENDBRANCH   4   5
BRANCH   4   7
ATOM      7  O   UNL     1       4.574   3.107  18.059  0.00  0.00    +0.000 OA
ATOM      8  H   UNL     1       5.495   2.770  18.050  0.00  0.00    +0.000 HD
ENDBRANCH   4   7
ENDBRANCH   2   4
BRANCH   2   9
ATOM      9  O   UNL     1       2.227   5.071  20.318  0.00  0.00    +0.000 OA
ATOM     10  H   UNL     1       2.358   4.470  21.092  0.00  0.00    +0.000 HD
ENDBRANCH   2   9
BRANCH   2  11
ATOM     11  P   UNL     1       1.300   3.105  18.761  0.00  0.00    +0.000 P 
ATOM     12  O   UNL     1       2.179   1.884  19.028  0.00  0.00    +0.000 OA
BRANCH  11  13
ATOM     13  O   UNL     1       0.518   3.404  20.174  0.00  0.00    +0.000 OA
ATOM     14  H   UNL     1      -0.436   3.589  19.997  0.00  0.00    +0.000 HD
ENDBRANCH  11  13
BRANCH  11  15
ATOM     15  O   UNL     1       0.009   2.023  18.367  0.00  0.00    +0.000 OA
ATOM     16  H   UNL     1      -0.748   2.601  18.141  0.00  0.00    +0.000 HD
ENDBRANCH  11  15
ENDBRANCH   2  11
ENDBRANCH   1   2
BRANCH   1  17
ATOM     17  C   UNL     1       2.656   6.685  18.273  0.00  0.00    +0.000 C 
BRANCH  17  18
ATOM     18  C   UNL     1       3.665   7.582  17.554  0.00  0.00    +0.000 C 
BRANCH  18  19
ATOM     19  C   UNL     1       4.477   6.725  16.588  0.00  0.00    +0.000 C 
BRANCH  19  20
ATOM     20  O   UNL     1       5.857   7.084  16.641  0.00  0.00    +0.000 OA
BRANCH  20  21
ATOM     21  C   UNL     1       6.640   6.049  17.039  0.00  0.00    +0.000 A 
ATOM     22  N   UNL     1       7.020   5.937  18.313  0.00  0.00    +0.000 NA
ATOM     23  O   UNL     1       7.806   4.791  18.338  0.00  0.00    +0.000 OA
ATOM     24  N   UNL     1       7.897   4.217  17.079  0.00  0.00    +0.000 NA
ATOM     25  C   UNL     1       7.153   4.989  16.268  0.00  0.00    +0.000 A 
BRANCH  25  26
ATOM     26  C   UNL     1       7.017   4.700  14.847  0.00  0.00    +0.000 A 
ATOM     27  C   UNL     1       6.062   3.786  14.380  0.00  0.00    +0.000 A 
ATOM     28  C   UNL     1       5.945   3.522  13.013  0.00  0.00    +0.000 A 
ATOM     29  C   UNL     1       6.775   4.171  12.101  0.00  0.00    +0.000 A 
ATOM     30  C   UNL     1       7.728   5.080  12.551  0.00  0.00    +0.000 A 
ATOM     31  C   UNL     1       7.851   5.340  13.917  0.00  0.00    +0.000 A 
ENDBRANCH  25  26
ENDBRANCH  20  21
ENDBRANCH  19  20
ENDBRANCH  18  19
ENDBRANCH  17  18
ENDBRANCH   1  17
TORSDOF 14
ENDMDL
MODEL 3
REMARK VINA RESULT:      -7.0      1.037      2.274
REMARK  Name = 
REMARK  14 active torsions:
REMARK  status: ('A' for Active; 'I' for Inactive)
REMARK    1  A    between atoms: P_2  and  O_3
REMARK    2  A    between atoms: P_2  and  O_4
REMARK    3  A    between atoms: P_2  and  C_5
REMARK    4  A    between atoms: C_5  and  O_6
REMARK    5  A    between atoms: C_5  and  C_7
REMARK    6  A    between atoms: C_5  and  P_23
REMARK    7  A    between atoms: C_7  and  C_8
REMARK    8  A    between atoms: C_8  and  C_9
REMARK    9  A    between atoms: C_9  and  C_10
REMARK   10  A    between atoms: C_10  and  O_11
REMARK   11  A    between atoms: O_11  and  C_12
REMARK   12  A    between atoms: C_16  and  C_17
REMARK   13  A    between atoms: P_23  and  O_25
REMARK   14  A    between atoms: P_23  and  O_26
REMARK                            x       y       z     vdW  Elec       q    Type
REMARK                         _______ _______ _______ _____ _____    ______ ____
ROOT
ATOM      1  C   UNL     1       3.448   4.725  19.408  0.00  0.00    +0.000 C 
ENDROOT
BRANCH   1   2
ATOM      2  C   UNL     1       2.514   3.480  19.458  0.00  0.00    +0.000 C 
BRANCH   2   4
ATOM      3  O   UNL     1       1.341   2.738  22.539  0.00  0.00    +0.000 OA
ATOM      4  P   UNL     1       1.878   3.077  21.127  0.00  0.00    +0.000 P 
BRANCH   4   5
ATOM      5  O   UNL     1       2.433   4.540  21.687  0.00  0.00    +0.000 OA
ATOM      6  H   UNL     1       2.842   4.985  20.912  0.00  0.00    +0.000 HD
ENDBRANCH   4   5
BRANCH   4   7
ATOM      7  O   UNL     1       3.265   2.277  21.507  0.00  0.00    +0.000 OA
ATOM      8  H   UNL     1       3.105   1.328  21.318  0.00  0.00    +0.000 HD
ENDBRANCH   4   7
ENDBRANCH   2   4
BRANCH   2   9
ATOM      9  O   UNL     1       1.389   3.734  18.544  0.00  0.00    +0.000 OA
ATOM     10  H   UNL     1       1.576   3.129  17.783  0.00  0.00    +0.000 HD
ENDBRANCH   2   9
BRANCH   2  11
ATOM     11  P   UNL     1       3.452   2.051  18.803  0.00  0.00    +0.000 P 
ATOM     12  O   UNL     1       3.049   2.384  17.366  0.00  0.00    +0.000 OA
BRANCH  11  13
ATOM     13  O   UNL     1       4.897   2.794  19.041  0.00  0.00    +0.000 OA
ATOM     14  H   UNL     1       5.491   2.211  19.572  0.00  0.00    +0.000 HD
ENDBRANCH  11  13
BRANCH  11  15
ATOM     15  O   UNL     1       4.338   0.700  18.184  0.00  0.00    +0.000 OA
ATOM     16  H   UNL     1       4.764   0.295  18.967  0.00  0.00    +0.000 HD
ENDBRANCH  11  15
ENDBRANCH   2  11
ENDBRANCH   1   2
BRANCH   1  17
ATOM     17  C   UNL     1       2.732   6.053  19.193  0.00  0.00    +0.000 C 
BRANCH  17  18
ATOM     18  C   UNL     1       3.104   6.706  17.861  0.00  0.00    +0.000 C 
BRANCH  18  19
ATOM     19  C   UNL     1       4.131   5.826  17.156  0.00  0.00    +0.000 C 
BRANCH  19  20
ATOM     20  O   UNL     1       5.400   6.477  17.112  0.00  0.00    +0.000 OA
BRANCH  20  21
ATOM     21  C   UNL     1       6.422   5.622  17.373  0.00  0.00    +0.000 A 
ATOM     22  N   UNL     1       6.883   5.477  18.617  0.00  0.00    +0.000 NA
ATOM     23  O   UNL     1       7.914   4.553  18.496  0.00  0.00    +0.000 OA
ATOM     24  N   UNL     1       8.071   4.145  17.180  0.00  0.00    +0.000 NA
ATOM     25  C   UNL     1       7.127   4.795  16.478  0.00  0.00    +0.000 A 
BRANCH  25  26
ATOM     26  C   UNL     1       6.989   4.625  15.038  0.00  0.00    +0.000 A 
ATOM     27  C   UNL     1       7.853   5.270  14.144  0.00  0.00    +0.000 A 
ATOM     28  C   UNL     1       7.705   5.094  12.766  0.00  0.00    +0.000 A 
ATOM     29  C   UNL     1       6.698   4.269  12.269  0.00  0.00    +0.000 A 
ATOM     30  C   UNL     1       5.832   3.623  13.146  0.00  0.00    +0.000 A 
ATOM     31  C   UNL     1       5.974   3.803  14.523  0.00  0.00    +0.000 A 
ENDBRANCH  25  26
ENDBRANCH  20  21
ENDBRANCH  19  20
ENDBRANCH  18  19
ENDBRANCH  17  18
ENDBRANCH   1  17
TORSDOF 14
ENDMDL
MODEL 4
REMARK VINA RESULT:      -7.0      0.459      1.049
REMARK  Name = 
REMARK  14 active torsions:
REMARK  status: ('A' for Active; 'I' for Inactive)
REMARK    1  A    between atoms: P_2  and  O_3
REMARK    2  A    between atoms: P_2  and  O_4
REMARK    3  A    between atoms: P_2  and  C_5
REMARK    4  A    between atoms: C_5  and  O_6
REMARK    5  A    between atoms: C_5  and  C_7
REMARK    6  A    between atoms: C_5  and  P_23
REMARK    7  A    between atoms: C_7  and  C_8
REMARK    8  A    between atoms: C_8  and  C_9
REMARK    9  A    between atoms: C_9  and  C_10
REMARK   10  A    between atoms: C_10  and  O_11
REMARK   11  A    between atoms: O_11  and  C_12
REMARK   12  A    between atoms: C_16  and  C_17
REMARK   13  A    between atoms: P_23  and  O_25
REMARK   14  A    between atoms: P_23  and  O_26
REMARK                            x       y       z     vdW  Elec       q    Type
REMARK                         _______ _______ _______ _____ _____    ______ ____
ROOT
ATOM      1  C   UNL     1       3.372   4.448  18.418  0.00  0.00    +0.000 C 
ENDROOT
BRANCH   1   2
ATOM      2  C   UNL     1       2.936   3.456  19.536  0.00  0.00    +0.000 C 
BRANCH   2   4
ATOM      3  O   UNL     1       5.349   1.301  20.510  0.00  0.00    +0.000 OA
ATOM      4  P   UNL     1       4.243   2.288  20.064  0.00  0.00    +0.000 P 
BRANCH   4   5
ATOM      5  O   UNL     1       5.390   3.254  19.349  0.00  0.00    +0.000 OA
ATOM      6  H   UNL     1       6.213   2.717  19.324  0.00  0.00    +0.000 HD
ENDBRANCH   4   5
BRANCH   4   7
ATOM      7  O   UNL     1       4.018   1.366  18.719  0.00  0.00    +0.000 OA
ATOM      8  H   UNL     1       4.068   0.430  19.007  0.00  0.00    +0.000 HD
ENDBRANCH   4   7
ENDBRANCH   2   4
BRANCH   2   9
ATOM      9  O   UNL     1       2.488   4.257  20.687  0.00  0.00    +0.000 OA
ATOM     10  H   UNL     1       3.166   4.975  20.740  0.00  0.00    +0.000 HD
ENDBRANCH   2   9
BRANCH   2  11
ATOM     11  P   UNL     1       1.492   2.516  18.918  0.00  0.00    +0.000 P 
ATOM     12  O   UNL     1       0.634   2.962  20.102  0.00  0.00    +0.000 OA
BRANCH  11  13
ATOM     13  O   UNL     1       1.199   3.606  17.725  0.00  0.00    +0.000 OA
ATOM     14  H   UNL     1       1.816   3.452  16.969  0.00  0.00    +0.000 HD
ENDBRANCH  11  13
BRANCH  11  15
ATOM     15  O   UNL     1       0.128   1.627  18.333  0.00  0.00    +0.000 OA
ATOM     16  H   UNL     1      -0.431   2.290  17.878  0.00  0.00    +0.000 HD
ENDBRANCH  11  15
ENDBRANCH   2  11
ENDBRANCH   1   2
BRANCH   1  17
ATOM     17  C   UNL     1       3.433   5.909  18.846  0.00  0.00    +0.000 C 
BRANCH  17  18
ATOM     18  C   UNL     1       3.516   6.863  17.654  0.00  0.00    +0.000 C 
BRANCH  18  19
ATOM     19  C   UNL     1       4.915   7.469  17.610  0.00  0.00    +0.000 C 
BRANCH  19  20
ATOM     20  O   UNL     1       5.656   6.938  16.513  0.00  0.00    +0.000 OA
BRANCH  20  21
ATOM     21  C   UNL     1       6.526   5.972  16.902  0.00  0.00    +0.000 A 
ATOM     22  N   UNL     1       6.953   5.913  18.165  0.00  0.00    +0.000 NA
ATOM     23  O   UNL     1       7.822   4.829  18.184  0.00  0.00    +0.000 OA
ATOM     24  N   UNL     1       7.916   4.238  16.933  0.00  0.00    +0.000 NA
ATOM     25  C   UNL     1       7.091   4.936  16.134  0.00  0.00    +0.000 A 
BRANCH  25  26
ATOM     26  C   UNL     1       6.932   4.609  14.723  0.00  0.00    +0.000 A 
ATOM     27  C   UNL     1       7.838   5.076  13.763  0.00  0.00    +0.000 A 
ATOM     28  C   UNL     1       7.670   4.751  12.414  0.00  0.00    +0.000 A 
ATOM     29  C   UNL     1       6.599   3.955  12.014  0.00  0.00    +0.000 A 
ATOM     30  C   UNL     1       5.690   3.485  12.958  0.00  0.00    +0.000 A 
ATOM     31  C   UNL     1       5.853   3.814  14.305  0.00  0.00    +0.000 A 
ENDBRANCH  25  26
ENDBRANCH  20  21
ENDBRANCH  19  20
ENDBRANCH  18  19
ENDBRANCH  17  18
ENDBRANCH   1  17
TORSDOF 14
ENDMDL
MODEL 5
REMARK VINA RESULT:      -7.0      3.449      6.606
REMARK  Name = 
REMARK  14 active torsions:
REMARK  status: ('A' for Active; 'I' for Inactive)
REMARK    1  A    between atoms: P_2  and  O_3
REMARK    2  A    between atoms: P_2  and  O_4
REMARK    3  A    between atoms: P_2  and  C_5
REMARK    4  A    between atoms: C_5  and  O_6
REMARK    5  A    between atoms: C_5  and  C_7
REMARK    6  A    between atoms: C_5  and  P_23
REMARK    7  A    between atoms: C_7  and  C_8
REMARK    8  A    between atoms: C_8  and  C_9
REMARK    9  A    between atoms: C_9  and  C_10
REMARK   10  A    between atoms: C_10  and  O_11
REMARK   11  A    between atoms: O_11  and  C_12
REMARK   12  A    between atoms: C_16  and  C_17
REMARK   13  A    between atoms: P_23  and  O_25
REMARK   14  A    between atoms: P_23  and  O_26
REMARK                            x       y       z     vdW  Elec       q    Type
REMARK                         _______ _______ _______ _____ _____    ______ ____
ROOT
ATOM      1  C   UNL     1       4.701   4.937  18.054  0.00  0.00    +0.000 C 
ENDROOT
BRANCH   1   2
ATOM      2  C   UNL     1       5.935   5.699  17.484  0.00  0.00    +0.000 C 
BRANCH   2   4
ATOM      3  O   UNL     1       7.029   4.553  14.500  0.00  0.00    +0.000 OA
ATOM      4  P   UNL     1       6.527   5.078  15.868  0.00  0.00    +0.000 P 
BRANCH   4   5
ATOM      5  O   UNL     1       7.763   6.188  15.898  0.00  0.00    +0.000 OA
ATOM      6  H   UNL     1       7.347   7.044  16.142  0.00  0.00    +0.000 HD
ENDBRANCH   4   5
BRANCH   4   7
ATOM      7  O   UNL     1       5.498   6.077  15.061  0.00  0.00    +0.000 OA
ATOM      8  H   UNL     1       4.708   6.188  15.631  0.00  0.00    +0.000 HD
ENDBRANCH   4   7
ENDBRANCH   2   4
BRANCH   2   9
ATOM      9  O   UNL     1       5.563   7.118  17.368  0.00  0.00    +0.000 OA
ATOM     10  H   UNL     1       5.476   7.250  16.392  0.00  0.00    +0.000 HD
ENDBRANCH   2   9
BRANCH   2  11
ATOM     11  P   UNL     1       7.284   5.578  18.715  0.00  0.00    +0.000 P 
ATOM     12  O   UNL     1       6.319   5.090  19.796  0.00  0.00    +0.000 OA
BRANCH  11  13
ATOM     13  O   UNL     1       7.895   4.219  18.023  0.00  0.00    +0.000 OA
ATOM     14  H   UNL     1       8.522   3.778  18.646  0.00  0.00    +0.000 HD
ENDBRANCH  11  13
BRANCH  11  15
ATOM     15  O   UNL     1       8.560   5.464  19.878  0.00  0.00    +0.000 OA
ATOM     16  H   UNL     1       8.235   4.831  20.551  0.00  0.00    +0.000 HD
ENDBRANCH  11  15
ENDBRANCH   2  11
ENDBRANCH   1   2
BRANCH   1  17
ATOM     17  C   UNL     1       4.405   3.604  17.379  0.00  0.00    +0.000 C 
BRANCH  17  18
ATOM     18  C   UNL     1       2.960   3.509  16.887  0.00  0.00    +0.000 C 
BRANCH  18  19
ATOM     19  C   UNL     1       2.173   2.629  17.852  0.00  0.00    +0.000 C 
BRANCH  19  20
ATOM     20  O   UNL     1       1.271   3.418  18.627  0.00  0.00    +0.000 OA
BRANCH  20  21
ATOM     21  C   UNL     1       1.706   3.589  19.901  0.00  0.00    +0.000 A 
ATOM     22  N   UNL     1       1.932   2.536  20.687  0.00  0.00    +0.000 NA
ATOM     23  O   UNL     1       2.342   3.089  21.894  0.00  0.00    +0.000 OA
ATOM     24  N   UNL     1       2.362   4.474  21.831  0.00  0.00    +0.000 NA
ATOM     25  C   UNL     1       1.985   4.790  20.581  0.00  0.00    +0.000 A 
BRANCH  25  26
ATOM     26  C   UNL     1       1.877   6.174  20.139  0.00  0.00    +0.000 A 
ATOM     27  C   UNL     1       1.348   7.164  20.977  0.00  0.00    +0.000 A 
ATOM     28  C   UNL     1       1.253   8.487  20.536  0.00  0.00    +0.000 A 
ATOM     29  C   UNL     1       1.689   8.833  19.260  0.00  0.00    +0.000 A 
ATOM     30  C   UNL     1       2.216   7.859  18.417  0.00  0.00    +0.000 A 
ATOM     31  C   UNL     1       2.306   6.536  18.852  0.00  0.00    +0.000 A 
ENDBRANCH  25  26
ENDBRANCH  20  21
ENDBRANCH  19  20
ENDBRANCH  18  19
ENDBRANCH  17  18
ENDBRANCH   1  17
TORSDOF 14
ENDMDL
MODEL 6
REMARK VINA RESULT:      -7.0      0.789      2.640
REMARK  Name = 
REMARK  14 active torsions:
REMARK  status: ('A' for Active; 'I' for Inactive)
REMARK    1  A    between atoms: P_2  and  O_3
REMARK    2  A    between atoms: P_2  and  O_4
REMARK    3  A    between atoms: P_2  and  C_5
REMARK    4  A    between atoms: C_5  and  O_6
REMARK    5  A    between atoms: C_5  and  C_7
REMARK    6  A    between atoms: C_5  and  P_23
REMARK    7  A    between atoms: C_7  and  C_8
REMARK    8  A    between atoms: C_8  and  C_9
REMARK    9  A    between atoms: C_9  and  C_10
REMARK   10  A    between atoms: C_10  and  O_11
REMARK   11  A    between atoms: O_11  and  C_12
REMARK   12  A    between atoms: C_16  and  C_17
REMARK   13  A    between atoms: P_23  and  O_25
REMARK   14  A    between atoms: P_23  and  O_26
REMARK                            x       y       z     vdW  Elec       q    Type
REMARK                         _______ _______ _______ _____ _____    ______ ____
ROOT
ATOM      1  C   UNL     1       3.689   5.290  19.250  0.00  0.00    +0.000 C 
ENDROOT
BRANCH   1   2
ATOM      2  C   UNL     1       3.127   3.887  18.876  0.00  0.00    +0.000 C 
BRANCH   2   4
ATOM      3  O   UNL     1      -0.041   3.330  19.912  0.00  0.00    +0.000 OA
ATOM      4  P   UNL     1       1.411   3.585  19.437  0.00  0.00    +0.000 P 
BRANCH   4   5
ATOM      5  O   UNL     1       1.951   2.361  20.422  0.00  0.00    +0.000 OA
ATOM      6  H   UNL     1       1.230   2.204  21.071  0.00  0.00    +0.000 HD
ENDBRANCH   4   5
BRANCH   4   7
ATOM      7  O   UNL     1       1.126   2.586  18.160  0.00  0.00    +0.000 OA
ATOM      8  H   UNL     1       0.477   3.042  17.584  0.00  0.00    +0.000 HD
ENDBRANCH   4   7
ENDBRANCH   2   4
BRANCH   2   9
ATOM      9  O   UNL     1       3.204   3.756  17.412  0.00  0.00    +0.000 OA
ATOM     10  H   UNL     1       2.831   2.855  17.245  0.00  0.00    +0.000 HD
ENDBRANCH   2   9
BRANCH   2  11
ATOM     11  P   UNL     1       4.236   2.627  19.605  0.00  0.00    +0.000 P 
ATOM     12  O   UNL     1       3.824   1.590  18.560  0.00  0.00    +0.000 OA
BRANCH  11  13
ATOM     13  O   UNL     1       5.580   3.352  19.001  0.00  0.00    +0.000 OA
ATOM     14  H   UNL     1       6.041   2.740  18.378  0.00  0.00    +0.000 HD
ENDBRANCH  11  13
BRANCH  11  15
ATOM     15  O   UNL     1       5.285   1.436  20.295  0.00  0.00    +0.000 OA
ATOM     16  H   UNL     1       4.733   0.958  20.946  0.00  0.00    +0.000 HD
ENDBRANCH  11  15
ENDBRANCH   2  11
ENDBRANCH   1   2
BRANCH   1  17
ATOM     17  C   UNL     1       3.193   6.432  18.372  0.00  0.00    +0.000 C 
BRANCH  17  18
ATOM     18  C   UNL     1       4.039   6.607  17.110  0.00  0.00    +0.000 C 
BRANCH  18  19
ATOM     19  C   UNL     1       5.170   7.585  17.411  0.00  0.00    +0.000 C 
BRANCH  19  20
ATOM     20  O   UNL     1       6.315   7.286  16.615  0.00  0.00    +0.000 OA
BRANCH  20  21
ATOM     21  C   UNL     1       6.939   6.151  17.021  0.00  0.00    +0.000 A 
ATOM     22  N   UNL     1       7.317   6.003  18.291  0.00  0.00    +0.000 NA
ATOM     23  O   UNL     1       7.920   4.751  18.327  0.00  0.00    +0.000 OA
ATOM     24  N   UNL     1       7.903   4.150  17.078  0.00  0.00    +0.000 NA
ATOM     25  C   UNL     1       7.272   5.012  16.263  0.00  0.00    +0.000 A 
BRANCH  25  26
ATOM     26  C   UNL     1       7.071   4.724  14.849  0.00  0.00    +0.000 A 
ATOM     27  C   UNL     1       7.825   5.371  13.862  0.00  0.00    +0.000 A 
ATOM     28  C   UNL     1       7.619   5.081  12.511  0.00  0.00    +0.000 A 
ATOM     29  C   UNL     1       6.662   4.141  12.134  0.00  0.00    +0.000 A 
ATOM     30  C   UNL     1       5.905   3.492  13.105  0.00  0.00    +0.000 A 
ATOM     31  C   UNL     1       6.106   3.784  14.455  0.00  0.00    +0.000 A 
ENDBRANCH  25  26
ENDBRANCH  20  21
ENDBRANCH  19  20
ENDBRANCH  18  19
ENDBRANCH  17  18
ENDBRANCH   1  17
TORSDOF 14
ENDMDL
MODEL 7
REMARK VINA RESULT:      -6.9      1.120      2.722
REMARK  Name = 
REMARK  14 active torsions:
REMARK  status: ('A' for Active; 'I' for Inactive)
REMARK    1  A    between atoms: P_2  and  O_3
REMARK    2  A    between atoms: P_2  and  O_4
REMARK    3  A    between atoms: P_2  and  C_5
REMARK    4  A    between atoms: C_5  and  O_6
REMARK    5  A    between atoms: C_5  and  C_7
REMARK    6  A    between atoms: C_5  and  P_23
REMARK    7  A    between atoms: C_7  and  C_8
REMARK    8  A    between atoms: C_8  and  C_9
REMARK    9  A    between atoms: C_9  and  C_10
REMARK   10  A    between atoms: C_10  and  O_11
REMARK   11  A    between atoms: O_11  and  C_12
REMARK   12  A    between atoms: C_16  and  C_17
REMARK   13  A    between atoms: P_23  and  O_25
REMARK   14  A    between atoms: P_23  and  O_26
REMARK                            x       y       z     vdW  Elec       q    Type
REMARK                         _______ _______ _______ _____ _____    ______ ____
ROOT
ATOM      1  C   UNL     1       1.827   4.675  18.545  0.00  0.00    +0.000 C 
ENDROOT
BRANCH   1   2
ATOM      2  C   UNL     1       2.372   3.306  19.049  0.00  0.00    +0.000 C 
BRANCH   2   4
ATOM      3  O   UNL     1       1.436   2.502  22.195  0.00  0.00    +0.000 OA
ATOM      4  P   UNL     1       1.866   2.870  20.753  0.00  0.00    +0.000 P 
BRANCH   4   5
ATOM      5  O   UNL     1       0.278   2.826  20.266  0.00  0.00    +0.000 OA
ATOM      6  H   UNL     1       0.167   1.970  19.795  0.00  0.00    +0.000 HD
ENDBRANCH   4   5
BRANCH   4   7
ATOM      7  O   UNL     1       1.807   4.457  21.184  0.00  0.00    +0.000 OA
ATOM      8  H   UNL     1       0.892   4.634  21.490  0.00  0.00    +0.000 HD
ENDBRANCH   4   7
ENDBRANCH   2   4
BRANCH   2   9
ATOM      9  O   UNL     1       1.906   2.272  18.110  0.00  0.00    +0.000 OA
ATOM     10  H   UNL     1       2.708   1.711  17.975  0.00  0.00    +0.000 HD
ENDBRANCH   2   9
BRANCH   2  11
ATOM     11  P   UNL     1       4.199   3.360  18.952  0.00  0.00    +0.000 P 
ATOM     12  O   UNL     1       4.278   4.367  20.099  0.00  0.00    +0.000 OA
BRANCH  11  13
ATOM     13  O   UNL     1       4.356   1.882  19.650  0.00  0.00    +0.000 OA
ATOM     14  H   UNL     1       3.526   1.361  19.521  0.00  0.00    +0.000 HD
ENDBRANCH  11  13
BRANCH  11  15
ATOM     15  O   UNL     1       5.926   3.412  18.859  0.00  0.00    +0.000 OA
ATOM     16  H   UNL     1       6.234   2.709  19.467  0.00  0.00    +0.000 HD
ENDBRANCH  11  15
ENDBRANCH   2  11
ENDBRANCH   1   2
BRANCH   1  17
ATOM     17  C   UNL     1       2.754   5.421  17.593  0.00  0.00    +0.000 C 
BRANCH  17  18
ATOM     18  C   UNL     1       2.919   6.893  17.976  0.00  0.00    +0.000 C 
BRANCH  18  19
ATOM     19  C   UNL     1       4.228   7.407  17.387  0.00  0.00    +0.000 C 
BRANCH  19  20
ATOM     20  O   UNL     1       4.724   6.499  16.403  0.00  0.00    +0.000 OA
BRANCH  20  21
ATOM     21  C   UNL     1       5.910   5.948  16.767  0.00  0.00    +0.000 A 
ATOM     22  N   UNL     1       6.391   6.128  17.997  0.00  0.00    +0.000 NA
ATOM     23  O   UNL     1       7.602   5.445  17.996  0.00  0.00    +0.000 OA
ATOM     24  N   UNL     1       7.845   4.857  16.764  0.00  0.00    +0.000 NA
ATOM     25  C   UNL     1       6.781   5.152  15.999  0.00  0.00    +0.000 A 
BRANCH  25  26
ATOM     26  C   UNL     1       6.683   4.705  14.616  0.00  0.00    +0.000 A 
ATOM     27  C   UNL     1       7.600   5.134  13.648  0.00  0.00    +0.000 A 
ATOM     28  C   UNL     1       7.491   4.694  12.326  0.00  0.00    +0.000 A 
ATOM     29  C   UNL     1       6.470   3.819  11.961  0.00  0.00    +0.000 A 
ATOM     30  C   UNL     1       5.552   3.386  12.913  0.00  0.00    +0.000 A 
ATOM     31  C   UNL     1       5.655   3.829  14.233  0.00  0.00    +0.000 A 
ENDBRANCH  25  26
ENDBRANCH  20  21
ENDBRANCH  19  20
ENDBRANCH  18  19
ENDBRANCH  17  18
ENDBRANCH   1  17
TORSDOF 14
ENDMDL
MODEL 8
REMARK VINA RESULT:      -6.8      0.885      2.644
REMARK  Name = 
REMARK  14 active torsions:
REMARK  status: ('A' for Active; 'I' for Inactive)
REMARK    1  A    between atoms: P_2  and  O_3
REMARK    2  A    between atoms: P_2  and  O_4
REMARK    3  A    between atoms: P_2  and  C_5
REMARK    4  A    between atoms: C_5  and  O_6
REMARK    5  A    between atoms: C_5  and  C_7
REMARK    6  A    between atoms: C_5  and  P_23
REMARK    7  A    between atoms: C_7  and  C_8
REMARK    8  A    between atoms: C_8  and  C_9
REMARK    9  A    between atoms: C_9  and  C_10
REMARK   10  A    between atoms: C_10  and  O_11
REMARK   11  A    between atoms: O_11  and  C_12
REMARK   12  A    between atoms: C_16  and  C_17
REMARK   13  A    between atoms: P_23  and  O_25
REMARK   14  A    between atoms: P_23  and  O_26
REMARK                            x       y       z     vdW  Elec       q    Type
REMARK                         _______ _______ _______ _____ _____    ______ ____
ROOT
ATOM      1  C   UNL     1       3.880   4.910  18.933  0.00  0.00    +0.000 C 
ENDROOT
BRANCH   1   2
ATOM      2  C   UNL     1       3.599   3.393  18.724  0.00  0.00    +0.000 C 
BRANCH   2   4
ATOM      3  O   UNL     1       0.322   2.588  18.560  0.00  0.00    +0.000 OA
ATOM      4  P   UNL     1       1.824   2.958  18.635  0.00  0.00    +0.000 P 
BRANCH   4   5
ATOM      5  O   UNL     1       2.229   1.408  18.195  0.00  0.00    +0.000 OA
ATOM      6  H   UNL     1       2.780   1.496  17.385  0.00  0.00    +0.000 HD
ENDBRANCH   4   5
BRANCH   4   7
ATOM      7  O   UNL     1       1.728   3.495  17.082  0.00  0.00    +0.000 OA
ATOM      8  H   UNL     1       2.111   4.398  17.072  0.00  0.00    +0.000 HD
ENDBRANCH   4   7
ENDBRANCH   2   4
BRANCH   2   9
ATOM      9  O   UNL     1       4.276   2.986  17.481  0.00  0.00    +0.000 OA
ATOM     10  H   UNL     1       4.433   3.845  17.018  0.00  0.00    +0.000 HD
ENDBRANCH   2   9
BRANCH   2  11
ATOM     11  P   UNL     1       4.381   2.483  20.106  0.00  0.00    +0.000 P 
ATOM     12  O   UNL     1       3.032   2.268  20.791  0.00  0.00    +0.000 OA
BRANCH  11  13
ATOM     13  O   UNL     1       4.627   1.146  19.185  0.00  0.00    +0.000 OA
ATOM     14  H   UNL     1       3.934   1.089  18.484  0.00  0.00    +0.000 HD
ENDBRANCH  11  13
BRANCH  11  15
ATOM     15  O   UNL     1       5.121   1.623  21.412  0.00  0.00    +0.000 OA
ATOM     16  H   UNL     1       5.604   2.304  21.924  0.00  0.00    +0.000 HD
ENDBRANCH  11  15
ENDBRANCH   2  11
ENDBRANCH   1   2
BRANCH   1  17
ATOM     17  C   UNL     1       3.084   5.840  18.025  0.00  0.00    +0.000 C 
BRANCH  17  18
ATOM     18  C   UNL     1       3.931   6.407  16.885  0.00  0.00    +0.000 C 
BRANCH  18  19
ATOM     19  C   UNL     1       4.997   7.322  17.478  0.00  0.00    +0.000 C 
BRANCH  19  20
ATOM     20  O   UNL     1       6.223   7.195  16.758  0.00  0.00    +0.000 OA
BRANCH  20  21
ATOM     21  C   UNL     1       6.915   6.084  17.119  0.00  0.00    +0.000 A 
ATOM     22  N   UNL     1       7.339   5.929  18.374  0.00  0.00    +0.000 NA
ATOM     23  O   UNL     1       8.006   4.710  18.364  0.00  0.00    +0.000 OA
ATOM     24  N   UNL     1       7.981   4.135  17.102  0.00  0.00    +0.000 NA
ATOM     25  C   UNL     1       7.283   4.981  16.326  0.00  0.00    +0.000 A 
BRANCH  25  26
ATOM     26  C   UNL     1       7.053   4.713  14.913  0.00  0.00    +0.000 A 
ATOM     27  C   UNL     1       7.841   5.314  13.923  0.00  0.00    +0.000 A 
ATOM     28  C   UNL     1       7.607   5.044  12.571  0.00  0.00    +0.000 A 
ATOM     29  C   UNL     1       6.588   4.170  12.198  0.00  0.00    +0.000 A 
ATOM     30  C   UNL     1       5.797   3.568  13.172  0.00  0.00    +0.000 A 
ATOM     31  C   UNL     1       6.025   3.840  14.522  0.00  0.00    +0.000 A 
ENDBRANCH  25  26
ENDBRANCH  20  21
ENDBRANCH  19  20
ENDBRANCH  18  19
ENDBRANCH  17  18
ENDBRANCH   1  17
TORSDOF 14
ENDMDL
MODEL 9
REMARK VINA RESULT:      -6.8      1.057      2.253
REMARK  Name = 
REMARK  14 active torsions:
REMARK  status: ('A' for Active; 'I' for Inactive)
REMARK    1  A    between atoms: P_2  and  O_3
REMARK    2  A    between atoms: P_2  and  O_4
REMARK    3  A    between atoms: P_2  and  C_5
REMARK    4  A    between atoms: C_5  and  O_6
REMARK    5  A    between atoms: C_5  and  C_7
REMARK    6  A    between atoms: C_5  and  P_23
REMARK    7  A    between atoms: C_7  and  C_8
REMARK    8  A    between atoms: C_8  and  C_9
REMARK    9  A    between atoms: C_9  and  C_10
REMARK   10  A    between atoms: C_10  and  O_11
REMARK   11  A    between atoms: O_11  and  C_12
REMARK   12  A    between atoms: C_16  and  C_17
REMARK   13  A    between atoms: P_23  and  O_25
REMARK   14  A    between atoms: P_23  and  O_26
REMARK                            x       y       z     vdW  Elec       q    Type
REMARK                         _______ _______ _______ _____ _____    ______ ____
ROOT
ATOM      1  C   UNL     1       2.706   5.246  18.894  0.00  0.00    +0.000 C 
ENDROOT
BRANCH   1   2
ATOM      2  C   UNL     1       2.134   3.799  18.952  0.00  0.00    +0.000 C 
BRANCH   2   4
ATOM      3  O   UNL     1       1.431   2.699  22.068  0.00  0.00    +0.000 OA
ATOM      4  P   UNL     1       1.754   3.203  20.640  0.00  0.00    +0.000 P 
BRANCH   4   5
ATOM      5  O   UNL     1       0.235   3.867  20.529  0.00  0.00    +0.000 OA
ATOM      6  H   UNL     1      -0.373   3.114  20.353  0.00  0.00    +0.000 HD
ENDBRANCH   4   5
BRANCH   4   7
ATOM      7  O   UNL     1       2.418   4.552  21.310  0.00  0.00    +0.000 OA
ATOM      8  H   UNL     1       1.941   4.714  22.151  0.00  0.00    +0.000 HD
ENDBRANCH   4   7
ENDBRANCH   2   4
BRANCH   2   9
ATOM      9  O   UNL     1       0.915   3.773  18.127  0.00  0.00    +0.000 OA
ATOM     10  H   UNL     1       0.735   4.730  17.959  0.00  0.00    +0.000 HD
ENDBRANCH   2   9
BRANCH   2  11
ATOM     11  P   UNL     1       3.356   2.682  18.172  0.00  0.00    +0.000 P 
ATOM     12  O   UNL     1       3.948   2.303  19.530  0.00  0.00    +0.000 OA
BRANCH  11  13
ATOM     13  O   UNL     1       2.220   1.540  17.852  0.00  0.00    +0.000 OA
ATOM     14  H   UNL     1       2.642   0.648  17.813  0.00  0.00    +0.000 HD
ENDBRANCH  11  13
BRANCH  11  15
ATOM     15  O   UNL     1       4.511   1.627  17.434  0.00  0.00    +0.000 OA
ATOM     16  H   UNL     1       4.581   0.862  18.042  0.00  0.00    +0.000 HD
ENDBRANCH  11  15
ENDBRANCH   2  11
ENDBRANCH   1   2
BRANCH   1  17
ATOM     17  C   UNL     1       3.867   5.437  17.925  0.00  0.00    +0.000 C 
BRANCH  17  18
ATOM     18  C   UNL     1       3.972   6.877  17.419  0.00  0.00    +0.000 C 
BRANCH  18  19
ATOM     19  C   UNL     1       4.922   6.906  16.227  0.00  0.00    +0.000 C 
BRANCH  19  20
ATOM     20  O   UNL     1       6.247   7.225  16.650  0.00  0.00    +0.000 OA
BRANCH  20  21
ATOM     21  C   UNL     1       6.938   6.123  17.041  0.00  0.00    +0.000 A 
ATOM     22  N   UNL     1       7.365   6.003  18.299  0.00  0.00    +0.000 NA
ATOM     23  O   UNL     1       8.029   4.782  18.321  0.00  0.00    +0.000 OA
ATOM     24  N   UNL     1       8.000   4.172  17.076  0.00  0.00    +0.000 NA
ATOM     25  C   UNL     1       7.301   4.997  16.278  0.00  0.00    +0.000 A 
BRANCH  25  26
ATOM     26  C   UNL     1       7.067   4.690  14.874  0.00  0.00    +0.000 A 
ATOM     27  C   UNL     1       6.088   3.767  14.486  0.00  0.00    +0.000 A 
ATOM     28  C   UNL     1       5.877   3.485  13.133  0.00  0.00    +0.000 A 
ATOM     29  C   UNL     1       6.637   4.127  12.157  0.00  0.00    +0.000 A 
ATOM     30  C   UNL     1       7.614   5.046  12.530  0.00  0.00    +0.000 A 
ATOM     31  C   UNL     1       7.830   5.323  13.880  0.00  0.00    +0.000 A 
ENDBRANCH  25  26
ENDBRANCH  20  21
ENDBRANCH  19  20
ENDBRANCH  18  19
ENDBRANCH  17  18
ENDBRANCH   1  17
TORSDOF 14
ENDMDL
