MODEL 1
REMARK VINA RESULT:      -5.7      0.000      0.000
REMARK  Name = 
REMARK  3 active torsions:
REMARK  status: ('A' for Active; 'I' for Inactive)
REMARK    1  A    between atoms: C_1  and  C_2
REMARK    2  A    between atoms: N_4  and  C_5
REMARK    3  A    between atoms: C_8  and  C_9
REMARK                            x       y       z     vdW  Elec       q    Type
REMARK                         _______ _______ _______ _____ _____    ______ ____
ROOT
ATOM      1  C   UNL     1       4.713   5.916  17.029  0.00  0.00    +0.000 A 
ATOM      2  C   UNL     1       3.610   6.370  17.753  0.00  0.00    +0.000 A 
ATOM      3  C   UNL     1       2.582   5.514  18.137  0.00  0.00    +0.000 A 
ATOM      4  C   UNL     1       2.648   4.164  17.790  0.00  0.00    +0.000 A 
ATOM      5  C   UNL     1       3.717   3.682  17.031  0.00  0.00    +0.000 A 
ATOM      6  C   UNL     1       4.751   4.544  16.638  0.00  0.00    +0.000 A 
ENDROOT
BRANCH   1  10
ATOM      7  C   UNL     1       7.570   5.992  18.739  0.00  0.00    +0.000 C 
ATOM      8  C   UNL     1       7.052   6.905  17.454  0.00  0.00    +0.000 C 
ATOM      9  N   UNL     1       7.763   7.924  17.109  0.00  0.00    +0.000 NA
ATOM     10  N   UNL     1       5.757   6.855  16.696  0.00  0.00    +0.000 N 
ATOM     11  H   UNL     1       8.637   8.301  17.472  0.00  0.00    +0.000 HD
ATOM     12  H   UNL     1       5.479   7.334  15.830  0.00  0.00    +0.000 HD
ENDBRANCH   1  10
BRANCH   4  13
ATOM     13  C   UNL     1       1.632   3.271  18.269  0.00  0.00    +0.000 C 
ATOM     14  N   UNL     1       0.817   2.570  18.683  0.00  0.00    +0.000 NA
ENDBRANCH   4  13
TORSDOF 2
ENDMDL
MODEL 2
REMARK VINA RESULT:      -5.6      0.224      1.414
REMARK  Name = 
REMARK  3 active torsions:
REMARK  status: ('A' for Active; 'I' for Inactive)
REMARK    1  A    between atoms: C_1  and  C_2
REMARK    2  A    between atoms: N_4  and  C_5
REMARK    3  A    between atoms: C_8  and  C_9
REMARK                            x       y       z     vdW  Elec       q    Type
REMARK                         _______ _______ _______ _____ _____    ______ ____
ROOT
ATOM      1  C   UNL     1       4.625   5.918  17.271  0.00  0.00    +0.000 A 
ATOM      2  C   UNL     1       4.666   4.596  16.827  0.00  0.00    +0.000 A 
ATOM      3  C   UNL     1       3.676   3.679  17.164  0.00  0.00    +0.000 A 
ATOM      4  C   UNL     1       2.612   4.083  17.970  0.00  0.00    +0.000 A 
ATOM      5  C   UNL     1       2.559   5.388  18.466  0.00  0.00    +0.000 A 
ATOM      6  C   UNL     1       3.558   6.313  18.133  0.00  0.00    +0.000 A 
ENDROOT
BRANCH   1  10
ATOM      7  C   UNL     1       7.590   5.950  18.789  0.00  0.00    +0.000 C 
ATOM      8  C   UNL     1       7.012   6.852  17.522  0.00  0.00    +0.000 C 
ATOM      9  N   UNL     1       7.725   7.845  17.111  0.00  0.00    +0.000 NA
ATOM     10  N   UNL     1       5.669   6.822  16.852  0.00  0.00    +0.000 N 
ATOM     11  H   UNL     1       8.631   8.205  17.408  0.00  0.00    +0.000 HD
ATOM     12  H   UNL     1       5.347   7.293  15.997  0.00  0.00    +0.000 HD
ENDBRANCH   1  10
BRANCH   4  13
ATOM     13  C   UNL     1       1.548   3.158  18.236  0.00  0.00    +0.000 C 
ATOM     14  N   UNL     1       0.683   2.435  18.477  0.00  0.00    +0.000 NA
ENDBRANCH   4  13
TORSDOF 2
ENDMDL
MODEL 3
REMARK VINA RESULT:      -5.6      1.554      5.489
REMARK  Name = 
REMARK  3 active torsions:
REMARK  status: ('A' for Active; 'I' for Inactive)
REMARK    1  A    between atoms: C_1  and  C_2
REMARK    2  A    between atoms: N_4  and  C_5
REMARK    3  A    between atoms: C_8  and  C_9
REMARK                            x       y       z     vdW  Elec       q    Type
REMARK                         _______ _______ _______ _____ _____    ______ ____
ROOT
ATOM      1  C   UNL     1       4.957   3.987  17.505  0.00  0.00    +0.000 A 
ATOM      2  C   UNL     1       5.668   4.421  18.624  0.00  0.00    +0.000 A 
ATOM      3  C   UNL     1       6.448   5.573  18.596  0.00  0.00    +0.000 A 
ATOM      4  C   UNL     1       6.528   6.318  17.420  0.00  0.00    +0.000 A 
ATOM      5  C   UNL     1       5.861   5.892  16.268  0.00  0.00    +0.000 A 
ATOM      6  C   UNL     1       5.080   4.729  16.292  0.00  0.00    +0.000 A 
ENDROOT
BRANCH   1  10
ATOM      7  C   UNL     1       1.644   4.198  17.780  0.00  0.00    +0.000 C 
ATOM      8  C   UNL     1       2.646   2.875  17.744  0.00  0.00    +0.000 C 
ATOM      9  N   UNL     1       2.136   1.721  18.009  0.00  0.00    +0.000 NA
ATOM     10  N   UNL     1       4.140   2.802  17.619  0.00  0.00    +0.000 N 
ATOM     11  H   UNL     1       1.186   1.430  18.236  0.00  0.00    +0.000 HD
ATOM     12  H   UNL     1       4.752   1.989  17.478  0.00  0.00    +0.000 HD
ENDBRANCH   1  10
BRANCH   4  13
ATOM     13  C   UNL     1       7.259   7.553  17.425  0.00  0.00    +0.000 C 
ATOM     14  N   UNL     1       7.874   8.527  17.435  0.00  0.00    +0.000 NA
ENDBRANCH   4  13
TORSDOF 2
ENDMDL
MODEL 4
REMARK VINA RESULT:      -5.6      1.275      5.469
REMARK  Name = 
REMARK  3 active torsions:
REMARK  status: ('A' for Active; 'I' for Inactive)
REMARK    1  A    between atoms: C_1  and  C_2
REMARK    2  A    between atoms: N_4  and  C_5
REMARK    3  A    between atoms: C_8  and  C_9
REMARK                            x       y       z     vdW  Elec       q    Type
REMARK                         _______ _______ _______ _____ _____    ______ ____
ROOT
ATOM      1  C   UNL     1       2.676   4.526  17.840  0.00  0.00    +0.000 A 
ATOM      2  C   UNL     1       3.664   3.757  17.223  0.00  0.00    +0.000 A 
ATOM      3  C   UNL     1       4.885   4.302  16.840  0.00  0.00    +0.000 A 
ATOM      4  C   UNL     1       5.136   5.654  17.073  0.00  0.00    +0.000 A 
ATOM      5  C   UNL     1       4.156   6.464  17.653  0.00  0.00    +0.000 A 
ATOM      6  C   UNL     1       2.922   5.919  18.034  0.00  0.00    +0.000 A 
ENDROOT
BRANCH   1  10
ATOM      7  C   UNL     1       2.032   3.892  21.046  0.00  0.00    +0.000 C 
ATOM      8  C   UNL     1       1.138   3.589  19.681  0.00  0.00    +0.000 C 
ATOM      9  N   UNL     1       0.081   2.861  19.799  0.00  0.00    +0.000 NA
ATOM     10  N   UNL     1       1.448   3.884  18.242  0.00  0.00    +0.000 N 
ATOM     11  H   UNL     1      -0.356   2.416  20.605  0.00  0.00    +0.000 HD
ATOM     12  H   UNL     1       0.851   3.807  17.409  0.00  0.00    +0.000 HD
ENDBRANCH   1  10
BRANCH   4  13
ATOM     13  C   UNL     1       6.431   6.187  16.761  0.00  0.00    +0.000 C 
ATOM     14  N   UNL     1       7.461   6.620  16.477  0.00  0.00    +0.000 NA
ENDBRANCH   4  13
TORSDOF 2
ENDMDL
MODEL 5
REMARK VINA RESULT:      -5.6      2.104      5.439
REMARK  Name = 
REMARK  3 active torsions:
REMARK  status: ('A' for Active; 'I' for Inactive)
REMARK    1  A    between atoms: C_1  and  C_2
REMARK    2  A    between atoms: N_4  and  C_5
REMARK    3  A    between atoms: C_8  and  C_9
REMARK                            x       y       z     vdW  Elec       q    Type
REMARK                         _______ _______ _______ _____ _____    ______ ____
ROOT
ATOM      1  C   UNL     1       3.674   3.425  18.704  0.00  0.00    +0.000 A 
ATOM      2  C   UNL     1       3.492   3.501  17.322  0.00  0.00    +0.000 A 
ATOM      3  C   UNL     1       4.463   4.042  16.484  0.00  0.00    +0.000 A 
ATOM      4  C   UNL     1       5.650   4.526  17.033  0.00  0.00    +0.000 A 
ATOM      5  C   UNL     1       5.849   4.503  18.415  0.00  0.00    +0.000 A 
ATOM      6  C   UNL     1       4.872   3.964  19.263  0.00  0.00    +0.000 A 
ENDROOT
BRANCH   1  10
ATOM      7  C   UNL     1       1.647   5.277  20.589  0.00  0.00    +0.000 C 
ATOM      8  C   UNL     1       1.715   3.634  20.362  0.00  0.00    +0.000 C 
ATOM      9  N   UNL     1       0.989   2.887  21.122  0.00  0.00    +0.000 NA
ATOM     10  N   UNL     1       2.639   2.818  19.506  0.00  0.00    +0.000 N 
ATOM     11  H   UNL     1       0.332   3.107  21.870  0.00  0.00    +0.000 HD
ATOM     12  H   UNL     1       2.611   1.818  19.271  0.00  0.00    +0.000 HD
ENDBRANCH   1  10
BRANCH   4  13
ATOM     13  C   UNL     1       6.683   4.997  16.155  0.00  0.00    +0.000 C 
ATOM     14  N   UNL     1       7.491   5.399  15.437  0.00  0.00    +0.000 NA
ENDBRANCH   4  13
TORSDOF 2
ENDMDL
MODEL 6
REMARK VINA RESULT:      -5.5      1.950      5.412
REMARK  Name = 
REMARK  3 active torsions:
REMARK  status: ('A' for Active; 'I' for Inactive)
REMARK    1  A    between atoms: C_1  and  C_2
REMARK    2  A    between atoms: N_4  and  C_5
REMARK    3  A    between atoms: C_8  and  C_9
REMARK                            x       y       z     vdW  Elec       q    Type
REMARK                         _______ _______ _______ _____ _____    ______ ____
ROOT
ATOM      1  C   UNL     1       3.594   3.358  18.677  0.00  0.00    +0.000 A 
ATOM      2  C   UNL     1       4.768   3.824  19.272  0.00  0.00    +0.000 A 
ATOM      3  C   UNL     1       5.773   4.434  18.529  0.00  0.00    +0.000 A 
ATOM      4  C   UNL     1       5.614   4.586  17.152  0.00  0.00    +0.000 A 
ATOM      5  C   UNL     1       4.470   4.095  16.516  0.00  0.00    +0.000 A 
ATOM      6  C   UNL     1       3.458   3.475  17.261  0.00  0.00    +0.000 A 
ENDROOT
BRANCH   1  10
ATOM      7  C   UNL     1       1.631   5.246  20.593  0.00  0.00    +0.000 C 
ATOM      8  C   UNL     1       1.684   3.600  20.387  0.00  0.00    +0.000 C 
ATOM      9  N   UNL     1       0.977   2.867  21.177  0.00  0.00    +0.000 NA
ATOM     10  N   UNL     1       2.580   2.767  19.516  0.00  0.00    +0.000 N 
ATOM     11  H   UNL     1       0.343   3.100  21.940  0.00  0.00    +0.000 HD
ATOM     12  H   UNL     1       2.540   1.764  19.296  0.00  0.00    +0.000 HD
ENDBRANCH   1  10
BRANCH   4  13
ATOM     13  C   UNL     1       6.612   5.298  16.408  0.00  0.00    +0.000 C 
ATOM     14  N   UNL     1       7.439   5.855  15.828  0.00  0.00    +0.000 NA
ENDBRANCH   4  13
TORSDOF 2
ENDMDL
MODEL 7
REMARK VINA RESULT:      -5.5      1.582      5.533
REMARK  Name = 
REMARK  3 active torsions:
REMARK  status: ('A' for Active; 'I' for Inactive)
REMARK    1  A    between atoms: C_1  and  C_2
REMARK    2  A    between atoms: N_4  and  C_5
REMARK    3  A    between atoms: C_8  and  C_9
REMARK                            x       y       z     vdW  Elec       q    Type
REMARK                         _______ _______ _______ _____ _____    ______ ____
ROOT
ATOM      1  C   UNL     1       4.969   4.091  17.656  0.00  0.00    +0.000 A 
ATOM      2  C   UNL     1       4.992   4.894  16.515  0.00  0.00    +0.000 A 
ATOM      3  C   UNL     1       5.743   6.063  16.457  0.00  0.00    +0.000 A 
ATOM      4  C   UNL     1       6.494   6.452  17.566  0.00  0.00    +0.000 A 
ATOM      5  C   UNL     1       6.463   5.694  18.740  0.00  0.00    +0.000 A 
ATOM      6  C   UNL     1       5.703   4.518  18.803  0.00  0.00    +0.000 A 
ENDROOT
BRANCH   1  10
ATOM      7  C   UNL     1       1.646   4.157  17.874  0.00  0.00    +0.000 C 
ATOM      8  C   UNL     1       2.697   2.881  17.727  0.00  0.00    +0.000 C 
ATOM      9  N   UNL     1       2.224   1.689  17.861  0.00  0.00    +0.000 NA
ATOM     10  N   UNL     1       4.195   2.873  17.631  0.00  0.00    +0.000 N 
ATOM     11  H   UNL     1       1.282   1.343  18.036  0.00  0.00    +0.000 HD
ATOM     12  H   UNL     1       4.839   2.100  17.422  0.00  0.00    +0.000 HD
ENDBRANCH   1  10
BRANCH   4  13
ATOM     13  C   UNL     1       7.338   7.608  17.467  0.00  0.00    +0.000 C 
ATOM     14  N   UNL     1       7.996   8.553  17.412  0.00  0.00    +0.000 NA
ENDBRANCH   4  13
TORSDOF 2
ENDMDL
MODEL 8
REMARK VINA RESULT:      -5.5      2.962      4.788
REMARK  Name = 
REMARK  3 active torsions:
REMARK  status: ('A' for Active; 'I' for Inactive)
REMARK    1  A    between atoms: C_1  and  C_2
REMARK    2  A    between atoms: N_4  and  C_5
REMARK    3  A    between atoms: C_8  and  C_9
REMARK                            x       y       z     vdW  Elec       q    Type
REMARK                         _______ _______ _______ _____ _____    ______ ____
ROOT
ATOM      1  C   UNL     1       4.244   4.984  19.064  0.00  0.00    +0.000 A 
ATOM      2  C   UNL     1       4.623   5.650  17.898  0.00  0.00    +0.000 A 
ATOM      3  C   UNL     1       3.991   6.818  17.482  0.00  0.00    +0.000 A 
ATOM      4  C   UNL     1       2.946   7.341  18.243  0.00  0.00    +0.000 A 
ATOM      5  C   UNL     1       2.513   6.679  19.395  0.00  0.00    +0.000 A 
ATOM      6  C   UNL     1       3.144   5.500  19.814  0.00  0.00    +0.000 A 
ENDROOT
BRANCH   1  10
ATOM      7  C   UNL     1       2.805   1.981  18.986  0.00  0.00    +0.000 C 
ATOM      8  C   UNL     1       4.340   2.436  19.424  0.00  0.00    +0.000 C 
ATOM      9  N   UNL     1       5.100   1.551  19.971  0.00  0.00    +0.000 NA
ATOM     10  N   UNL     1       4.969   3.798  19.452  0.00  0.00    +0.000 N 
ATOM     11  H   UNL     1       4.954   0.567  20.193  0.00  0.00    +0.000 HD
ATOM     12  H   UNL     1       5.948   4.071  19.608  0.00  0.00    +0.000 HD
ENDBRANCH   1  10
BRANCH   4  13
ATOM     13  C   UNL     1       2.361   8.593  17.858  0.00  0.00    +0.000 C 
ATOM     14  N   UNL     1       1.873   9.583  17.524  0.00  0.00    +0.000 NA
ENDBRANCH   4  13
TORSDOF 2
ENDMDL
MODEL 9
REMARK VINA RESULT:      -5.5      1.274      5.325
REMARK  Name = 
REMARK  3 active torsions:
REMARK  status: ('A' for Active; 'I' for Inactive)
REMARK    1  A    between atoms: C_1  and  C_2
REMARK    2  A    between atoms: N_4  and  C_5
REMARK    3  A    between atoms: C_8  and  C_9
REMARK                            x       y       z     vdW  Elec       q    Type
REMARK                         _______ _______ _______ _____ _____    ______ ____
ROOT
ATOM      1  C   UNL     1       2.794   4.322  17.868  0.00  0.00    +0.000 A 
ATOM      2  C   UNL     1       3.033   5.684  18.059  0.00  0.00    +0.000 A 
ATOM      3  C   UNL     1       4.246   6.271  17.712  0.00  0.00    +0.000 A 
ATOM      4  C   UNL     1       5.257   5.483  17.163  0.00  0.00    +0.000 A 
ATOM      5  C   UNL     1       5.068   4.109  16.995  0.00  0.00    +0.000 A 
ATOM      6  C   UNL     1       3.850   3.513  17.348  0.00  0.00    +0.000 A 
ENDROOT
BRANCH   1  10
ATOM      7  C   UNL     1       2.030   3.584  21.025  0.00  0.00    +0.000 C 
ATOM      8  C   UNL     1       1.135   3.451  19.634  0.00  0.00    +0.000 C 
ATOM      9  N   UNL     1       0.005   2.832  19.698  0.00  0.00    +0.000 NA
ATOM     10  N   UNL     1       1.499   3.790  18.218  0.00  0.00    +0.000 N 
ATOM     11  H   UNL     1      -0.490   2.391  20.472  0.00  0.00    +0.000 HD
ATOM     12  H   UNL     1       0.913   3.821  17.374  0.00  0.00    +0.000 HD
ENDBRANCH   1  10
BRANCH   4  13
ATOM     13  C   UNL     1       6.470   6.111  16.723  0.00  0.00    +0.000 C 
ATOM     14  N   UNL     1       7.450   6.627  16.402  0.00  0.00    +0.000 NA
ENDBRANCH   4  13
TORSDOF 2
ENDMDL
