MODEL 1
REMARK VINA RESULT:      -6.8      0.000      0.000
REMARK  Name = 
REMARK  5 active torsions:
REMARK  status: ('A' for Active; 'I' for Inactive)
REMARK    1  A    between atoms: C_1  and  C_2
REMARK    2  A    between atoms: C_2  and  C_3
REMARK    3  A    between atoms: C_2  and  C_4
REMARK    4  A    between atoms: C_2  and  N_5
REMARK    5  A    between atoms: C_19  and  C_20
REMARK                            x       y       z     vdW  Elec       q    Type
REMARK                         _______ _______ _______ _____ _____    ______ ____
ROOT
ATOM      1  N   UNL     1      -2.058  14.797  23.660  0.00  0.00    +0.000 N 
ATOM      2  C   UNL     1      -3.103  13.959  23.366  0.00  0.00    +0.000 C 
ATOM      3  O   UNL     1      -4.218  13.926  23.869  0.00  0.00    +0.000 OA
ATOM      4  C   UNL     1      -2.660  12.976  22.306  0.00  0.00    +0.000 C 
ATOM      5  C   UNL     1      -3.611  12.941  21.113  0.00  0.00    +0.000 C 
ATOM      6  C   UNL     1      -2.878  12.393  19.937  0.00  0.00    +0.000 A 
ATOM      7  C   UNL     1      -1.493  12.345  19.895  0.00  0.00    +0.000 A 
ATOM      8  N   UNL     1      -1.138  11.810  18.682  0.00  0.00    +0.000 N 
ATOM      9  C   UNL     1      -2.267  11.558  17.930  0.00  0.00    +0.000 A 
ATOM     10  C   UNL     1      -2.392  11.062  16.627  0.00  0.00    +0.000 A 
ATOM     11  C   UNL     1      -3.683  10.926  16.104  0.00  0.00    +0.000 A 
ATOM     12  C   UNL     1      -4.804  11.271  16.856  0.00  0.00    +0.000 A 
ATOM     13  C   UNL     1      -4.665  11.763  18.157  0.00  0.00    +0.000 A 
ATOM     14  C   UNL     1      -3.376  11.911  18.702  0.00  0.00    +0.000 A 
ATOM     15  C   UNL     1      -0.528  12.831  20.958  0.00  0.00    +0.000 C 
ATOM     16  N   UNL     1      -1.354  13.508  21.969  0.00  0.00    +0.000 N 
ATOM     17  C   UNL     1      -0.967  14.469  22.881  0.00  0.00    +0.000 C 
ATOM     18  O   UNL     1       0.151  14.954  22.959  0.00  0.00    +0.000 OA
ATOM     19  H   UNL     1      -0.191  11.673  18.353  0.00  0.00    +0.000 HD
ENDROOT
BRANCH  15  20
ATOM     20  C   UNL     1       0.562  13.704  20.360  0.00  0.00    +0.000 A 
ATOM     21  C   UNL     1       1.920  13.382  20.515  0.00  0.00    +0.000 A 
ATOM     22  C   UNL     1       2.912  14.183  19.946  0.00  0.00    +0.000 A 
ATOM     23  C   UNL     1       2.563  15.325  19.222  0.00  0.00    +0.000 A 
ATOM     24 CL   UNL     1       3.842  16.281  18.562  0.00  0.00    +0.000 Cl
ATOM     25  C   UNL     1       1.215  15.661  19.061  0.00  0.00    +0.000 A 
ATOM     26 CL   UNL     1       0.707  17.064  18.187  0.00  0.00    +0.000 Cl
ATOM     27  C   UNL     1       0.221  14.853  19.626  0.00  0.00    +0.000 A 
ENDBRANCH  15  20
BRANCH   1  29
ATOM     28  C   UNL     1      -1.178  17.117  24.167  0.00  0.00    +0.000 C 
ATOM     29  C   UNL     1      -2.069  15.939  24.615  0.00  0.00    +0.000 C 
ATOM     30  C   UNL     1      -1.541  15.477  25.990  0.00  0.00    +0.000 C 
ATOM     31  C   UNL     1      -3.500  16.487  24.777  0.00  0.00    +0.000 C 
ENDBRANCH   1  29
TORSDOF 2
ENDMDL
MODEL 2
REMARK VINA RESULT:      -6.6      2.810      6.338
REMARK  Name = 
REMARK  5 active torsions:
REMARK  status: ('A' for Active; 'I' for Inactive)
REMARK    1  A    between atoms: C_1  and  C_2
REMARK    2  A    between atoms: C_2  and  C_3
REMARK    3  A    between atoms: C_2  and  C_4
REMARK    4  A    between atoms: C_2  and  N_5
REMARK    5  A    between atoms: C_19  and  C_20
REMARK                            x       y       z     vdW  Elec       q    Type
REMARK                         _______ _______ _______ _____ _____    ______ ____
ROOT
ATOM      1  N   UNL     1      -4.664  11.974  18.958  0.00  0.00    +0.000 N 
ATOM      2  C   UNL     1      -3.599  11.554  18.202  0.00  0.00    +0.000 C 
ATOM      3  O   UNL     1      -3.597  11.150  17.047  0.00  0.00    +0.000 OA
ATOM      4  C   UNL     1      -2.348  11.604  19.048  0.00  0.00    +0.000 C 
ATOM      5  C   UNL     1      -1.224  12.388  18.376  0.00  0.00    +0.000 C 
ATOM      6  C   UNL     1      -0.265  12.837  19.425  0.00  0.00    +0.000 A 
ATOM      7  C   UNL     1      -0.611  12.868  20.767  0.00  0.00    +0.000 A 
ATOM      8  N   UNL     1       0.476  13.343  21.459  0.00  0.00    +0.000 N 
ATOM      9  C   UNL     1       1.491  13.660  20.581  0.00  0.00    +0.000 A 
ATOM     10  C   UNL     1       2.755  14.213  20.822  0.00  0.00    +0.000 A 
ATOM     11  C   UNL     1       3.583  14.448  19.719  0.00  0.00    +0.000 A 
ATOM     12  C   UNL     1       3.165  14.140  18.426  0.00  0.00    +0.000 A 
ATOM     13  C   UNL     1       1.902  13.585  18.200  0.00  0.00    +0.000 A 
ATOM     14  C   UNL     1       1.051  13.344  19.294  0.00  0.00    +0.000 A 
ATOM     15  C   UNL     1      -1.947  12.497  21.377  0.00  0.00    +0.000 C 
ATOM     16  N   UNL     1      -2.851  12.254  20.242  0.00  0.00    +0.000 N 
ATOM     17  C   UNL     1      -4.230  12.312  20.223  0.00  0.00    +0.000 C 
ATOM     18  O   UNL     1      -4.932  12.633  21.169  0.00  0.00    +0.000 OA
ATOM     19  H   UNL     1       0.517  13.499  22.458  0.00  0.00    +0.000 HD
ENDROOT
BRANCH  15  20
ATOM     20  C   UNL     1      -2.434  13.567  22.340  0.00  0.00    +0.000 A 
ATOM     21  C   UNL     1      -2.807  13.248  23.656  0.00  0.00    +0.000 A 
ATOM     22  C   UNL     1      -3.237  14.243  24.535  0.00  0.00    +0.000 A 
ATOM     23  C   UNL     1      -3.310  15.572  24.112  0.00  0.00    +0.000 A 
ATOM     24 CL   UNL     1      -3.867  16.748  25.248  0.00  0.00    +0.000 Cl
ATOM     25  C   UNL     1      -2.945  15.905  22.804  0.00  0.00    +0.000 A 
ATOM     26 CL   UNL     1      -3.017  17.526  22.206  0.00  0.00    +0.000 Cl
ATOM     27  C   UNL     1      -2.507  14.908  21.925  0.00  0.00    +0.000 A 
ENDBRANCH  15  20
BRANCH   1  29
ATOM     28  C   UNL     1      -6.894  13.098  19.382  0.00  0.00    +0.000 C 
ATOM     29  C   UNL     1      -6.075  12.122  18.509  0.00  0.00    +0.000 C 
ATOM     30  C   UNL     1      -6.792  10.756  18.575  0.00  0.00    +0.000 C 
ATOM     31  C   UNL     1      -6.124  12.654  17.064  0.00  0.00    +0.000 C 
ENDBRANCH   1  29
TORSDOF 2
ENDMDL
MODEL 3
REMARK VINA RESULT:      -6.5      7.192     10.533
REMARK  Name = 
REMARK  5 active torsions:
REMARK  status: ('A' for Active; 'I' for Inactive)
REMARK    1  A    between atoms: C_1  and  C_2
REMARK    2  A    between atoms: C_2  and  C_3
REMARK    3  A    between atoms: C_2  and  C_4
REMARK    4  A    between atoms: C_2  and  N_5
REMARK    5  A    between atoms: C_19  and  C_20
REMARK                            x       y       z     vdW  Elec       q    Type
REMARK                         _______ _______ _______ _____ _____    ______ ____
ROOT
ATOM      1  N   UNL     1       9.437  12.899  19.704  0.00  0.00    +0.000 N 
ATOM      2  C   UNL     1       8.882  13.841  18.875  0.00  0.00    +0.000 C 
ATOM      3  O   UNL     1       9.023  13.970  17.666  0.00  0.00    +0.000 OA
ATOM      4  C   UNL     1       8.057  14.799  19.703  0.00  0.00    +0.000 C 
ATOM      5  C   UNL     1       6.635  14.951  19.171  0.00  0.00    +0.000 C 
ATOM      6  C   UNL     1       5.767  15.452  20.274  0.00  0.00    +0.000 A 
ATOM      7  C   UNL     1       6.150  15.367  21.603  0.00  0.00    +0.000 A 
ATOM      8  N   UNL     1       5.130  15.892  22.358  0.00  0.00    +0.000 N 
ATOM      9  C   UNL     1       4.084  16.267  21.540  0.00  0.00    +0.000 A 
ATOM     10  C   UNL     1       2.831  16.802  21.864  0.00  0.00    +0.000 A 
ATOM     11  C   UNL     1       1.949  17.072  20.812  0.00  0.00    +0.000 A 
ATOM     12  C   UNL     1       2.307  16.821  19.489  0.00  0.00    +0.000 A 
ATOM     13  C   UNL     1       3.562  16.289  19.180  0.00  0.00    +0.000 A 
ATOM     14  C   UNL     1       4.464  16.006  20.222  0.00  0.00    +0.000 A 
ATOM     15  C   UNL     1       7.429  14.767  22.150  0.00  0.00    +0.000 C 
ATOM     16  N   UNL     1       8.106  14.151  20.999  0.00  0.00    +0.000 N 
ATOM     17  C   UNL     1       9.043  13.138  21.005  0.00  0.00    +0.000 C 
ATOM     18  O   UNL     1       9.433  12.546  21.999  0.00  0.00    +0.000 OA
ATOM     19  H   UNL     1       5.111  15.945  23.368  0.00  0.00    +0.000 HD
ENDROOT
BRANCH  15  20
ATOM     20  C   UNL     1       7.149  13.807  23.293  0.00  0.00    +0.000 A 
ATOM     21  C   UNL     1       6.354  12.665  23.107  0.00  0.00    +0.000 A 
ATOM     22  C   UNL     1       6.118  11.781  24.162  0.00  0.00    +0.000 A 
ATOM     23  C   UNL     1       6.664  12.030  25.423  0.00  0.00    +0.000 A 
ATOM     24 CL   UNL     1       6.316  10.905  26.687  0.00  0.00    +0.000 Cl
ATOM     25  C   UNL     1       7.456  13.165  25.625  0.00  0.00    +0.000 A 
ATOM     26 CL   UNL     1       8.159  13.544  27.159  0.00  0.00    +0.000 Cl
ATOM     27  C   UNL     1       7.698  14.047  24.565  0.00  0.00    +0.000 A 
ENDBRANCH  15  20
BRANCH   1  29
ATOM     28  C   UNL     1      10.583  11.702  17.789  0.00  0.00    +0.000 C 
ATOM     29  C   UNL     1      10.285  11.744  19.303  0.00  0.00    +0.000 C 
ATOM     30  C   UNL     1       9.567  10.422  19.653  0.00  0.00    +0.000 C 
ATOM     31  C   UNL     1      11.640  11.795  20.033  0.00  0.00    +0.000 C 
ENDBRANCH   1  29
TORSDOF 2
ENDMDL
MODEL 4
REMARK VINA RESULT:      -6.5      0.592      1.563
REMARK  Name = 
REMARK  5 active torsions:
REMARK  status: ('A' for Active; 'I' for Inactive)
REMARK    1  A    between atoms: C_1  and  C_2
REMARK    2  A    between atoms: C_2  and  C_3
REMARK    3  A    between atoms: C_2  and  C_4
REMARK    4  A    between atoms: C_2  and  N_5
REMARK    5  A    between atoms: C_19  and  C_20
REMARK                            x       y       z     vdW  Elec       q    Type
REMARK                         _______ _______ _______ _____ _____    ______ ____
ROOT
ATOM      1  N   UNL     1      -2.093  14.803  23.789  0.00  0.00    +0.000 N 
ATOM      2  C   UNL     1      -3.093  13.909  23.500  0.00  0.00    +0.000 C 
ATOM      3  O   UNL     1      -4.197  13.807  24.019  0.00  0.00    +0.000 OA
ATOM      4  C   UNL     1      -2.610  12.964  22.424  0.00  0.00    +0.000 C 
ATOM      5  C   UNL     1      -3.575  12.886  21.244  0.00  0.00    +0.000 C 
ATOM      6  C   UNL     1      -2.829  12.392  20.053  0.00  0.00    +0.000 A 
ATOM      7  C   UNL     1      -1.444  12.425  19.991  0.00  0.00    +0.000 A 
ATOM      8  N   UNL     1      -1.077  11.922  18.767  0.00  0.00    +0.000 N 
ATOM      9  C   UNL     1      -2.201  11.614  18.028  0.00  0.00    +0.000 A 
ATOM     10  C   UNL     1      -2.316  11.124  16.721  0.00  0.00    +0.000 A 
ATOM     11  C   UNL     1      -3.605  10.920  16.216  0.00  0.00    +0.000 A 
ATOM     12  C   UNL     1      -4.733  11.192  16.987  0.00  0.00    +0.000 A 
ATOM     13  C   UNL     1      -4.603  11.679  18.291  0.00  0.00    +0.000 A 
ATOM     14  C   UNL     1      -3.317  11.895  18.819  0.00  0.00    +0.000 A 
ATOM     15  C   UNL     1      -0.494  12.954  21.045  0.00  0.00    +0.000 C 
ATOM     16  N   UNL     1      -1.342  13.573  22.074  0.00  0.00    +0.000 N 
ATOM     17  C   UNL     1      -0.997  14.545  22.991  0.00  0.00    +0.000 C 
ATOM     18  O   UNL     1       0.093  15.092  23.059  0.00  0.00    +0.000 OA
ATOM     19  H   UNL     1      -0.129  11.843  18.423  0.00  0.00    +0.000 HD
ENDROOT
BRANCH  15  20
ATOM     20  C   UNL     1       0.537  13.894  20.442  0.00  0.00    +0.000 A 
ATOM     21  C   UNL     1       0.163  14.902  19.538  0.00  0.00    +0.000 A 
ATOM     22  C   UNL     1       1.118  15.770  19.005  0.00  0.00    +0.000 A 
ATOM     23  C   UNL     1       2.463  15.638  19.358  0.00  0.00    +0.000 A 
ATOM     24 CL   UNL     1       3.592  16.734  18.645  0.00  0.00    +0.000 Cl
ATOM     25  C   UNL     1       2.851  14.638  20.254  0.00  0.00    +0.000 A 
ATOM     26 CL   UNL     1       4.497  14.408  20.731  0.00  0.00    +0.000 Cl
ATOM     27  C   UNL     1       1.892  13.772  20.794  0.00  0.00    +0.000 A 
ENDBRANCH  15  20
BRANCH   1  29
ATOM     28  C   UNL     1      -3.594  16.276  25.200  0.00  0.00    +0.000 C 
ATOM     29  C   UNL     1      -2.156  15.933  24.756  0.00  0.00    +0.000 C 
ATOM     30  C   UNL     1      -1.571  17.207  24.110  0.00  0.00    +0.000 C 
ATOM     31  C   UNL     1      -1.355  15.593  26.027  0.00  0.00    +0.000 C 
ENDBRANCH   1  29
TORSDOF 2
ENDMDL
MODEL 5
REMARK VINA RESULT:      -6.4      3.161      5.746
REMARK  Name = 
REMARK  5 active torsions:
REMARK  status: ('A' for Active; 'I' for Inactive)
REMARK    1  A    between atoms: C_1  and  C_2
REMARK    2  A    between atoms: C_2  and  C_3
REMARK    3  A    between atoms: C_2  and  C_4
REMARK    4  A    between atoms: C_2  and  N_5
REMARK    5  A    between atoms: C_19  and  C_20
REMARK                            x       y       z     vdW  Elec       q    Type
REMARK                         _______ _______ _______ _____ _____    ______ ____
ROOT
ATOM      1  N   UNL     1      -0.386  16.262  20.169  0.00  0.00    +0.000 N 
ATOM      2  C   UNL     1      -1.007  16.779  21.277  0.00  0.00    +0.000 C 
ATOM      3  O   UNL     1      -1.010  17.934  21.680  0.00  0.00    +0.000 OA
ATOM      4  C   UNL     1      -1.693  15.657  22.023  0.00  0.00    +0.000 C 
ATOM      5  C   UNL     1      -3.163  15.956  22.298  0.00  0.00    +0.000 C 
ATOM      6  C   UNL     1      -3.874  14.668  22.536  0.00  0.00    +0.000 A 
ATOM      7  C   UNL     1      -3.334  13.452  22.146  0.00  0.00    +0.000 A 
ATOM      8  N   UNL     1      -4.236  12.475  22.487  0.00  0.00    +0.000 N 
ATOM      9  C   UNL     1      -5.361  13.047  23.044  0.00  0.00    +0.000 A 
ATOM     10  C   UNL     1      -6.548  12.454  23.495  0.00  0.00    +0.000 A 
ATOM     11  C   UNL     1      -7.543  13.297  24.003  0.00  0.00    +0.000 A 
ATOM     12  C   UNL     1      -7.357  14.677  24.061  0.00  0.00    +0.000 A 
ATOM     13  C   UNL     1      -6.167  15.255  23.610  0.00  0.00    +0.000 A 
ATOM     14  C   UNL     1      -5.155  14.427  23.092  0.00  0.00    +0.000 A 
ATOM     15  C   UNL     1      -2.018  13.222  21.432  0.00  0.00    +0.000 C 
ATOM     16  N   UNL     1      -1.507  14.559  21.094  0.00  0.00    +0.000 N 
ATOM     17  C   UNL     1      -0.609  14.902  20.104  0.00  0.00    +0.000 C 
ATOM     18  O   UNL     1      -0.120  14.126  19.298  0.00  0.00    +0.000 OA
ATOM     19  H   UNL     1      -4.130  11.485  22.307  0.00  0.00    +0.000 HD
ENDROOT
BRANCH  15  20
ATOM     20  C   UNL     1      -2.188  12.301  20.236  0.00  0.00    +0.000 A 
ATOM     21  C   UNL     1      -1.260  11.283  19.962  0.00  0.00    +0.000 A 
ATOM     22  C   UNL     1      -1.438  10.433  18.869  0.00  0.00    +0.000 A 
ATOM     23  C   UNL     1      -2.540  10.592  18.027  0.00  0.00    +0.000 A 
ATOM     24 CL   UNL     1      -2.687   9.516  16.683  0.00  0.00    +0.000 Cl
ATOM     25  C   UNL     1      -3.472  11.602  18.285  0.00  0.00    +0.000 A 
ATOM     26 CL   UNL     1      -4.856  11.866  17.282  0.00  0.00    +0.000 Cl
ATOM     27  C   UNL     1      -3.297  12.450  19.385  0.00  0.00    +0.000 A 
ENDBRANCH  15  20
BRANCH   1  29
ATOM     28  C   UNL     1       1.587  16.249  18.581  0.00  0.00    +0.000 C 
ATOM     29  C   UNL     1       0.368  17.019  19.133  0.00  0.00    +0.000 C 
ATOM     30  C   UNL     1       0.907  18.336  19.735  0.00  0.00    +0.000 C 
ATOM     31  C   UNL     1      -0.546  17.344  17.936  0.00  0.00    +0.000 C 
ENDBRANCH   1  29
TORSDOF 2
ENDMDL
MODEL 6
REMARK VINA RESULT:      -6.3      0.805      1.406
REMARK  Name = 
REMARK  5 active torsions:
REMARK  status: ('A' for Active; 'I' for Inactive)
REMARK    1  A    between atoms: C_1  and  C_2
REMARK    2  A    between atoms: C_2  and  C_3
REMARK    3  A    between atoms: C_2  and  C_4
REMARK    4  A    between atoms: C_2  and  N_5
REMARK    5  A    between atoms: C_19  and  C_20
REMARK                            x       y       z     vdW  Elec       q    Type
REMARK                         _______ _______ _______ _____ _____    ______ ____
ROOT
ATOM      1  N   UNL     1      -1.417  14.896  23.667  0.00  0.00    +0.000 N 
ATOM      2  C   UNL     1      -2.411  13.962  23.530  0.00  0.00    +0.000 C 
ATOM      3  O   UNL     1      -3.423  13.821  24.204  0.00  0.00    +0.000 OA
ATOM      4  C   UNL     1      -2.053  13.027  22.397  0.00  0.00    +0.000 C 
ATOM      5  C   UNL     1      -3.176  12.902  21.371  0.00  0.00    +0.000 C 
ATOM      6  C   UNL     1      -2.593  12.427  20.084  0.00  0.00    +0.000 A 
ATOM      7  C   UNL     1      -1.235  12.513  19.821  0.00  0.00    +0.000 A 
ATOM      8  N   UNL     1      -1.030  12.015  18.558  0.00  0.00    +0.000 N 
ATOM      9  C   UNL     1      -2.236  11.657  17.992  0.00  0.00    +0.000 A 
ATOM     10  C   UNL     1      -2.522  11.151  16.717  0.00  0.00    +0.000 A 
ATOM     11  C   UNL     1      -3.861  10.893  16.406  0.00  0.00    +0.000 A 
ATOM     12  C   UNL     1      -4.875  11.128  17.334  0.00  0.00    +0.000 A 
ATOM     13  C   UNL     1      -4.575  11.630  18.603  0.00  0.00    +0.000 A 
ATOM     14  C   UNL     1      -3.236  11.901  18.937  0.00  0.00    +0.000 A 
ATOM     15  C   UNL     1      -0.162  13.088  20.723  0.00  0.00    +0.000 C 
ATOM     16  N   UNL     1      -0.875  13.682  21.864  0.00  0.00    +0.000 N 
ATOM     17  C   UNL     1      -0.439  14.675  22.718  0.00  0.00    +0.000 C 
ATOM     18  O   UNL     1       0.626  15.265  22.624  0.00  0.00    +0.000 OA
ATOM     19  H   UNL     1      -0.140  11.969  18.079  0.00  0.00    +0.000 HD
ENDROOT
BRANCH  15  20
ATOM     20  C   UNL     1       0.731  14.062  19.973  0.00  0.00    +0.000 A 
ATOM     21  C   UNL     1       0.191  15.141  19.255  0.00  0.00    +0.000 A 
ATOM     22  C   UNL     1       1.024  16.039  18.584  0.00  0.00    +0.000 A 
ATOM     23  C   UNL     1       2.409  15.867  18.613  0.00  0.00    +0.000 A 
ATOM     24 CL   UNL     1       3.378  17.004  17.746  0.00  0.00    +0.000 Cl
ATOM     25  C   UNL     1       2.963  14.796  19.322  0.00  0.00    +0.000 A 
ATOM     26 CL   UNL     1       4.667  14.515  19.395  0.00  0.00    +0.000 Cl
ATOM     27  C   UNL     1       2.127  13.901  20.000  0.00  0.00    +0.000 A 
ENDBRANCH  15  20
BRANCH   1  29
ATOM     28  C   UNL     1      -0.051  16.812  24.604  0.00  0.00    +0.000 C 
ATOM     29  C   UNL     1      -1.382  16.031  24.629  0.00  0.00    +0.000 C 
ATOM     30  C   UNL     1      -1.563  15.502  26.068  0.00  0.00    +0.000 C 
ATOM     31  C   UNL     1      -2.506  17.036  24.311  0.00  0.00    +0.000 C 
ENDBRANCH   1  29
TORSDOF 2
ENDMDL
MODEL 7
REMARK VINA RESULT:      -6.3      3.355      4.867
REMARK  Name = 
REMARK  5 active torsions:
REMARK  status: ('A' for Active; 'I' for Inactive)
REMARK    1  A    between atoms: C_1  and  C_2
REMARK    2  A    between atoms: C_2  and  C_3
REMARK    3  A    between atoms: C_2  and  C_4
REMARK    4  A    between atoms: C_2  and  N_5
REMARK    5  A    between atoms: C_19  and  C_20
REMARK                            x       y       z     vdW  Elec       q    Type
REMARK                         _______ _______ _______ _____ _____    ______ ____
ROOT
ATOM      1  N   UNL     1       0.413  15.844  21.345  0.00  0.00    +0.000 N 
ATOM      2  C   UNL     1      -0.763  16.546  21.283  0.00  0.00    +0.000 C 
ATOM      3  O   UNL     1      -0.940  17.706  20.936  0.00  0.00    +0.000 OA
ATOM      4  C   UNL     1      -1.886  15.667  21.783  0.00  0.00    +0.000 C 
ATOM      5  C   UNL     1      -3.048  15.592  20.796  0.00  0.00    +0.000 C 
ATOM      6  C   UNL     1      -3.834  14.359  21.080  0.00  0.00    +0.000 A 
ATOM      7  C   UNL     1      -3.311  13.314  21.827  0.00  0.00    +0.000 A 
ATOM      8  N   UNL     1      -4.270  12.333  21.886  0.00  0.00    +0.000 N 
ATOM      9  C   UNL     1      -5.376  12.711  21.153  0.00  0.00    +0.000 A 
ATOM     10  C   UNL     1      -6.566  12.021  20.893  0.00  0.00    +0.000 A 
ATOM     11  C   UNL     1      -7.521  12.652  20.088  0.00  0.00    +0.000 A 
ATOM     12  C   UNL     1      -7.295  13.925  19.567  0.00  0.00    +0.000 A 
ATOM     13  C   UNL     1      -6.104  14.604  19.837  0.00  0.00    +0.000 A 
ATOM     14  C   UNL     1      -5.128  13.986  20.641  0.00  0.00    +0.000 A 
ATOM     15  C   UNL     1      -1.926  13.227  22.434  0.00  0.00    +0.000 C 
ATOM     16  N   UNL     1      -1.196  14.402  21.936  0.00  0.00    +0.000 N 
ATOM     17  C   UNL     1       0.169  14.574  21.826  0.00  0.00    +0.000 C 
ATOM     18  O   UNL     1       1.008  13.727  22.094  0.00  0.00    +0.000 OA
ATOM     19  H   UNL     1      -4.169  11.437  22.345  0.00  0.00    +0.000 HD
ENDROOT
BRANCH  15  20
ATOM     20  C   UNL     1      -1.261  11.900  22.113  0.00  0.00    +0.000 A 
ATOM     21  C   UNL     1      -0.931  10.985  23.126  0.00  0.00    +0.000 A 
ATOM     22  C   UNL     1      -0.336   9.761  22.814  0.00  0.00    +0.000 A 
ATOM     23  C   UNL     1      -0.051   9.436  21.486  0.00  0.00    +0.000 A 
ATOM     24 CL   UNL     1       0.704   7.913  21.176  0.00  0.00    +0.000 Cl
ATOM     25  C   UNL     1      -0.370  10.337  20.466  0.00  0.00    +0.000 A 
ATOM     26 CL   UNL     1      -0.040  10.008  18.801  0.00  0.00    +0.000 Cl
ATOM     27  C   UNL     1      -0.974  11.561  20.779  0.00  0.00    +0.000 A 
ENDBRANCH  15  20
BRANCH   1  29
ATOM     28  C   UNL     1       1.785  17.801  20.507  0.00  0.00    +0.000 C 
ATOM     29  C   UNL     1       1.758  16.311  20.911  0.00  0.00    +0.000 C 
ATOM     30  C   UNL     1       2.219  15.505  19.677  0.00  0.00    +0.000 C 
ATOM     31  C   UNL     1       2.781  16.130  22.049  0.00  0.00    +0.000 C 
ENDBRANCH   1  29
TORSDOF 2
ENDMDL
MODEL 8
REMARK VINA RESULT:      -6.3      3.176      5.418
REMARK  Name = 
REMARK  5 active torsions:
REMARK  status: ('A' for Active; 'I' for Inactive)
REMARK    1  A    between atoms: C_1  and  C_2
REMARK    2  A    between atoms: C_2  and  C_3
REMARK    3  A    between atoms: C_2  and  C_4
REMARK    4  A    between atoms: C_2  and  N_5
REMARK    5  A    between atoms: C_19  and  C_20
REMARK                            x       y       z     vdW  Elec       q    Type
REMARK                         _______ _______ _______ _____ _____    ______ ____
ROOT
ATOM      1  N   UNL     1       0.334  16.180  23.024  0.00  0.00    +0.000 N 
ATOM      2  C   UNL     1      -0.645  16.644  23.865  0.00  0.00    +0.000 C 
ATOM      3  O   UNL     1      -0.767  17.761  24.350  0.00  0.00    +0.000 OA
ATOM      4  C   UNL     1      -1.595  15.512  24.184  0.00  0.00    +0.000 C 
ATOM      5  C   UNL     1      -3.051  15.882  23.918  0.00  0.00    +0.000 C 
ATOM      6  C   UNL     1      -3.836  14.628  23.743  0.00  0.00    +0.000 A 
ATOM      7  C   UNL     1      -3.225  13.415  23.465  0.00  0.00    +0.000 A 
ATOM      8  N   UNL     1      -4.217  12.474  23.345  0.00  0.00    +0.000 N 
ATOM      9  C   UNL     1      -5.452  13.071  23.494  0.00  0.00    +0.000 A 
ATOM     10  C   UNL     1      -6.738  12.522  23.407  0.00  0.00    +0.000 A 
ATOM     11  C   UNL     1      -7.826  13.383  23.587  0.00  0.00    +0.000 A 
ATOM     12  C   UNL     1      -7.636  14.739  23.846  0.00  0.00    +0.000 A 
ATOM     13  C   UNL     1      -6.347  15.273  23.933  0.00  0.00    +0.000 A 
ATOM     14  C   UNL     1      -5.238  14.427  23.752  0.00  0.00    +0.000 A 
ATOM     15  C   UNL     1      -1.743  13.159  23.277  0.00  0.00    +0.000 C 
ATOM     16  N   UNL     1      -1.104  14.483  23.289  0.00  0.00    +0.000 N 
ATOM     17  C   UNL     1       0.112  14.847  22.745  0.00  0.00    +0.000 C 
ATOM     18  O   UNL     1       0.846  14.107  22.109  0.00  0.00    +0.000 OA
ATOM     19  H   UNL     1      -4.080  11.497  23.120  0.00  0.00    +0.000 HD
ENDROOT
BRANCH  15  20
ATOM     20  C   UNL     1      -1.475  12.350  22.019  0.00  0.00    +0.000 A 
ATOM     21  C   UNL     1      -1.964  12.763  20.769  0.00  0.00    +0.000 A 
ATOM     22  C   UNL     1      -1.695  12.020  19.618  0.00  0.00    +0.000 A 
ATOM     23  C   UNL     1      -0.942  10.847  19.699  0.00  0.00    +0.000 A 
ATOM     24 CL   UNL     1      -0.664   9.968  18.238  0.00  0.00    +0.000 Cl
ATOM     25  C   UNL     1      -0.450  10.421  20.936  0.00  0.00    +0.000 A 
ATOM     26 CL   UNL     1       0.483   8.976  21.116  0.00  0.00    +0.000 Cl
ATOM     27  C   UNL     1      -0.713  11.171  22.089  0.00  0.00    +0.000 A 
ENDBRANCH  15  20
BRANCH   1  29
ATOM     28  C   UNL     1       1.500  18.426  22.931  0.00  0.00    +0.000 C 
ATOM     29  C   UNL     1       1.446  16.968  22.427  0.00  0.00    +0.000 C 
ATOM     30  C   UNL     1       1.277  17.031  20.893  0.00  0.00    +0.000 C 
ATOM     31  C   UNL     1       2.802  16.319  22.763  0.00  0.00    +0.000 C 
ENDBRANCH   1  29
TORSDOF 2
ENDMDL
MODEL 9
REMARK VINA RESULT:      -6.2      7.347     10.438
REMARK  Name = 
REMARK  5 active torsions:
REMARK  status: ('A' for Active; 'I' for Inactive)
REMARK    1  A    between atoms: C_1  and  C_2
REMARK    2  A    between atoms: C_2  and  C_3
REMARK    3  A    between atoms: C_2  and  C_4
REMARK    4  A    between atoms: C_2  and  N_5
REMARK    5  A    between atoms: C_19  and  C_20
REMARK                            x       y       z     vdW  Elec       q    Type
REMARK                         _______ _______ _______ _____ _____    ______ ____
ROOT
ATOM      1  N   UNL     1       9.520  12.930  19.337  0.00  0.00    +0.000 N 
ATOM      2  C   UNL     1       9.015  13.667  18.296  0.00  0.00    +0.000 C 
ATOM      3  O   UNL     1       9.210  13.523  17.096  0.00  0.00    +0.000 OA
ATOM      4  C   UNL     1       8.173  14.791  18.853  0.00  0.00    +0.000 C 
ATOM      5  C   UNL     1       6.777  14.830  18.238  0.00  0.00    +0.000 C 
ATOM      6  C   UNL     1       5.872  15.570  19.162  0.00  0.00    +0.000 A 
ATOM      7  C   UNL     1       6.197  15.780  20.493  0.00  0.00    +0.000 A 
ATOM      8  N   UNL     1       5.156  16.467  21.066  0.00  0.00    +0.000 N 
ATOM      9  C   UNL     1       4.152  16.658  20.140  0.00  0.00    +0.000 A 
ATOM     10  C   UNL     1       2.895  17.260  20.281  0.00  0.00    +0.000 A 
ATOM     11  C   UNL     1       2.062  17.296  19.157  0.00  0.00    +0.000 A 
ATOM     12  C   UNL     1       2.471  16.754  17.940  0.00  0.00    +0.000 A 
ATOM     13  C   UNL     1       3.729  16.158  17.813  0.00  0.00    +0.000 A 
ATOM     14  C   UNL     1       4.582  16.107  18.931  0.00  0.00    +0.000 A 
ATOM     15  C   UNL     1       7.443  15.309  21.216  0.00  0.00    +0.000 C 
ATOM     16  N   UNL     1       8.157  14.447  20.262  0.00  0.00    +0.000 N 
ATOM     17  C   UNL     1       9.076  13.454  20.533  0.00  0.00    +0.000 C 
ATOM     18  O   UNL     1       9.414  13.096  21.651  0.00  0.00    +0.000 OA
ATOM     19  H   UNL     1       5.095  16.743  22.038  0.00  0.00    +0.000 HD
ENDROOT
BRANCH  15  20
ATOM     20  C   UNL     1       7.098  14.628  22.530  0.00  0.00    +0.000 A 
ATOM     21  C   UNL     1       6.231  13.525  22.574  0.00  0.00    +0.000 A 
ATOM     22  C   UNL     1       5.937  12.899  23.787  0.00  0.00    +0.000 A 
ATOM     23  C   UNL     1       6.497  13.371  24.976  0.00  0.00    +0.000 A 
ATOM     24 CL   UNL     1       6.074  12.559  26.441  0.00  0.00    +0.000 Cl
ATOM     25  C   UNL     1       7.360  14.470  24.949  0.00  0.00    +0.000 A 
ATOM     26 CL   UNL     1       8.083  15.117  26.380  0.00  0.00    +0.000 Cl
ATOM     27  C   UNL     1       7.660  15.094  23.732  0.00  0.00    +0.000 A 
ENDBRANCH  15  20
BRANCH   1  29
ATOM     28  C   UNL     1       9.647  10.430  19.726  0.00  0.00    +0.000 C 
ATOM     29  C   UNL     1      10.364  11.708  19.240  0.00  0.00    +0.000 C 
ATOM     30  C   UNL     1      11.625  11.872  20.117  0.00  0.00    +0.000 C 
ATOM     31  C   UNL     1      10.788  11.464  17.779  0.00  0.00    +0.000 C 
ENDBRANCH   1  29
TORSDOF 2
ENDMDL
