MODEL 1
REMARK VINA RESULT:      -7.9      0.000      0.000
REMARK  Name = 
REMARK  10 active torsions:
REMARK  status: ('A' for Active; 'I' for Inactive)
REMARK    1  A    between atoms: C_1  and  O_2
REMARK    2  A    between atoms: O_2  and  C_3
REMARK    3  A    between atoms: C_6  and  C_7
REMARK    4  A    between atoms: C_7  and  C_8
REMARK    5  A    between atoms: C_8  and  N_9
REMARK    6  A    between atoms: N_9  and  C_10
REMARK    7  A    between atoms: C_11  and  C_13
REMARK    8  A    between atoms: C_13  and  N_14
REMARK    9  A    between atoms: C_28  and  O_29
REMARK   10  A    between atoms: O_29  and  C_30
REMARK                            x       y       z     vdW  Elec       q    Type
REMARK                         _______ _______ _______ _____ _____    ______ ____
ROOT
ATOM      1  N   UNL     1       1.416   9.080  19.404  0.00  0.00    +0.000 N 
ATOM      2  C   UNL     1       0.791   9.184  20.714  0.00  0.00    +0.000 C 
ATOM      3  C   UNL     1       2.177   7.934  19.195  0.00  0.00    +0.000 C 
ATOM      4  O   UNL     1       2.420   7.156  20.124  0.00  0.00    +0.000 OA
ENDROOT
BRANCH   1   5
ATOM      5  C   UNL     1       1.059  10.034  18.346  0.00  0.00    +0.000 C 
BRANCH   5   6
ATOM      6  C   UNL     1       0.277  11.283  18.780  0.00  0.00    +0.000 C 
BRANCH   6  10
ATOM      7  C   UNL     1      -3.992  11.236  18.031  0.00  0.00    +0.000 A 
ATOM      8  C   UNL     1      -3.454  11.905  19.140  0.00  0.00    +0.000 A 
ATOM      9  C   UNL     1      -2.080  11.919  19.375  0.00  0.00    +0.000 A 
ATOM     10  C   UNL     1      -1.211  11.230  18.527  0.00  0.00    +0.000 A 
ATOM     11  C   UNL     1      -1.758  10.488  17.471  0.00  0.00    +0.000 A 
ATOM     12  C   UNL     1      -3.141  10.479  17.212  0.00  0.00    +0.000 A 
BRANCH   7  14
ATOM     13  C   UNL     1      -5.773  12.426  17.022  0.00  0.00    +0.000 C 
ATOM     14  O   UNL     1      -5.333  11.287  17.762  0.00  0.00    +0.000 OA
ENDBRANCH   7  14
BRANCH  12  15
ATOM     15  O   UNL     1      -3.457   9.704  16.126  0.00  0.00    +0.000 OA
ATOM     16  C   UNL     1      -3.282  10.240  14.823  0.00  0.00    +0.000 C 
ENDBRANCH  12  15
ENDBRANCH   6  10
ENDBRANCH   5   6
ENDBRANCH   1   5
BRANCH   3  17
ATOM     17  C   UNL     1       2.674   7.612  17.786  0.00  0.00    +0.000 C 
BRANCH  17  18
ATOM     18  N   UNL     1       3.378   6.350  17.729  0.00  0.00    +0.000 N 
ATOM     19  C   UNL     1       4.724   6.161  17.721  0.00  0.00    +0.000 C 
ATOM     20  O   UNL     1       5.597   7.006  17.585  0.00  0.00    +0.000 OA
ATOM     21  N   UNL     1       4.973   4.817  17.943  0.00  0.00    +0.000 N 
ATOM     22  C   UNL     1       3.770   4.112  18.380  0.00  0.00    +0.000 C 
ATOM     23  C   UNL     1       3.744   4.082  19.922  0.00  0.00    +0.000 C 
ATOM     24  C   UNL     1       2.403   3.710  20.549  0.00  0.00    +0.000 C 
ATOM     25  C   UNL     1       1.867   2.327  20.187  0.00  0.00    +0.000 C 
ATOM     26  C   UNL     1       1.309   2.203  18.775  0.00  0.00    +0.000 C 
ATOM     27  C   UNL     1       2.322   2.057  17.641  0.00  0.00    +0.000 C 
ATOM     28  C   UNL     1       3.697   2.711  17.778  0.00  0.00    +0.000 C 
ATOM     29  C   UNL     1       2.749   5.152  17.894  0.00  0.00    +0.000 C 
ATOM     30  O   UNL     1       1.543   4.990  17.812  0.00  0.00    +0.000 OA
ATOM     31  H   UNL     1       5.921   4.502  18.105  0.00  0.00    +0.000 HD
ENDBRANCH  17  18
ENDBRANCH   3  17
TORSDOF 7
ENDMDL
MODEL 2
REMARK VINA RESULT:      -7.9      2.412      4.196
REMARK  Name = 
REMARK  10 active torsions:
REMARK  status: ('A' for Active; 'I' for Inactive)
REMARK    1  A    between atoms: C_1  and  O_2
REMARK    2  A    between atoms: O_2  and  C_3
REMARK    3  A    between atoms: C_6  and  C_7
REMARK    4  A    between atoms: C_7  and  C_8
REMARK    5  A    between atoms: C_8  and  N_9
REMARK    6  A    between atoms: N_9  and  C_10
REMARK    7  A    between atoms: C_11  and  C_13
REMARK    8  A    between atoms: C_13  and  N_14
REMARK    9  A    between atoms: C_28  and  O_29
REMARK   10  A    between atoms: O_29  and  C_30
REMARK                            x       y       z     vdW  Elec       q    Type
REMARK                         _______ _______ _______ _____ _____    ______ ____
ROOT
ATOM      1  N   UNL     1       5.679   7.094  17.135  0.00  0.00    +0.000 N 
ATOM      2  C   UNL     1       6.739   8.048  17.430  0.00  0.00    +0.000 C 
ATOM      3  C   UNL     1       6.032   6.058  16.277  0.00  0.00    +0.000 C 
ATOM      4  O   UNL     1       7.122   6.059  15.694  0.00  0.00    +0.000 OA
ENDROOT
BRANCH   1   5
ATOM      5  C   UNL     1       4.418   7.147  17.886  0.00  0.00    +0.000 C 
BRANCH   5   6
ATOM      6  C   UNL     1       3.287   7.987  17.274  0.00  0.00    +0.000 C 
BRANCH   6  10
ATOM      7  C   UNL     1       0.405   9.474  20.150  0.00  0.00    +0.000 A 
ATOM      8  C   UNL     1       1.352   8.501  20.503  0.00  0.00    +0.000 A 
ATOM      9  C   UNL     1       2.277   8.028  19.574  0.00  0.00    +0.000 A 
ATOM     10  C   UNL     1       2.256   8.488  18.257  0.00  0.00    +0.000 A 
ATOM     11  C   UNL     1       1.252   9.393  17.883  0.00  0.00    +0.000 A 
ATOM     12  C   UNL     1       0.323   9.893  18.814  0.00  0.00    +0.000 A 
BRANCH   7  14
ATOM     13  C   UNL     1      -0.090   9.772  22.447  0.00  0.00    +0.000 C 
ATOM     14  O   UNL     1      -0.453   9.990  21.083  0.00  0.00    +0.000 OA
ENDBRANCH   7  14
BRANCH  12  15
ATOM     15  O   UNL     1      -0.557  10.775  18.241  0.00  0.00    +0.000 OA
ATOM     16  C   UNL     1      -1.709  10.270  17.584  0.00  0.00    +0.000 C 
ENDBRANCH  12  15
ENDBRANCH   6  10
ENDBRANCH   5   6
ENDBRANCH   1   5
BRANCH   3  17
ATOM     17  C   UNL     1       5.075   4.880  16.093  0.00  0.00    +0.000 C 
BRANCH  17  18
ATOM     18  N   UNL     1       4.969   4.069  17.285  0.00  0.00    +0.000 N 
ATOM     19  C   UNL     1       5.916   3.895  18.246  0.00  0.00    +0.000 C 
ATOM     20  O   UNL     1       7.088   4.240  18.212  0.00  0.00    +0.000 OA
ATOM     21  N   UNL     1       5.318   3.282  19.334  0.00  0.00    +0.000 N 
ATOM     22  C   UNL     1       3.862   3.278  19.218  0.00  0.00    +0.000 C 
ATOM     23  C   UNL     1       3.301   4.514  19.951  0.00  0.00    +0.000 C 
ATOM     24  C   UNL     1       1.849   4.863  19.632  0.00  0.00    +0.000 C 
ATOM     25  C   UNL     1       0.821   3.787  19.974  0.00  0.00    +0.000 C 
ATOM     26  C   UNL     1       0.803   2.592  19.029  0.00  0.00    +0.000 C 
ATOM     27  C   UNL     1       1.898   1.543  19.220  0.00  0.00    +0.000 C 
ATOM     28  C   UNL     1       3.265   1.976  19.749  0.00  0.00    +0.000 C 
ATOM     29  C   UNL     1       3.789   3.532  17.704  0.00  0.00    +0.000 C 
ATOM     30  O   UNL     1       2.795   3.422  17.005  0.00  0.00    +0.000 OA
ATOM     31  H   UNL     1       5.831   3.191  20.202  0.00  0.00    +0.000 HD
ENDBRANCH  17  18
ENDBRANCH   3  17
TORSDOF 7
ENDMDL
MODEL 3
REMARK VINA RESULT:      -7.7      2.608      9.607
REMARK  Name = 
REMARK  10 active torsions:
REMARK  status: ('A' for Active; 'I' for Inactive)
REMARK    1  A    between atoms: C_1  and  O_2
REMARK    2  A    between atoms: O_2  and  C_3
REMARK    3  A    between atoms: C_6  and  C_7
REMARK    4  A    between atoms: C_7  and  C_8
REMARK    5  A    between atoms: C_8  and  N_9
REMARK    6  A    between atoms: N_9  and  C_10
REMARK    7  A    between atoms: C_11  and  C_13
REMARK    8  A    between atoms: C_13  and  N_14
REMARK    9  A    between atoms: C_28  and  O_29
REMARK   10  A    between atoms: O_29  and  C_30
REMARK                            x       y       z     vdW  Elec       q    Type
REMARK                         _______ _______ _______ _____ _____    ______ ____
ROOT
ATOM      1  N   UNL     1       0.582  11.099  19.097  0.00  0.00    +0.000 N 
ATOM      2  C   UNL     1       1.695  12.034  19.009  0.00  0.00    +0.000 C 
ATOM      3  C   UNL     1      -0.683  11.665  18.971  0.00  0.00    +0.000 C 
ATOM      4  O   UNL     1      -0.830  12.892  18.948  0.00  0.00    +0.000 OA
ENDROOT
BRANCH   1   5
ATOM      5  C   UNL     1       0.840   9.654  19.100  0.00  0.00    +0.000 C 
BRANCH   5   6
ATOM      6  C   UNL     1       1.739   9.113  17.978  0.00  0.00    +0.000 C 
BRANCH   6  10
ATOM      7  C   UNL     1       3.986   5.540  18.967  0.00  0.00    +0.000 A 
ATOM      8  C   UNL     1       4.314   6.321  17.850  0.00  0.00    +0.000 A 
ATOM      9  C   UNL     1       3.589   7.470  17.538  0.00  0.00    +0.000 A 
ATOM     10  C   UNL     1       2.492   7.847  18.314  0.00  0.00    +0.000 A 
ATOM     11  C   UNL     1       2.110   7.016  19.376  0.00  0.00    +0.000 A 
ATOM     12  C   UNL     1       2.843   5.863  19.713  0.00  0.00    +0.000 A 
BRANCH   7  14
ATOM     13  C   UNL     1       4.420   3.233  18.647  0.00  0.00    +0.000 C 
ATOM     14  O   UNL     1       4.745   4.454  19.313  0.00  0.00    +0.000 OA
ENDBRANCH   7  14
BRANCH  12  15
ATOM     15  O   UNL     1       2.306   5.208  20.792  0.00  0.00    +0.000 OA
ATOM     16  C   UNL     1       1.175   4.373  20.597  0.00  0.00    +0.000 C 
ENDBRANCH  12  15
ENDBRANCH   6  10
ENDBRANCH   5   6
ENDBRANCH   1   5
BRANCH   3  17
ATOM     17  C   UNL     1      -1.898  10.753  18.811  0.00  0.00    +0.000 C 
BRANCH  17  18
ATOM     18  N   UNL     1      -3.004  11.422  18.163  0.00  0.00    +0.000 N 
ATOM     19  C   UNL     1      -3.292  11.433  16.834  0.00  0.00    +0.000 C 
ATOM     20  O   UNL     1      -2.592  11.036  15.914  0.00  0.00    +0.000 OA
ATOM     21  N   UNL     1      -4.569  11.943  16.673  0.00  0.00    +0.000 N 
ATOM     22  C   UNL     1      -5.277  12.036  17.948  0.00  0.00    +0.000 C 
ATOM     23  C   UNL     1      -6.109  10.752  18.149  0.00  0.00    +0.000 C 
ATOM     24  C   UNL     1      -6.621  10.517  19.568  0.00  0.00    +0.000 C 
ATOM     25  C   UNL     1      -7.548  11.596  20.122  0.00  0.00    +0.000 C 
ATOM     26  C   UNL     1      -6.858  12.894  20.522  0.00  0.00    +0.000 C 
ATOM     27  C   UNL     1      -6.485  13.856  19.395  0.00  0.00    +0.000 C 
ATOM     28  C   UNL     1      -6.139  13.294  18.016  0.00  0.00    +0.000 C 
ATOM     29  C   UNL     1      -4.042  11.965  18.860  0.00  0.00    +0.000 C 
ATOM     30  O   UNL     1      -4.018  12.207  20.056  0.00  0.00    +0.000 OA
ATOM     31  H   UNL     1      -5.014  11.906  15.765  0.00  0.00    +0.000 HD
ENDBRANCH  17  18
ENDBRANCH   3  17
TORSDOF 7
ENDMDL
MODEL 4
REMARK VINA RESULT:      -7.7      2.949      4.538
REMARK  Name = 
REMARK  10 active torsions:
REMARK  status: ('A' for Active; 'I' for Inactive)
REMARK    1  A    between atoms: C_1  and  O_2
REMARK    2  A    between atoms: O_2  and  C_3
REMARK    3  A    between atoms: C_6  and  C_7
REMARK    4  A    between atoms: C_7  and  C_8
REMARK    5  A    between atoms: C_8  and  N_9
REMARK    6  A    between atoms: N_9  and  C_10
REMARK    7  A    between atoms: C_11  and  C_13
REMARK    8  A    between atoms: C_13  and  N_14
REMARK    9  A    between atoms: C_28  and  O_29
REMARK   10  A    between atoms: O_29  and  C_30
REMARK                            x       y       z     vdW  Elec       q    Type
REMARK                         _______ _______ _______ _____ _____    ______ ____
ROOT
ATOM      1  N   UNL     1       5.951   7.119  17.228  0.00  0.00    +0.000 N 
ATOM      2  C   UNL     1       7.098   7.972  17.500  0.00  0.00    +0.000 C 
ATOM      3  C   UNL     1       6.167   6.106  16.298  0.00  0.00    +0.000 C 
ATOM      4  O   UNL     1       7.217   6.057  15.646  0.00  0.00    +0.000 OA
ENDROOT
BRANCH   1   5
ATOM      5  C   UNL     1       4.746   7.225  18.061  0.00  0.00    +0.000 C 
BRANCH   5   6
ATOM      6  C   UNL     1       3.437   7.573  17.336  0.00  0.00    +0.000 C 
BRANCH   6  10
ATOM      7  C   UNL     1       0.541   9.889  19.581  0.00  0.00    +0.000 A 
ATOM      8  C   UNL     1       0.939  10.273  18.293  0.00  0.00    +0.000 A 
ATOM      9  C   UNL     1       1.870   9.523  17.575  0.00  0.00    +0.000 A 
ATOM     10  C   UNL     1       2.455   8.390  18.143  0.00  0.00    +0.000 A 
ATOM     11  C   UNL     1       2.123   8.060  19.464  0.00  0.00    +0.000 A 
ATOM     12  C   UNL     1       1.172   8.797  20.194  0.00  0.00    +0.000 A 
BRANCH   7  14
ATOM     13  C   UNL     1      -0.339  12.008  20.169  0.00  0.00    +0.000 C 
ATOM     14  O   UNL     1      -0.427  10.586  20.254  0.00  0.00    +0.000 OA
ENDBRANCH   7  14
BRANCH  12  15
ATOM     15  O   UNL     1       0.988   8.292  21.456  0.00  0.00    +0.000 OA
ATOM     16  C   UNL     1       1.197   9.141  22.574  0.00  0.00    +0.000 C 
ENDBRANCH  12  15
ENDBRANCH   6  10
ENDBRANCH   5   6
ENDBRANCH   1   5
BRANCH   3  17
ATOM     17  C   UNL     1       5.112   5.016  16.119  0.00  0.00    +0.000 C 
BRANCH  17  18
ATOM     18  N   UNL     1       5.007   4.159  17.279  0.00  0.00    +0.000 N 
ATOM     19  C   UNL     1       5.961   3.936  18.222  0.00  0.00    +0.000 C 
ATOM     20  O   UNL     1       7.136   4.267  18.190  0.00  0.00    +0.000 OA
ATOM     21  N   UNL     1       5.366   3.287  19.292  0.00  0.00    +0.000 N 
ATOM     22  C   UNL     1       3.909   3.305  19.190  0.00  0.00    +0.000 C 
ATOM     23  C   UNL     1       3.370   4.517  19.977  0.00  0.00    +0.000 C 
ATOM     24  C   UNL     1       1.919   4.896  19.687  0.00  0.00    +0.000 C 
ATOM     25  C   UNL     1       0.882   3.820  19.996  0.00  0.00    +0.000 C 
ATOM     26  C   UNL     1       0.840   2.664  19.005  0.00  0.00    +0.000 C 
ATOM     27  C   UNL     1       1.924   1.595  19.143  0.00  0.00    +0.000 C 
ATOM     28  C   UNL     1       3.301   1.990  19.674  0.00  0.00    +0.000 C 
ATOM     29  C   UNL     1       3.824   3.620  17.688  0.00  0.00    +0.000 C 
ATOM     30  O   UNL     1       2.822   3.550  16.995  0.00  0.00    +0.000 OA
ATOM     31  H   UNL     1       5.885   3.155  20.150  0.00  0.00    +0.000 HD
ENDBRANCH  17  18
ENDBRANCH   3  17
TORSDOF 7
ENDMDL
MODEL 5
REMARK VINA RESULT:      -7.7      2.029      3.806
REMARK  Name = 
REMARK  10 active torsions:
REMARK  status: ('A' for Active; 'I' for Inactive)
REMARK    1  A    between atoms: C_1  and  O_2
REMARK    2  A    between atoms: O_2  and  C_3
REMARK    3  A    between atoms: C_6  and  C_7
REMARK    4  A    between atoms: C_7  and  C_8
REMARK    5  A    between atoms: C_8  and  N_9
REMARK    6  A    between atoms: N_9  and  C_10
REMARK    7  A    between atoms: C_11  and  C_13
REMARK    8  A    between atoms: C_13  and  N_14
REMARK    9  A    between atoms: C_28  and  O_29
REMARK   10  A    between atoms: O_29  and  C_30
REMARK                            x       y       z     vdW  Elec       q    Type
REMARK                         _______ _______ _______ _____ _____    ______ ____
ROOT
ATOM      1  N   UNL     1       1.736   7.715  19.959  0.00  0.00    +0.000 N 
ATOM      2  C   UNL     1       1.250   8.427  21.132  0.00  0.00    +0.000 C 
ATOM      3  C   UNL     1       1.922   6.346  20.128  0.00  0.00    +0.000 C 
ATOM      4  O   UNL     1       1.830   5.826  21.246  0.00  0.00    +0.000 OA
ENDROOT
BRANCH   1   5
ATOM      5  C   UNL     1       1.798   8.399  18.661  0.00  0.00    +0.000 C 
BRANCH   5   6
ATOM      6  C   UNL     1       1.670   9.930  18.683  0.00  0.00    +0.000 C 
BRANCH   6  10
ATOM      7  C   UNL     1      -2.409  11.359  18.365  0.00  0.00    +0.000 A 
ATOM      8  C   UNL     1      -1.977  10.227  17.660  0.00  0.00    +0.000 A 
ATOM      9  C   UNL     1      -0.664   9.771  17.767  0.00  0.00    +0.000 A 
ATOM     10  C   UNL     1       0.261  10.458  18.554  0.00  0.00    +0.000 A 
ATOM     11  C   UNL     1      -0.149  11.640  19.187  0.00  0.00    +0.000 A 
ATOM     12  C   UNL     1      -1.475  12.103  19.101  0.00  0.00    +0.000 A 
BRANCH   7  14
ATOM     13  C   UNL     1      -4.590  10.934  17.547  0.00  0.00    +0.000 C 
ATOM     14  O   UNL     1      -3.717  11.761  18.316  0.00  0.00    +0.000 OA
ENDBRANCH   7  14
BRANCH  12  15
ATOM     15  O   UNL     1      -1.661  13.264  19.807  0.00  0.00    +0.000 OA
ATOM     16  C   UNL     1      -0.690  14.293  19.707  0.00  0.00    +0.000 C 
ENDBRANCH  12  15
ENDBRANCH   6  10
ENDBRANCH   5   6
ENDBRANCH   1   5
BRANCH   3  17
ATOM     17  C   UNL     1       2.197   5.472  18.905  0.00  0.00    +0.000 C 
BRANCH  17  18
ATOM     18  N   UNL     1       3.510   4.867  18.947  0.00  0.00    +0.000 N 
ATOM     19  C   UNL     1       3.829   3.630  19.411  0.00  0.00    +0.000 C 
ATOM     20  O   UNL     1       3.116   2.859  20.037  0.00  0.00    +0.000 OA
ATOM     21  N   UNL     1       5.124   3.341  19.015  0.00  0.00    +0.000 N 
ATOM     22  C   UNL     1       5.611   4.298  18.025  0.00  0.00    +0.000 C 
ATOM     23  C   UNL     1       5.344   3.734  16.614  0.00  0.00    +0.000 C 
ATOM     24  C   UNL     1       5.456   4.742  15.472  0.00  0.00    +0.000 C 
ATOM     25  C   UNL     1       6.823   5.402  15.306  0.00  0.00    +0.000 C 
ATOM     26  C   UNL     1       7.158   6.458  16.350  0.00  0.00    +0.000 C 
ATOM     27  C   UNL     1       7.616   5.957  17.719  0.00  0.00    +0.000 C 
ATOM     28  C   UNL     1       7.087   4.622  18.243  0.00  0.00    +0.000 C 
ATOM     29  C   UNL     1       4.586   5.408  18.310  0.00  0.00    +0.000 C 
ATOM     30  O   UNL     1       4.642   6.557  17.904  0.00  0.00    +0.000 OA
ATOM     31  H   UNL     1       5.494   2.409  19.151  0.00  0.00    +0.000 HD
ENDBRANCH  17  18
ENDBRANCH   3  17
TORSDOF 7
ENDMDL
MODEL 6
REMARK VINA RESULT:      -7.6      2.242      3.990
REMARK  Name = 
REMARK  10 active torsions:
REMARK  status: ('A' for Active; 'I' for Inactive)
REMARK    1  A    between atoms: C_1  and  O_2
REMARK    2  A    between atoms: O_2  and  C_3
REMARK    3  A    between atoms: C_6  and  C_7
REMARK    4  A    between atoms: C_7  and  C_8
REMARK    5  A    between atoms: C_8  and  N_9
REMARK    6  A    between atoms: N_9  and  C_10
REMARK    7  A    between atoms: C_11  and  C_13
REMARK    8  A    between atoms: C_13  and  N_14
REMARK    9  A    between atoms: C_28  and  O_29
REMARK   10  A    between atoms: O_29  and  C_30
REMARK                            x       y       z     vdW  Elec       q    Type
REMARK                         _______ _______ _______ _____ _____    ______ ____
ROOT
ATOM      1  N   UNL     1       1.932   7.534  19.996  0.00  0.00    +0.000 N 
ATOM      2  C   UNL     1       1.358   8.241  21.132  0.00  0.00    +0.000 C 
ATOM      3  C   UNL     1       1.894   6.145  20.078  0.00  0.00    +0.000 C 
ATOM      4  O   UNL     1       1.542   5.579  21.119  0.00  0.00    +0.000 OA
ENDROOT
BRANCH   1   5
ATOM      5  C   UNL     1       2.308   8.276  18.787  0.00  0.00    +0.000 C 
BRANCH   5   6
ATOM      6  C   UNL     1       1.157   8.798  17.913  0.00  0.00    +0.000 C 
BRANCH   6  10
ATOM      7  C   UNL     1      -0.440  12.671  19.028  0.00  0.00    +0.000 A 
ATOM      8  C   UNL     1       0.941  12.433  19.002  0.00  0.00    +0.000 A 
ATOM      9  C   UNL     1       1.450  11.186  18.641  0.00  0.00    +0.000 A 
ATOM     10  C   UNL     1       0.587  10.133  18.333  0.00  0.00    +0.000 A 
ATOM     11  C   UNL     1      -0.794  10.347  18.447  0.00  0.00    +0.000 A 
ATOM     12  C   UNL     1      -1.321  11.605  18.793  0.00  0.00    +0.000 A 
BRANCH   7  14
ATOM     13  C   UNL     1      -0.133  15.014  18.870  0.00  0.00    +0.000 C 
ATOM     14  O   UNL     1      -0.933  13.917  19.311  0.00  0.00    +0.000 OA
ENDBRANCH   7  14
BRANCH  12  15
ATOM     15  O   UNL     1      -2.692  11.596  18.831  0.00  0.00    +0.000 OA
ATOM     16  C   UNL     1      -3.413  11.454  17.617  0.00  0.00    +0.000 C 
ENDBRANCH  12  15
ENDBRANCH   6  10
ENDBRANCH   5   6
ENDBRANCH   1   5
BRANCH   3  17
ATOM     17  C   UNL     1       2.248   5.314  18.845  0.00  0.00    +0.000 C 
BRANCH  17  18
ATOM     18  N   UNL     1       3.595   4.790  18.906  0.00  0.00    +0.000 N 
ATOM     19  C   UNL     1       3.993   3.611  19.453  0.00  0.00    +0.000 C 
ATOM     20  O   UNL     1       3.337   2.850  20.147  0.00  0.00    +0.000 OA
ATOM     21  N   UNL     1       5.297   3.368  19.054  0.00  0.00    +0.000 N 
ATOM     22  C   UNL     1       5.711   4.276  17.987  0.00  0.00    +0.000 C 
ATOM     23  C   UNL     1       5.456   3.594  16.626  0.00  0.00    +0.000 C 
ATOM     24  C   UNL     1       5.491   4.518  15.412  0.00  0.00    +0.000 C 
ATOM     25  C   UNL     1       6.814   5.241  15.170  0.00  0.00    +0.000 C 
ATOM     26  C   UNL     1       7.102   6.390  16.127  0.00  0.00    +0.000 C 
ATOM     27  C   UNL     1       7.611   6.019  17.520  0.00  0.00    +0.000 C 
ATOM     28  C   UNL     1       7.169   4.699  18.151  0.00  0.00    +0.000 C 
ATOM     29  C   UNL     1       4.628   5.343  18.209  0.00  0.00    +0.000 C 
ATOM     30  O   UNL     1       4.610   6.460  17.719  0.00  0.00    +0.000 OA
ATOM     31  H   UNL     1       5.723   2.472  19.250  0.00  0.00    +0.000 HD
ENDBRANCH  17  18
ENDBRANCH   3  17
TORSDOF 7
ENDMDL
MODEL 7
REMARK VINA RESULT:      -7.6      1.413      3.006
REMARK  Name = 
REMARK  10 active torsions:
REMARK  status: ('A' for Active; 'I' for Inactive)
REMARK    1  A    between atoms: C_1  and  O_2
REMARK    2  A    between atoms: O_2  and  C_3
REMARK    3  A    between atoms: C_6  and  C_7
REMARK    4  A    between atoms: C_7  and  C_8
REMARK    5  A    between atoms: C_8  and  N_9
REMARK    6  A    between atoms: N_9  and  C_10
REMARK    7  A    between atoms: C_11  and  C_13
REMARK    8  A    between atoms: C_13  and  N_14
REMARK    9  A    between atoms: C_28  and  O_29
REMARK   10  A    between atoms: O_29  and  C_30
REMARK                            x       y       z     vdW  Elec       q    Type
REMARK                         _______ _______ _______ _____ _____    ______ ____
ROOT
ATOM      1  N   UNL     1       1.255   9.075  19.692  0.00  0.00    +0.000 N 
ATOM      2  C   UNL     1       0.811   9.516  21.006  0.00  0.00    +0.000 C 
ATOM      3  C   UNL     1       1.812   7.800  19.648  0.00  0.00    +0.000 C 
ATOM      4  O   UNL     1       2.049   7.174  20.687  0.00  0.00    +0.000 OA
ENDROOT
BRANCH   1   5
ATOM      5  C   UNL     1       0.916   9.865  18.502  0.00  0.00    +0.000 C 
BRANCH   5   6
ATOM      6  C   UNL     1       0.155  11.178  18.742  0.00  0.00    +0.000 C 
BRANCH   6  10
ATOM      7  C   UNL     1      -4.039  11.199  17.647  0.00  0.00    +0.000 A 
ATOM      8  C   UNL     1      -3.578  11.887  18.779  0.00  0.00    +0.000 A 
ATOM      9  C   UNL     1      -2.228  11.878  19.126  0.00  0.00    +0.000 A 
ATOM     10  C   UNL     1      -1.309  11.149  18.369  0.00  0.00    +0.000 A 
ATOM     11  C   UNL     1      -1.785  10.391  17.291  0.00  0.00    +0.000 A 
ATOM     12  C   UNL     1      -3.142  10.404  16.920  0.00  0.00    +0.000 A 
BRANCH   7  14
ATOM     13  C   UNL     1      -6.306  10.906  18.267  0.00  0.00    +0.000 C 
ATOM     14  O   UNL     1      -5.353  11.271  17.268  0.00  0.00    +0.000 OA
ENDBRANCH   7  14
BRANCH  12  15
ATOM     15  O   UNL     1      -3.386   9.607  15.831  0.00  0.00    +0.000 OA
ATOM     16  C   UNL     1      -3.250  10.157  14.530  0.00  0.00    +0.000 C 
ENDBRANCH  12  15
ENDBRANCH   6  10
ENDBRANCH   5   6
ENDBRANCH   1   5
BRANCH   3  17
ATOM     17  C   UNL     1       2.088   7.151  18.292  0.00  0.00    +0.000 C 
BRANCH  17  18
ATOM     18  N   UNL     1       2.941   5.989  18.405  0.00  0.00    +0.000 N 
ATOM     19  C   UNL     1       2.554   4.707  18.641  0.00  0.00    +0.000 C 
ATOM     20  O   UNL     1       1.447   4.310  18.975  0.00  0.00    +0.000 OA
ATOM     21  N   UNL     1       3.635   3.877  18.394  0.00  0.00    +0.000 N 
ATOM     22  C   UNL     1       4.714   4.587  17.713  0.00  0.00    +0.000 C 
ATOM     23  C   UNL     1       4.560   4.386  16.191  0.00  0.00    +0.000 C 
ATOM     24  C   UNL     1       5.374   5.337  15.317  0.00  0.00    +0.000 C 
ATOM     25  C   UNL     1       6.888   5.271  15.502  0.00  0.00    +0.000 C 
ATOM     26  C   UNL     1       7.407   5.909  16.784  0.00  0.00    +0.000 C 
ATOM     27  C   UNL     1       7.259   5.097  18.070  0.00  0.00    +0.000 C 
ATOM     28  C   UNL     1       6.083   4.133  18.215  0.00  0.00    +0.000 C 
ATOM     29  C   UNL     1       4.261   6.012  18.066  0.00  0.00    +0.000 C 
ATOM     30  O   UNL     1       4.918   7.031  17.924  0.00  0.00    +0.000 OA
ATOM     31  H   UNL     1       3.505   2.874  18.385  0.00  0.00    +0.000 HD
ENDBRANCH  17  18
ENDBRANCH   3  17
TORSDOF 7
ENDMDL
MODEL 8
REMARK VINA RESULT:      -7.6      2.908      5.108
REMARK  Name = 
REMARK  10 active torsions:
REMARK  status: ('A' for Active; 'I' for Inactive)
REMARK    1  A    between atoms: C_1  and  O_2
REMARK    2  A    between atoms: O_2  and  C_3
REMARK    3  A    between atoms: C_6  and  C_7
REMARK    4  A    between atoms: C_7  and  C_8
REMARK    5  A    between atoms: C_8  and  N_9
REMARK    6  A    between atoms: N_9  and  C_10
REMARK    7  A    between atoms: C_11  and  C_13
REMARK    8  A    between atoms: C_13  and  N_14
REMARK    9  A    between atoms: C_28  and  O_29
REMARK   10  A    between atoms: O_29  and  C_30
REMARK                            x       y       z     vdW  Elec       q    Type
REMARK                         _______ _______ _______ _____ _____    ______ ____
ROOT
ATOM      1  N   UNL     1       1.878   4.533  20.504  0.00  0.00    +0.000 N 
ATOM      2  C   UNL     1       0.434   4.630  20.344  0.00  0.00    +0.000 C 
ATOM      3  C   UNL     1       2.388   3.239  20.540  0.00  0.00    +0.000 C 
ATOM      4  O   UNL     1       1.635   2.261  20.594  0.00  0.00    +0.000 OA
ENDROOT
BRANCH   1   5
ATOM      5  C   UNL     1       2.707   5.741  20.407  0.00  0.00    +0.000 C 
BRANCH   5   6
ATOM      6  C   UNL     1       2.214   6.840  19.453  0.00  0.00    +0.000 C 
BRANCH   6  10
ATOM      7  C   UNL     1       0.669  10.372  21.435  0.00  0.00    +0.000 A 
ATOM      8  C   UNL     1       0.980   9.210  22.155  0.00  0.00    +0.000 A 
ATOM      9  C   UNL     1       1.478   8.077  21.513  0.00  0.00    +0.000 A 
ATOM     10  C   UNL     1       1.642   8.066  20.127  0.00  0.00    +0.000 A 
ATOM     11  C   UNL     1       1.247   9.196  19.399  0.00  0.00    +0.000 A 
ATOM     12  C   UNL     1       0.759  10.352  20.035  0.00  0.00    +0.000 A 
BRANCH   7  14
ATOM     13  C   UNL     1      -1.081  11.470  22.593  0.00  0.00    +0.000 C 
ATOM     14  O   UNL     1       0.250  11.506  22.078  0.00  0.00    +0.000 OA
ENDBRANCH   7  14
BRANCH  12  15
ATOM     15  O   UNL     1       0.449  11.342  19.138  0.00  0.00    +0.000 OA
ATOM     16  C   UNL     1      -0.868  11.406  18.614  0.00  0.00    +0.000 C 
ENDBRANCH  12  15
ENDBRANCH   6  10
ENDBRANCH   5   6
ENDBRANCH   1   5
BRANCH   3  17
ATOM     17  C   UNL     1       3.900   3.028  20.464  0.00  0.00    +0.000 C 
BRANCH  17  18
ATOM     18  N   UNL     1       4.390   3.067  19.103  0.00  0.00    +0.000 N 
ATOM     19  C   UNL     1       3.859   2.435  18.023  0.00  0.00    +0.000 C 
ATOM     20  O   UNL     1       2.984   1.583  18.010  0.00  0.00    +0.000 OA
ATOM     21  N   UNL     1       4.454   2.954  16.885  0.00  0.00    +0.000 N 
ATOM     22  C   UNL     1       5.220   4.162  17.181  0.00  0.00    +0.000 C 
ATOM     23  C   UNL     1       4.320   5.393  16.942  0.00  0.00    +0.000 C 
ATOM     24  C   UNL     1       4.829   6.704  17.537  0.00  0.00    +0.000 C 
ATOM     25  C   UNL     1       6.181   7.183  17.016  0.00  0.00    +0.000 C 
ATOM     26  C   UNL     1       7.384   6.410  17.541  0.00  0.00    +0.000 C 
ATOM     27  C   UNL     1       7.668   5.053  16.898  0.00  0.00    +0.000 C 
ATOM     28  C   UNL     1       6.504   4.223  16.357  0.00  0.00    +0.000 C 
ATOM     29  C   UNL     1       5.352   3.941  18.695  0.00  0.00    +0.000 C 
ATOM     30  O   UNL     1       6.091   4.554  19.448  0.00  0.00    +0.000 OA
ATOM     31  H   UNL     1       4.093   2.705  15.972  0.00  0.00    +0.000 HD
ENDBRANCH  17  18
ENDBRANCH   3  17
TORSDOF 7
ENDMDL
MODEL 9
REMARK VINA RESULT:      -7.6      1.131      1.983
REMARK  Name = 
REMARK  10 active torsions:
REMARK  status: ('A' for Active; 'I' for Inactive)
REMARK    1  A    between atoms: C_1  and  O_2
REMARK    2  A    between atoms: O_2  and  C_3
REMARK    3  A    between atoms: C_6  and  C_7
REMARK    4  A    between atoms: C_7  and  C_8
REMARK    5  A    between atoms: C_8  and  N_9
REMARK    6  A    between atoms: N_9  and  C_10
REMARK    7  A    between atoms: C_11  and  C_13
REMARK    8  A    between atoms: C_13  and  N_14
REMARK    9  A    between atoms: C_28  and  O_29
REMARK   10  A    between atoms: O_29  and  C_30
REMARK                            x       y       z     vdW  Elec       q    Type
REMARK                         _______ _______ _______ _____ _____    ______ ____
ROOT
ATOM      1  N   UNL     1       1.191   9.157  19.482  0.00  0.00    +0.000 N 
ATOM      2  C   UNL     1       0.646   9.269  20.827  0.00  0.00    +0.000 C 
ATOM      3  C   UNL     1       2.015   8.057  19.262  0.00  0.00    +0.000 C 
ATOM      4  O   UNL     1       2.370   7.332  20.198  0.00  0.00    +0.000 OA
ENDROOT
BRANCH   1   5
ATOM      5  C   UNL     1       0.702  10.044  18.419  0.00  0.00    +0.000 C 
BRANCH   5   6
ATOM      6  C   UNL     1      -0.559   9.589  17.669  0.00  0.00    +0.000 C 
BRANCH   6  10
ATOM      7  C   UNL     1      -4.200  11.736  18.629  0.00  0.00    +0.000 A 
ATOM      8  C   UNL     1      -4.180  10.741  17.642  0.00  0.00    +0.000 A 
ATOM      9  C   UNL     1      -3.006  10.052  17.338  0.00  0.00    +0.000 A 
ATOM     10  C   UNL     1      -1.813  10.368  17.989  0.00  0.00    +0.000 A 
ATOM     11  C   UNL     1      -1.815  11.423  18.911  0.00  0.00    +0.000 A 
ATOM     12  C   UNL     1      -2.996  12.115  19.240  0.00  0.00    +0.000 A 
BRANCH   7  14
ATOM     13  C   UNL     1      -6.095  11.757  20.049  0.00  0.00    +0.000 C 
ATOM     14  O   UNL     1      -5.369  12.358  18.976  0.00  0.00    +0.000 OA
ENDBRANCH   7  14
BRANCH  12  15
ATOM     15  O   UNL     1      -2.775  13.096  20.173  0.00  0.00    +0.000 OA
ATOM     16  C   UNL     1      -1.485  13.217  20.753  0.00  0.00    +0.000 C 
ENDBRANCH  12  15
ENDBRANCH   6  10
ENDBRANCH   5   6
ENDBRANCH   1   5
BRANCH   3  17
ATOM     17  C   UNL     1       2.442   7.717  17.835  0.00  0.00    +0.000 C 
BRANCH  17  18
ATOM     18  N   UNL     1       3.186   6.478  17.766  0.00  0.00    +0.000 N 
ATOM     19  C   UNL     1       4.537   6.333  17.742  0.00  0.00    +0.000 C 
ATOM     20  O   UNL     1       5.380   7.206  17.598  0.00  0.00    +0.000 OA
ATOM     21  N   UNL     1       4.832   4.997  17.958  0.00  0.00    +0.000 N 
ATOM     22  C   UNL     1       3.659   4.253  18.408  0.00  0.00    +0.000 C 
ATOM     23  C   UNL     1       3.651   4.220  19.950  0.00  0.00    +0.000 C 
ATOM     24  C   UNL     1       2.330   3.802  20.592  0.00  0.00    +0.000 C 
ATOM     25  C   UNL     1       1.835   2.403  20.234  0.00  0.00    +0.000 C 
ATOM     26  C   UNL     1       1.265   2.263  18.828  0.00  0.00    +0.000 C 
ATOM     27  C   UNL     1       2.270   2.153  17.682  0.00  0.00    +0.000 C 
ATOM     28  C   UNL     1       3.624   2.851  17.804  0.00  0.00    +0.000 C 
ATOM     29  C   UNL     1       2.598   5.260  17.936  0.00  0.00    +0.000 C 
ATOM     30  O   UNL     1       1.397   5.058  17.867  0.00  0.00    +0.000 OA
ATOM     31  H   UNL     1       5.791   4.714  18.110  0.00  0.00    +0.000 HD
ENDBRANCH  17  18
ENDBRANCH   3  17
TORSDOF 7
ENDMDL
