MODEL 1
REMARK VINA RESULT:      -8.3      0.000      0.000
REMARK  Name = 
REMARK  4 active torsions:
REMARK  status: ('A' for Active; 'I' for Inactive)
REMARK    1  A    between atoms: C_1  and  C_2
REMARK    2  A    between atoms: C_4  and  N_5
REMARK    3  A    between atoms: N_8  and  C_9
REMARK    4  A    between atoms: C_14  and  C_15
REMARK                            x       y       z     vdW  Elec       q    Type
REMARK                         _______ _______ _______ _____ _____    ______ ____
ROOT
ATOM      1  C   UNL     1       1.805   2.692  21.795  0.00  0.00    +0.000 C 
ATOM      2  C   UNL     1       2.316   3.519  20.639  0.00  0.00    +0.000 A 
ATOM      3  C   UNL     1       1.922   4.962  20.614  0.00  0.00    +0.000 A 
ATOM      4  C   UNL     1       2.366   5.695  19.578  0.00  0.00    +0.000 A 
ATOM      5  N   UNL     1       3.196   5.044  18.645  0.00  0.00    +0.000 N 
ATOM      6  C   UNL     1       3.869   5.557  17.564  0.00  0.00    +0.000 A 
ATOM      7  C   UNL     1       4.523   4.495  16.989  0.00  0.00    +0.000 A 
ATOM      8  N   UNL     1       4.293   3.347  17.713  0.00  0.00    +0.000 NA
ATOM      9  C   UNL     1       3.517   3.694  18.725  0.00  0.00    +0.000 A 
ATOM     10  N   UNL     1       3.054   2.923  19.750  0.00  0.00    +0.000 NA
ENDROOT
BRANCH   4  11
ATOM     11  N   UNL     1       2.084   7.054  19.385  0.00  0.00    +0.000 N 
ATOM     12  C   UNL     1       1.815   7.933  20.554  0.00  0.00    +0.000 C 
ATOM     13  C   UNL     1       0.899   9.109  20.149  0.00  0.00    +0.000 C 
ATOM     14  N   UNL     1       1.453   9.888  19.019  0.00  0.00    +0.000 NA
ATOM     15  C   UNL     1       0.547  10.968  18.640  0.00  0.00    +0.000 C 
ATOM     16  C   UNL     1       1.695   8.979  17.877  0.00  0.00    +0.000 C 
ATOM     17  C   UNL     1       2.646   7.819  18.251  0.00  0.00    +0.000 C 
ENDBRANCH   4  11
BRANCH   7  18
ATOM     18  C   UNL     1       5.359   4.555  15.798  0.00  0.00    +0.000 A 
ATOM     19  C   UNL     1       4.988   3.919  14.601  0.00  0.00    +0.000 A 
ATOM     20  C   UNL     1       5.805   3.989  13.469  0.00  0.00    +0.000 A 
ATOM     21  C   UNL     1       6.997   4.698  13.532  0.00  0.00    +0.000 A 
ATOM     22  F   UNL     1       7.779   4.765  12.446  0.00  0.00    +0.000 F 
ATOM     23  C   UNL     1       7.389   5.335  14.702  0.00  0.00    +0.000 A 
ATOM     24  C   UNL     1       6.570   5.264  15.835  0.00  0.00    +0.000 A 
ENDBRANCH   7  18
TORSDOF 2
ENDMDL
MODEL 2
REMARK VINA RESULT:      -8.3      0.172      1.001
REMARK  Name = 
REMARK  4 active torsions:
REMARK  status: ('A' for Active; 'I' for Inactive)
REMARK    1  A    between atoms: C_1  and  C_2
REMARK    2  A    between atoms: C_4  and  N_5
REMARK    3  A    between atoms: N_8  and  C_9
REMARK    4  A    between atoms: C_14  and  C_15
REMARK                            x       y       z     vdW  Elec       q    Type
REMARK                         _______ _______ _______ _____ _____    ______ ____
ROOT
ATOM      1  C   UNL     1       1.778   2.562  21.625  0.00  0.00    +0.000 C 
ATOM      2  C   UNL     1       2.300   3.403  20.485  0.00  0.00    +0.000 A 
ATOM      3  C   UNL     1       1.930   4.853  20.491  0.00  0.00    +0.000 A 
ATOM      4  C   UNL     1       2.385   5.600  19.470  0.00  0.00    +0.000 A 
ATOM      5  N   UNL     1       3.201   4.955  18.522  0.00  0.00    +0.000 N 
ATOM      6  C   UNL     1       3.881   5.479  17.449  0.00  0.00    +0.000 A 
ATOM      7  C   UNL     1       4.516   4.418  16.850  0.00  0.00    +0.000 A 
ATOM      8  N   UNL     1       4.268   3.259  17.551  0.00  0.00    +0.000 NA
ATOM      9  C   UNL     1       3.500   3.598  18.572  0.00  0.00    +0.000 A 
ATOM     10  N   UNL     1       3.027   2.813  19.582  0.00  0.00    +0.000 NA
ENDROOT
BRANCH   4  11
ATOM     11  N   UNL     1       2.125   6.967  19.305  0.00  0.00    +0.000 N 
ATOM     12  C   UNL     1       1.894   7.830  20.495  0.00  0.00    +0.000 C 
ATOM     13  C   UNL     1       0.993   9.030  20.127  0.00  0.00    +0.000 C 
ATOM     14  N   UNL     1       1.541   9.819  19.001  0.00  0.00    +0.000 NA
ATOM     15  C   UNL     1       0.650  10.922  18.657  0.00  0.00    +0.000 C 
ATOM     16  C   UNL     1       1.745   8.925  17.839  0.00  0.00    +0.000 C 
ATOM     17  C   UNL     1       2.680   7.741  18.175  0.00  0.00    +0.000 C 
ENDBRANCH   4  11
BRANCH   7  18
ATOM     18  C   UNL     1       5.349   4.488  15.659  0.00  0.00    +0.000 A 
ATOM     19  C   UNL     1       6.545   5.226  15.636  0.00  0.00    +0.000 A 
ATOM     20  C   UNL     1       7.331   5.280  14.480  0.00  0.00    +0.000 A 
ATOM     21  C   UNL     1       6.922   4.595  13.345  0.00  0.00    +0.000 A 
ATOM     22  F   UNL     1       7.676   4.648  12.239  0.00  0.00    +0.000 F 
ATOM     23  C   UNL     1       5.743   3.860  13.340  0.00  0.00    +0.000 A 
ATOM     24  C   UNL     1       4.958   3.806  14.496  0.00  0.00    +0.000 A 
ENDBRANCH   7  18
TORSDOF 2
ENDMDL
MODEL 3
REMARK VINA RESULT:      -8.2      2.841      6.484
REMARK  Name = 
REMARK  4 active torsions:
REMARK  status: ('A' for Active; 'I' for Inactive)
REMARK    1  A    between atoms: C_1  and  C_2
REMARK    2  A    between atoms: C_4  and  N_5
REMARK    3  A    between atoms: N_8  and  C_9
REMARK    4  A    between atoms: C_14  and  C_15
REMARK                            x       y       z     vdW  Elec       q    Type
REMARK                         _______ _______ _______ _____ _____    ______ ____
ROOT
ATOM      1  C   UNL     1       2.234   1.976  21.805  0.00  0.00    +0.000 C 
ATOM      2  C   UNL     1       2.507   3.214  20.984  0.00  0.00    +0.000 A 
ATOM      3  C   UNL     1       3.515   3.087  19.885  0.00  0.00    +0.000 A 
ATOM      4  C   UNL     1       3.768   4.192  19.162  0.00  0.00    +0.000 A 
ATOM      5  N   UNL     1       3.026   5.345  19.479  0.00  0.00    +0.000 N 
ATOM      6  C   UNL     1       2.997   6.568  18.854  0.00  0.00    +0.000 A 
ATOM      7  C   UNL     1       2.113   7.337  19.571  0.00  0.00    +0.000 A 
ATOM      8  N   UNL     1       1.574   6.603  20.604  0.00  0.00    +0.000 NA
ATOM      9  C   UNL     1       2.107   5.397  20.522  0.00  0.00    +0.000 A 
ATOM     10  N   UNL     1       1.855   4.297  21.288  0.00  0.00    +0.000 NA
ENDROOT
BRANCH   4  11
ATOM     11  N   UNL     1       4.689   4.261  18.108  0.00  0.00    +0.000 N 
ATOM     12  C   UNL     1       6.121   4.552  18.388  0.00  0.00    +0.000 C 
ATOM     13  C   UNL     1       6.781   5.243  17.174  0.00  0.00    +0.000 C 
ATOM     14  N   UNL     1       6.635   4.453  15.931  0.00  0.00    +0.000 NA
ATOM     15  C   UNL     1       7.238   5.150  14.799  0.00  0.00    +0.000 C 
ATOM     16  C   UNL     1       5.198   4.197  15.687  0.00  0.00    +0.000 C 
ATOM     17  C   UNL     1       4.530   3.465  16.873  0.00  0.00    +0.000 C 
ENDBRANCH   4  11
BRANCH   7  18
ATOM     18  C   UNL     1       1.767   8.723  19.288  0.00  0.00    +0.000 A 
ATOM     19  C   UNL     1       2.218   9.375  18.128  0.00  0.00    +0.000 A 
ATOM     20  C   UNL     1       1.874  10.706  17.875  0.00  0.00    +0.000 A 
ATOM     21  C   UNL     1       1.077  11.389  18.783  0.00  0.00    +0.000 A 
ATOM     22  F   UNL     1       0.747  12.664  18.539  0.00  0.00    +0.000 F 
ATOM     23  C   UNL     1       0.619  10.769  19.938  0.00  0.00    +0.000 A 
ATOM     24  C   UNL     1       0.963   9.436  20.191  0.00  0.00    +0.000 A 
ENDBRANCH   7  18
TORSDOF 2
ENDMDL
MODEL 4
REMARK VINA RESULT:      -7.7      3.134      7.104
REMARK  Name = 
REMARK  4 active torsions:
REMARK  status: ('A' for Active; 'I' for Inactive)
REMARK    1  A    between atoms: C_1  and  C_2
REMARK    2  A    between atoms: C_4  and  N_5
REMARK    3  A    between atoms: N_8  and  C_9
REMARK    4  A    between atoms: C_14  and  C_15
REMARK                            x       y       z     vdW  Elec       q    Type
REMARK                         _______ _______ _______ _____ _____    ______ ____
ROOT
ATOM      1  C   UNL     1       6.388   4.875  15.251  0.00  0.00    +0.000 C 
ATOM      2  C   UNL     1       5.318   5.365  16.197  0.00  0.00    +0.000 A 
ATOM      3  C   UNL     1       4.752   4.362  17.153  0.00  0.00    +0.000 A 
ATOM      4  C   UNL     1       3.791   4.794  17.987  0.00  0.00    +0.000 A 
ATOM      5  N   UNL     1       3.445   6.156  17.912  0.00  0.00    +0.000 N 
ATOM      6  C   UNL     1       2.588   6.888  18.696  0.00  0.00    +0.000 A 
ATOM      7  C   UNL     1       2.610   8.165  18.190  0.00  0.00    +0.000 A 
ATOM      8  N   UNL     1       3.487   8.241  17.132  0.00  0.00    +0.000 NA
ATOM      9  C   UNL     1       4.008   7.034  16.991  0.00  0.00    +0.000 A 
ATOM     10  N   UNL     1       4.963   6.613  16.115  0.00  0.00    +0.000 NA
ENDROOT
BRANCH   4  11
ATOM     11  N   UNL     1       3.139   3.993  18.935  0.00  0.00    +0.000 N 
ATOM     12  C   UNL     1       1.696   3.673  18.774  0.00  0.00    +0.000 C 
ATOM     13  C   UNL     1       1.039   3.418  20.149  0.00  0.00    +0.000 C 
ATOM     14  N   UNL     1       1.734   2.357  20.913  0.00  0.00    +0.000 NA
ATOM     15  C   UNL     1       1.111   2.166  22.220  0.00  0.00    +0.000 C 
ATOM     16  C   UNL     1       3.161   2.721  21.059  0.00  0.00    +0.000 C 
ATOM     17  C   UNL     1       3.846   2.937  19.690  0.00  0.00    +0.000 C 
ENDBRANCH   4  11
BRANCH   7  18
ATOM     18  C   UNL     1       1.840   9.293  18.695  0.00  0.00    +0.000 A 
ATOM     19  C   UNL     1       1.884  10.554  18.076  0.00  0.00    +0.000 A 
ATOM     20  C   UNL     1       1.136  11.624  18.577  0.00  0.00    +0.000 A 
ATOM     21  C   UNL     1       0.342  11.434  19.699  0.00  0.00    +0.000 A 
ATOM     22  F   UNL     1      -0.374  12.460  20.177  0.00  0.00    +0.000 F 
ATOM     23  C   UNL     1       0.281  10.199  20.331  0.00  0.00    +0.000 A 
ATOM     24  C   UNL     1       1.029   9.128  19.829  0.00  0.00    +0.000 A 
ENDBRANCH   7  18
TORSDOF 2
ENDMDL
MODEL 5
REMARK VINA RESULT:      -7.7      0.424      1.074
REMARK  Name = 
REMARK  4 active torsions:
REMARK  status: ('A' for Active; 'I' for Inactive)
REMARK    1  A    between atoms: C_1  and  C_2
REMARK    2  A    between atoms: C_4  and  N_5
REMARK    3  A    between atoms: N_8  and  C_9
REMARK    4  A    between atoms: C_14  and  C_15
REMARK                            x       y       z     vdW  Elec       q    Type
REMARK                         _______ _______ _______ _____ _____    ______ ____
ROOT
ATOM      1  C   UNL     1       1.921   2.856  21.947  0.00  0.00    +0.000 C 
ATOM      2  C   UNL     1       2.410   3.664  20.768  0.00  0.00    +0.000 A 
ATOM      3  C   UNL     1       1.953   5.087  20.689  0.00  0.00    +0.000 A 
ATOM      4  C   UNL     1       2.378   5.802  19.633  0.00  0.00    +0.000 A 
ATOM      5  N   UNL     1       3.248   5.158  18.733  0.00  0.00    +0.000 N 
ATOM      6  C   UNL     1       3.912   5.662  17.642  0.00  0.00    +0.000 A 
ATOM      7  C   UNL     1       4.620   4.611  17.112  0.00  0.00    +0.000 A 
ATOM      8  N   UNL     1       4.431   3.480  17.873  0.00  0.00    +0.000 NA
ATOM      9  C   UNL     1       3.627   3.826  18.864  0.00  0.00    +0.000 A 
ATOM     10  N   UNL     1       3.186   3.071  19.910  0.00  0.00    +0.000 NA
ENDROOT
BRANCH   4  11
ATOM     11  N   UNL     1       2.039   7.140  19.389  0.00  0.00    +0.000 N 
ATOM     12  C   UNL     1       1.811   7.608  17.995  0.00  0.00    +0.000 C 
ATOM     13  C   UNL     1       2.134   9.114  17.869  0.00  0.00    +0.000 C 
ATOM     14  N   UNL     1       1.369   9.934  18.835  0.00  0.00    +0.000 NA
ATOM     15  C   UNL     1       1.723  11.345  18.713  0.00  0.00    +0.000 C 
ATOM     16  C   UNL     1       1.633   9.442  20.205  0.00  0.00    +0.000 C 
ATOM     17  C   UNL     1       1.274   7.947  20.363  0.00  0.00    +0.000 C 
ENDBRANCH   4  11
BRANCH   7  18
ATOM     18  C   UNL     1       5.468   4.667  15.930  0.00  0.00    +0.000 A 
ATOM     19  C   UNL     1       5.121   4.006  14.739  0.00  0.00    +0.000 A 
ATOM     20  C   UNL     1       5.949   4.073  13.615  0.00  0.00    +0.000 A 
ATOM     21  C   UNL     1       7.128   4.803  13.680  0.00  0.00    +0.000 A 
ATOM     22  F   UNL     1       7.921   4.867  12.602  0.00  0.00    +0.000 F 
ATOM     23  C   UNL     1       7.496   5.464  14.844  0.00  0.00    +0.000 A 
ATOM     24  C   UNL     1       6.666   5.397  15.969  0.00  0.00    +0.000 A 
ENDBRANCH   7  18
TORSDOF 2
ENDMDL
MODEL 6
REMARK VINA RESULT:      -7.6      0.397      1.451
REMARK  Name = 
REMARK  4 active torsions:
REMARK  status: ('A' for Active; 'I' for Inactive)
REMARK    1  A    between atoms: C_1  and  C_2
REMARK    2  A    between atoms: C_4  and  N_5
REMARK    3  A    between atoms: N_8  and  C_9
REMARK    4  A    between atoms: C_14  and  C_15
REMARK                            x       y       z     vdW  Elec       q    Type
REMARK                         _______ _______ _______ _____ _____    ______ ____
ROOT
ATOM      1  C   UNL     1       1.984   2.627  21.934  0.00  0.00    +0.000 C 
ATOM      2  C   UNL     1       2.453   3.467  20.769  0.00  0.00    +0.000 A 
ATOM      3  C   UNL     1       1.975   4.884  20.724  0.00  0.00    +0.000 A 
ATOM      4  C   UNL     1       2.382   5.628  19.680  0.00  0.00    +0.000 A 
ATOM      5  N   UNL     1       3.253   5.015  18.761  0.00  0.00    +0.000 N 
ATOM      6  C   UNL     1       3.902   5.553  17.676  0.00  0.00    +0.000 A 
ATOM      7  C   UNL     1       4.621   4.523  17.118  0.00  0.00    +0.000 A 
ATOM      8  N   UNL     1       4.454   3.373  17.856  0.00  0.00    +0.000 NA
ATOM      9  C   UNL     1       3.653   3.687  18.860  0.00  0.00    +0.000 A 
ATOM     10  N   UNL     1       3.230   2.903  19.893  0.00  0.00    +0.000 NA
ENDROOT
BRANCH   4  11
ATOM     11  N   UNL     1       2.022   6.966  19.467  0.00  0.00    +0.000 N 
ATOM     12  C   UNL     1       1.781   7.461  18.086  0.00  0.00    +0.000 C 
ATOM     13  C   UNL     1       2.081   8.974  17.992  0.00  0.00    +0.000 C 
ATOM     14  N   UNL     1       1.307   9.761  18.978  0.00  0.00    +0.000 NA
ATOM     15  C   UNL     1       1.640  11.180  18.887  0.00  0.00    +0.000 C 
ATOM     16  C   UNL     1       1.584   9.242  20.336  0.00  0.00    +0.000 C 
ATOM     17  C   UNL     1       1.248   7.739  20.462  0.00  0.00    +0.000 C 
ENDBRANCH   4  11
BRANCH   7  18
ATOM     18  C   UNL     1       5.458   4.617  15.931  0.00  0.00    +0.000 A 
ATOM     19  C   UNL     1       6.661   5.342  15.930  0.00  0.00    +0.000 A 
ATOM     20  C   UNL     1       7.451   5.419  14.778  0.00  0.00    +0.000 A 
ATOM     21  C   UNL     1       7.037   4.768  13.624  0.00  0.00    +0.000 A 
ATOM     22  F   UNL     1       7.795   4.842  12.522  0.00  0.00    +0.000 F 
ATOM     23  C   UNL     1       5.852   4.045  13.597  0.00  0.00    +0.000 A 
ATOM     24  C   UNL     1       5.063   3.969  14.750  0.00  0.00    +0.000 A 
ENDBRANCH   7  18
TORSDOF 2
ENDMDL
MODEL 7
REMARK VINA RESULT:      -7.5      3.185      7.228
REMARK  Name = 
REMARK  4 active torsions:
REMARK  status: ('A' for Active; 'I' for Inactive)
REMARK    1  A    between atoms: C_1  and  C_2
REMARK    2  A    between atoms: C_4  and  N_5
REMARK    3  A    between atoms: N_8  and  C_9
REMARK    4  A    between atoms: C_14  and  C_15
REMARK                            x       y       z     vdW  Elec       q    Type
REMARK                         _______ _______ _______ _____ _____    ______ ____
ROOT
ATOM      1  C   UNL     1       6.151   5.167  15.186  0.00  0.00    +0.000 C 
ATOM      2  C   UNL     1       5.099   5.595  16.181  0.00  0.00    +0.000 A 
ATOM      3  C   UNL     1       4.588   4.545  17.118  0.00  0.00    +0.000 A 
ATOM      4  C   UNL     1       3.643   4.922  17.996  0.00  0.00    +0.000 A 
ATOM      5  N   UNL     1       3.261   6.277  17.979  0.00  0.00    +0.000 N 
ATOM      6  C   UNL     1       2.410   6.958  18.815  0.00  0.00    +0.000 A 
ATOM      7  C   UNL     1       2.384   8.252  18.354  0.00  0.00    +0.000 A 
ATOM      8  N   UNL     1       3.226   8.388  17.274  0.00  0.00    +0.000 NA
ATOM      9  C   UNL     1       3.772   7.201  17.074  0.00  0.00    +0.000 A 
ATOM     10  N   UNL     1       4.710   6.835  16.154  0.00  0.00    +0.000 NA
ENDROOT
BRANCH   4  11
ATOM     11  N   UNL     1       3.041   4.072  18.934  0.00  0.00    +0.000 N 
ATOM     12  C   UNL     1       1.599   3.729  18.811  0.00  0.00    +0.000 C 
ATOM     13  C   UNL     1       0.998   3.407  20.198  0.00  0.00    +0.000 C 
ATOM     14  N   UNL     1       1.740   2.332  20.894  0.00  0.00    +0.000 NA
ATOM     15  C   UNL     1       1.169   2.078  22.213  0.00  0.00    +0.000 C 
ATOM     16  C   UNL     1       3.164   2.720  21.003  0.00  0.00    +0.000 C 
ATOM     17  C   UNL     1       3.796   3.003  19.621  0.00  0.00    +0.000 C 
ENDBRANCH   4  11
BRANCH   7  18
ATOM     18  C   UNL     1       1.603   9.341  18.922  0.00  0.00    +0.000 A 
ATOM     19  C   UNL     1       1.028   9.251  20.201  0.00  0.00    +0.000 A 
ATOM     20  C   UNL     1       0.282  10.310  20.728  0.00  0.00    +0.000 A 
ATOM     21  C   UNL     1       0.107  11.462  19.973  0.00  0.00    +0.000 A 
ATOM     22  F   UNL     1      -0.608  12.475  20.479  0.00  0.00    +0.000 F 
ATOM     23  C   UNL     1       0.662  11.577  18.706  0.00  0.00    +0.000 A 
ATOM     24  C   UNL     1       1.410  10.518  18.180  0.00  0.00    +0.000 A 
ENDBRANCH   7  18
TORSDOF 2
ENDMDL
MODEL 8
REMARK VINA RESULT:      -7.5      2.817      5.055
REMARK  Name = 
REMARK  4 active torsions:
REMARK  status: ('A' for Active; 'I' for Inactive)
REMARK    1  A    between atoms: C_1  and  C_2
REMARK    2  A    between atoms: C_4  and  N_5
REMARK    3  A    between atoms: N_8  and  C_9
REMARK    4  A    between atoms: C_14  and  C_15
REMARK                            x       y       z     vdW  Elec       q    Type
REMARK                         _______ _______ _______ _____ _____    ______ ____
ROOT
ATOM      1  C   UNL     1       8.124   8.277  18.240  0.00  0.00    +0.000 C 
ATOM      2  C   UNL     1       7.373   7.183  17.519  0.00  0.00    +0.000 A 
ATOM      3  C   UNL     1       6.155   6.639  18.198  0.00  0.00    +0.000 A 
ATOM      4  C   UNL     1       5.494   5.657  17.562  0.00  0.00    +0.000 A 
ATOM      5  N   UNL     1       5.984   5.270  16.300  0.00  0.00    +0.000 N 
ATOM      6  C   UNL     1       5.461   4.383  15.391  0.00  0.00    +0.000 A 
ATOM      7  C   UNL     1       6.335   4.371  14.331  0.00  0.00    +0.000 A 
ATOM      8  N   UNL     1       7.365   5.256  14.555  0.00  0.00    +0.000 NA
ATOM      9  C   UNL     1       7.129   5.815  15.729  0.00  0.00    +0.000 A 
ATOM     10  N   UNL     1       7.834   6.791  16.368  0.00  0.00    +0.000 NA
ENDROOT
BRANCH   4  11
ATOM     11  N   UNL     1       4.346   5.021  18.054  0.00  0.00    +0.000 N 
ATOM     12  C   UNL     1       4.462   4.008  19.137  0.00  0.00    +0.000 C 
ATOM     13  C   UNL     1       3.304   2.988  19.052  0.00  0.00    +0.000 C 
ATOM     14  N   UNL     1       1.977   3.642  19.080  0.00  0.00    +0.000 NA
ATOM     15  C   UNL     1       0.909   2.655  18.963  0.00  0.00    +0.000 C 
ATOM     16  C   UNL     1       1.902   4.632  17.983  0.00  0.00    +0.000 C 
ATOM     17  C   UNL     1       3.027   5.688  18.076  0.00  0.00    +0.000 C 
ENDBRANCH   4  11
BRANCH   7  18
ATOM     18  C   UNL     1       6.201   3.562  13.128  0.00  0.00    +0.000 A 
ATOM     19  C   UNL     1       4.944   3.252  12.582  0.00  0.00    +0.000 A 
ATOM     20  C   UNL     1       4.837   2.474  11.425  0.00  0.00    +0.000 A 
ATOM     21  C   UNL     1       5.991   2.004  10.812  0.00  0.00    +0.000 A 
ATOM     22  F   UNL     1       5.887   1.259   9.703  0.00  0.00    +0.000 F 
ATOM     23  C   UNL     1       7.245   2.294  11.331  0.00  0.00    +0.000 A 
ATOM     24  C   UNL     1       7.351   3.073  12.488  0.00  0.00    +0.000 A 
ENDBRANCH   7  18
TORSDOF 2
ENDMDL
MODEL 9
REMARK VINA RESULT:      -7.5      3.014      6.761
REMARK  Name = 
REMARK  4 active torsions:
REMARK  status: ('A' for Active; 'I' for Inactive)
REMARK    1  A    between atoms: C_1  and  C_2
REMARK    2  A    between atoms: C_4  and  N_5
REMARK    3  A    between atoms: N_8  and  C_9
REMARK    4  A    between atoms: C_14  and  C_15
REMARK                            x       y       z     vdW  Elec       q    Type
REMARK                         _______ _______ _______ _____ _____    ______ ____
ROOT
ATOM      1  C   UNL     1       2.462   1.933  21.615  0.00  0.00    +0.000 C 
ATOM      2  C   UNL     1       2.627   3.268  20.929  0.00  0.00    +0.000 A 
ATOM      3  C   UNL     1       3.636   3.340  19.825  0.00  0.00    +0.000 A 
ATOM      4  C   UNL     1       3.792   4.532  19.223  0.00  0.00    +0.000 A 
ATOM      5  N   UNL     1       2.959   5.580  19.656  0.00  0.00    +0.000 N 
ATOM      6  C   UNL     1       2.826   6.855  19.162  0.00  0.00    +0.000 A 
ATOM      7  C   UNL     1       1.885   7.469  19.953  0.00  0.00    +0.000 A 
ATOM      8  N   UNL     1       1.415   6.589  20.902  0.00  0.00    +0.000 NA
ATOM      9  C   UNL     1       2.045   5.446  20.696  0.00  0.00    +0.000 A 
ATOM     10  N   UNL     1       1.890   4.256  21.343  0.00  0.00    +0.000 NA
ENDROOT
BRANCH   4  11
ATOM     11  N   UNL     1       4.699   4.786  18.184  0.00  0.00    +0.000 N 
ATOM     12  C   UNL     1       4.210   5.308  16.880  0.00  0.00    +0.000 C 
ATOM     13  C   UNL     1       5.155   4.879  15.735  0.00  0.00    +0.000 C 
ATOM     14  N   UNL     1       6.555   5.293  15.979  0.00  0.00    +0.000 NA
ATOM     15  C   UNL     1       7.425   4.843  14.898  0.00  0.00    +0.000 C 
ATOM     16  C   UNL     1       7.002   4.745  17.279  0.00  0.00    +0.000 C 
ATOM     17  C   UNL     1       6.094   5.200  18.444  0.00  0.00    +0.000 C 
ENDBRANCH   4  11
BRANCH   7  18
ATOM     18  C   UNL     1       1.425   8.843  19.815  0.00  0.00    +0.000 A 
ATOM     19  C   UNL     1       0.944   9.576  20.913  0.00  0.00    +0.000 A 
ATOM     20  C   UNL     1       0.507  10.895  20.759  0.00  0.00    +0.000 A 
ATOM     21  C   UNL     1       0.549  11.484  19.502  0.00  0.00    +0.000 A 
ATOM     22  F   UNL     1       0.131  12.748  19.356  0.00  0.00    +0.000 F 
ATOM     23  C   UNL     1       1.018  10.782  18.400  0.00  0.00    +0.000 A 
ATOM     24  C   UNL     1       1.456   9.463  18.556  0.00  0.00    +0.000 A 
ENDBRANCH   7  18
TORSDOF 2
ENDMDL
