MODEL 1
REMARK VINA RESULT:      -8.9      0.000      0.000
REMARK  Name = 
REMARK  9 active torsions:
REMARK  status: ('A' for Active; 'I' for Inactive)
REMARK    1  A    between atoms: C_1  and  O_2
REMARK    2  A    between atoms: O_2  and  C_3
REMARK    3  A    between atoms: C_8  and  C_9
REMARK    4  A    between atoms: C_9  and  N_10
REMARK    5  A    between atoms: C_11  and  C_13
REMARK    6  A    between atoms: C_13  and  N_14
REMARK    7  A    between atoms: C_19  and  C_20
REMARK    8  A    between atoms: C_23  and  C_24
REMARK    9  A    between atoms: C_25  and  C_26
REMARK                            x       y       z     vdW  Elec       q    Type
REMARK                         _______ _______ _______ _____ _____    ______ ____
ROOT
ATOM      1  N   UNL     1       0.350  11.466  20.742  0.00  0.00    +0.000 N 
ATOM      2  N   UNL     1       0.699  11.356  19.410  0.00  0.00    +0.000 NA
ATOM      3  C   UNL     1       1.188  10.162  19.315  0.00  0.00    +0.000 A 
ATOM      4  C   UNL     1       1.722   9.538  18.109  0.00  0.00    +0.000 A 
ATOM      5  C   UNL     1       2.144   8.274  18.206  0.00  0.00    +0.000 A 
ATOM      6  C   UNL     1       2.075   7.609  19.544  0.00  0.00    +0.000 A 
ATOM      7  N   UNL     1       1.598   8.168  20.618  0.00  0.00    +0.000 NA
ATOM      8  N   UNL     1       1.178   9.449  20.460  0.00  0.00    +0.000 N 
ATOM      9  C   UNL     1       0.627  10.267  21.432  0.00  0.00    +0.000 A 
ATOM     10  O   UNL     1       0.393  10.026  22.606  0.00  0.00    +0.000 OA
ENDROOT
BRANCH   6  11
ATOM     11  C   UNL     1       2.586   6.215  19.614  0.00  0.00    +0.000 A 
ATOM     12  C   UNL     1       3.595   5.815  18.739  0.00  0.00    +0.000 A 
ATOM     13  C   UNL     1       4.079   4.507  18.789  0.00  0.00    +0.000 A 
ATOM     14  C   UNL     1       3.555   3.577  19.703  0.00  0.00    +0.000 A 
ATOM     15  C   UNL     1       4.107   2.178  19.711  0.00  0.00    +0.000 C 
ATOM     16  C   UNL     1       2.523   3.971  20.574  0.00  0.00    +0.000 A 
ATOM     17  C   UNL     1       1.886   3.053  21.581  0.00  0.00    +0.000 C 
ATOM     18  C   UNL     1       2.048   5.292  20.517  0.00  0.00    +0.000 A 
ENDBRANCH   6  11
BRANCH   1  19
ATOM     19  C   UNL     1      -0.232  12.664  21.295  0.00  0.00    +0.000 C 
BRANCH  19  21
ATOM     20  N   UNL     1      -1.809  13.385  19.488  0.00  0.00    +0.000 N 
ATOM     21  C   UNL     1      -0.661  13.624  20.191  0.00  0.00    +0.000 C 
ATOM     22  O   UNL     1       0.005  14.617  19.892  0.00  0.00    +0.000 OA
ATOM     23  H   UNL     1      -1.992  14.074  18.770  0.00  0.00    +0.000 HD
BRANCH  20  24
ATOM     24  C   UNL     1      -2.714  12.250  19.593  0.00  0.00    +0.000 C 
BRANCH  24  30
ATOM     25  C   UNL     1      -4.185  11.620  17.607  0.00  0.00    +0.000 A 
ATOM     26  C   UNL     1      -4.394  10.846  16.457  0.00  0.00    +0.000 A 
ATOM     27  C   UNL     1      -3.383  10.022  15.959  0.00  0.00    +0.000 A 
ATOM     28  C   UNL     1      -2.156   9.963  16.603  0.00  0.00    +0.000 A 
ATOM     29  C   UNL     1      -1.941  10.707  17.760  0.00  0.00    +0.000 A 
ATOM     30  C   UNL     1      -2.951  11.537  18.285  0.00  0.00    +0.000 A 
BRANCH  25  32
ATOM     31  C   UNL     1      -6.405  12.447  17.468  0.00  0.00    +0.000 C 
ATOM     32  O   UNL     1      -5.147  12.439  18.140  0.00  0.00    +0.000 OA
ENDBRANCH  25  32
ENDBRANCH  24  30
ENDBRANCH  20  24
ENDBRANCH  19  21
ENDBRANCH   1  19
TORSDOF 6
ENDMDL
MODEL 2
REMARK VINA RESULT:      -8.8      4.482      9.218
REMARK  Name = 
REMARK  9 active torsions:
REMARK  status: ('A' for Active; 'I' for Inactive)
REMARK    1  A    between atoms: C_1  and  O_2
REMARK    2  A    between atoms: O_2  and  C_3
REMARK    3  A    between atoms: C_8  and  C_9
REMARK    4  A    between atoms: C_9  and  N_10
REMARK    5  A    between atoms: C_11  and  C_13
REMARK    6  A    between atoms: C_13  and  N_14
REMARK    7  A    between atoms: C_19  and  C_20
REMARK    8  A    between atoms: C_23  and  C_24
REMARK    9  A    between atoms: C_25  and  C_26
REMARK                            x       y       z     vdW  Elec       q    Type
REMARK                         _______ _______ _______ _____ _____    ______ ____
ROOT
ATOM      1  N   UNL     1       2.741   4.402  19.229  0.00  0.00    +0.000 N 
ATOM      2  N   UNL     1       2.922   5.365  18.254  0.00  0.00    +0.000 NA
ATOM      3  C   UNL     1       2.400   6.431  18.769  0.00  0.00    +0.000 A 
ATOM      4  C   UNL     1       2.315   7.745  18.140  0.00  0.00    +0.000 A 
ATOM      5  C   UNL     1       1.776   8.735  18.855  0.00  0.00    +0.000 A 
ATOM      6  C   UNL     1       1.265   8.417  20.225  0.00  0.00    +0.000 A 
ATOM      7  N   UNL     1       1.342   7.245  20.784  0.00  0.00    +0.000 NA
ATOM      8  N   UNL     1       1.905   6.278  20.015  0.00  0.00    +0.000 N 
ATOM      9  C   UNL     1       2.113   4.955  20.365  0.00  0.00    +0.000 A 
ATOM     10  O   UNL     1       1.855   4.381  21.411  0.00  0.00    +0.000 OA
ENDROOT
BRANCH   6  11
ATOM     11  C   UNL     1       0.642   9.541  20.973  0.00  0.00    +0.000 A 
ATOM     12  C   UNL     1      -0.125   9.264  22.104  0.00  0.00    +0.000 A 
ATOM     13  C   UNL     1      -0.721  10.308  22.811  0.00  0.00    +0.000 A 
ATOM     14  C   UNL     1      -0.572  11.642  22.393  0.00  0.00    +0.000 A 
ATOM     15  C   UNL     1      -1.241  12.730  23.186  0.00  0.00    +0.000 C 
ATOM     16  C   UNL     1       0.185  11.924  21.241  0.00  0.00    +0.000 A 
ATOM     17  C   UNL     1       0.397  13.312  20.703  0.00  0.00    +0.000 C 
ATOM     18  C   UNL     1       0.784  10.864  20.541  0.00  0.00    +0.000 A 
ENDBRANCH   6  11
BRANCH   1  19
ATOM     19  C   UNL     1       3.172   3.037  19.061  0.00  0.00    +0.000 C 
BRANCH  19  21
ATOM     20  N   UNL     1       5.655   3.369  19.049  0.00  0.00    +0.000 N 
ATOM     21  C   UNL     1       4.559   2.823  19.658  0.00  0.00    +0.000 C 
ATOM     22  O   UNL     1       4.735   2.154  20.678  0.00  0.00    +0.000 OA
ATOM     23  H   UNL     1       6.525   3.153  19.519  0.00  0.00    +0.000 HD
BRANCH  20  24
ATOM     24  C   UNL     1       5.718   4.120  17.804  0.00  0.00    +0.000 C 
BRANCH  24  30
ATOM     25  C   UNL     1       6.219   6.498  17.032  0.00  0.00    +0.000 A 
ATOM     26  C   UNL     1       7.015   7.649  17.108  0.00  0.00    +0.000 A 
ATOM     27  C   UNL     1       8.018   7.760  18.073  0.00  0.00    +0.000 A 
ATOM     28  C   UNL     1       8.236   6.724  18.968  0.00  0.00    +0.000 A 
ATOM     29  C   UNL     1       7.469   5.565  18.891  0.00  0.00    +0.000 A 
ATOM     30  C   UNL     1       6.458   5.428  17.920  0.00  0.00    +0.000 A 
BRANCH  25  32
ATOM     31  C   UNL     1       5.599   5.673  14.895  0.00  0.00    +0.000 C 
ATOM     32  O   UNL     1       5.226   6.338  16.101  0.00  0.00    +0.000 OA
ENDBRANCH  25  32
ENDBRANCH  24  30
ENDBRANCH  20  24
ENDBRANCH  19  21
ENDBRANCH   1  19
TORSDOF 6
ENDMDL
MODEL 3
REMARK VINA RESULT:      -8.8      3.509      8.766
REMARK  Name = 
REMARK  9 active torsions:
REMARK  status: ('A' for Active; 'I' for Inactive)
REMARK    1  A    between atoms: C_1  and  O_2
REMARK    2  A    between atoms: O_2  and  C_3
REMARK    3  A    between atoms: C_8  and  C_9
REMARK    4  A    between atoms: C_9  and  N_10
REMARK    5  A    between atoms: C_11  and  C_13
REMARK    6  A    between atoms: C_13  and  N_14
REMARK    7  A    between atoms: C_19  and  C_20
REMARK    8  A    between atoms: C_23  and  C_24
REMARK    9  A    between atoms: C_25  and  C_26
REMARK                            x       y       z     vdW  Elec       q    Type
REMARK                         _______ _______ _______ _____ _____    ______ ____
ROOT
ATOM      1  N   UNL     1       3.955   6.254  18.254  0.00  0.00    +0.000 N 
ATOM      2  N   UNL     1       3.475   5.887  19.497  0.00  0.00    +0.000 NA
ATOM      3  C   UNL     1       2.624   6.817  19.789  0.00  0.00    +0.000 A 
ATOM      4  C   UNL     1       1.834   6.915  21.012  0.00  0.00    +0.000 A 
ATOM      5  C   UNL     1       0.973   7.931  21.107  0.00  0.00    +0.000 A 
ATOM      6  C   UNL     1       0.911   8.911  19.977  0.00  0.00    +0.000 A 
ATOM      7  N   UNL     1       1.616   8.820  18.888  0.00  0.00    +0.000 NA
ATOM      8  N   UNL     1       2.469   7.765  18.842  0.00  0.00    +0.000 N 
ATOM      9  C   UNL     1       3.323   7.433  17.804  0.00  0.00    +0.000 A 
ATOM     10  O   UNL     1       3.490   7.989  16.730  0.00  0.00    +0.000 OA
ENDROOT
BRANCH   6  11
ATOM     11  C   UNL     1      -0.036  10.045  20.140  0.00  0.00    +0.000 A 
ATOM     12  C   UNL     1      -0.655  10.582  19.012  0.00  0.00    +0.000 A 
ATOM     13  C   UNL     1      -1.540  11.652  19.150  0.00  0.00    +0.000 A 
ATOM     14  C   UNL     1      -1.811  12.209  20.411  0.00  0.00    +0.000 A 
ATOM     15  C   UNL     1      -2.768  13.365  20.504  0.00  0.00    +0.000 C 
ATOM     16  C   UNL     1      -1.173  11.682  21.550  0.00  0.00    +0.000 A 
ATOM     17  C   UNL     1      -1.384  12.210  22.942  0.00  0.00    +0.000 C 
ATOM     18  C   UNL     1      -0.288  10.602  21.398  0.00  0.00    +0.000 A 
ENDBRANCH   6  11
BRANCH   1  19
ATOM     19  C   UNL     1       4.953   5.488  17.550  0.00  0.00    +0.000 C 
BRANCH  19  21
ATOM     20  N   UNL     1       5.417   3.388  18.835  0.00  0.00    +0.000 N 
ATOM     21  C   UNL     1       5.794   4.664  18.520  0.00  0.00    +0.000 C 
ATOM     22  O   UNL     1       6.811   5.115  19.050  0.00  0.00    +0.000 OA
ATOM     23  H   UNL     1       6.035   2.938  19.497  0.00  0.00    +0.000 HD
BRANCH  20  24
ATOM     24  C   UNL     1       4.226   2.666  18.411  0.00  0.00    +0.000 C 
BRANCH  24  30
ATOM     25  C   UNL     1       1.770   2.910  19.055  0.00  0.00    +0.000 A 
ATOM     26  C   UNL     1       0.790   3.030  20.049  0.00  0.00    +0.000 A 
ATOM     27  C   UNL     1       1.122   2.893  21.398  0.00  0.00    +0.000 A 
ATOM     28  C   UNL     1       2.433   2.635  21.767  0.00  0.00    +0.000 A 
ATOM     29  C   UNL     1       3.423   2.536  20.793  0.00  0.00    +0.000 A 
ATOM     30  C   UNL     1       3.112   2.681  19.427  0.00  0.00    +0.000 A 
BRANCH  25  32
ATOM     31  C   UNL     1       1.196   4.361  17.268  0.00  0.00    +0.000 C 
ATOM     32  O   UNL     1       1.498   3.042  17.718  0.00  0.00    +0.000 OA
ENDBRANCH  25  32
ENDBRANCH  24  30
ENDBRANCH  20  24
ENDBRANCH  19  21
ENDBRANCH   1  19
TORSDOF 6
ENDMDL
MODEL 4
REMARK VINA RESULT:      -8.7      3.887      8.628
REMARK  Name = 
REMARK  9 active torsions:
REMARK  status: ('A' for Active; 'I' for Inactive)
REMARK    1  A    between atoms: C_1  and  O_2
REMARK    2  A    between atoms: O_2  and  C_3
REMARK    3  A    between atoms: C_8  and  C_9
REMARK    4  A    between atoms: C_9  and  N_10
REMARK    5  A    between atoms: C_11  and  C_13
REMARK    6  A    between atoms: C_13  and  N_14
REMARK    7  A    between atoms: C_19  and  C_20
REMARK    8  A    between atoms: C_23  and  C_24
REMARK    9  A    between atoms: C_25  and  C_26
REMARK                            x       y       z     vdW  Elec       q    Type
REMARK                         _______ _______ _______ _____ _____    ______ ____
ROOT
ATOM      1  N   UNL     1       3.807   6.379  18.049  0.00  0.00    +0.000 N 
ATOM      2  N   UNL     1       3.526   7.476  17.258  0.00  0.00    +0.000 NA
ATOM      3  C   UNL     1       2.712   8.179  17.978  0.00  0.00    +0.000 A 
ATOM      4  C   UNL     1       2.095   9.446  17.601  0.00  0.00    +0.000 A 
ATOM      5  C   UNL     1       1.314  10.042  18.504  0.00  0.00    +0.000 A 
ATOM      6  C   UNL     1       1.098   9.351  19.814  0.00  0.00    +0.000 A 
ATOM      7  N   UNL     1       1.650   8.222  20.148  0.00  0.00    +0.000 NA
ATOM      8  N   UNL     1       2.439   7.664  19.194  0.00  0.00    +0.000 N 
ATOM      9  C   UNL     1       3.145   6.477  19.291  0.00  0.00    +0.000 A 
ATOM     10  O   UNL     1       3.222   5.695  20.226  0.00  0.00    +0.000 OA
ENDROOT
BRANCH   6  11
ATOM     11  C   UNL     1       0.194  10.033  20.777  0.00  0.00    +0.000 A 
ATOM     12  C   UNL     1       0.079   9.533  22.074  0.00  0.00    +0.000 A 
ATOM     13  C   UNL     1      -0.772  10.159  22.986  0.00  0.00    +0.000 A 
ATOM     14  C   UNL     1      -1.528  11.284  22.615  0.00  0.00    +0.000 A 
ATOM     15  C   UNL     1      -2.435  11.917  23.634  0.00  0.00    +0.000 C 
ATOM     16  C   UNL     1      -1.429  11.780  21.302  0.00  0.00    +0.000 A 
ATOM     17  C   UNL     1      -2.201  12.969  20.800  0.00  0.00    +0.000 C 
ATOM     18  C   UNL     1      -0.566  11.144  20.394  0.00  0.00    +0.000 A 
ENDBRANCH   6  11
BRANCH   1  19
ATOM     19  C   UNL     1       4.680   5.315  17.619  0.00  0.00    +0.000 C 
BRANCH  19  21
ATOM     20  N   UNL     1       5.434   3.575  19.256  0.00  0.00    +0.000 N 
ATOM     21  C   UNL     1       5.572   4.844  18.763  0.00  0.00    +0.000 C 
ATOM     22  O   UNL     1       6.417   5.577  19.279  0.00  0.00    +0.000 OA
ATOM     23  H   UNL     1       6.063   3.371  20.022  0.00  0.00    +0.000 HD
BRANCH  20  24
ATOM     24  C   UNL     1       4.465   2.558  18.877  0.00  0.00    +0.000 C 
BRANCH  24  30
ATOM     25  C   UNL     1       1.938   2.817  19.113  0.00  0.00    +0.000 A 
ATOM     26  C   UNL     1       0.811   2.949  19.934  0.00  0.00    +0.000 A 
ATOM     27  C   UNL     1       0.919   2.824  21.320  0.00  0.00    +0.000 A 
ATOM     28  C   UNL     1       2.152   2.565  21.899  0.00  0.00    +0.000 A 
ATOM     29  C   UNL     1       3.286   2.453  21.099  0.00  0.00    +0.000 A 
ATOM     30  C   UNL     1       3.201   2.586  19.699  0.00  0.00    +0.000 A 
BRANCH  25  32
ATOM     31  C   UNL     1       1.278   4.126  17.247  0.00  0.00    +0.000 C 
ATOM     32  O   UNL     1       1.887   2.937  17.749  0.00  0.00    +0.000 OA
ENDBRANCH  25  32
ENDBRANCH  24  30
ENDBRANCH  20  24
ENDBRANCH  19  21
ENDBRANCH   1  19
TORSDOF 6
ENDMDL
MODEL 5
REMARK VINA RESULT:      -8.6      3.234      8.816
REMARK  Name = 
REMARK  9 active torsions:
REMARK  status: ('A' for Active; 'I' for Inactive)
REMARK    1  A    between atoms: C_1  and  O_2
REMARK    2  A    between atoms: O_2  and  C_3
REMARK    3  A    between atoms: C_8  and  C_9
REMARK    4  A    between atoms: C_9  and  N_10
REMARK    5  A    between atoms: C_11  and  C_13
REMARK    6  A    between atoms: C_13  and  N_14
REMARK    7  A    between atoms: C_19  and  C_20
REMARK    8  A    between atoms: C_23  and  C_24
REMARK    9  A    between atoms: C_25  and  C_26
REMARK                            x       y       z     vdW  Elec       q    Type
REMARK                         _______ _______ _______ _____ _____    ______ ____
ROOT
ATOM      1  N   UNL     1       3.776   6.361  18.357  0.00  0.00    +0.000 N 
ATOM      2  N   UNL     1       3.272   6.011  19.595  0.00  0.00    +0.000 NA
ATOM      3  C   UNL     1       2.434   6.959  19.868  0.00  0.00    +0.000 A 
ATOM      4  C   UNL     1       1.628   7.080  21.079  0.00  0.00    +0.000 A 
ATOM      5  C   UNL     1       0.786   8.113  21.155  0.00  0.00    +0.000 A 
ATOM      6  C   UNL     1       0.760   9.087  20.019  0.00  0.00    +0.000 A 
ATOM      7  N   UNL     1       1.479   8.976  18.941  0.00  0.00    +0.000 NA
ATOM      8  N   UNL     1       2.311   7.904  18.914  0.00  0.00    +0.000 N 
ATOM      9  C   UNL     1       3.175   7.550  17.890  0.00  0.00    +0.000 A 
ATOM     10  O   UNL     1       3.368   8.096  16.816  0.00  0.00    +0.000 OA
ENDROOT
BRANCH   6  11
ATOM     11  C   UNL     1      -0.167  10.240  20.161  0.00  0.00    +0.000 A 
ATOM     12  C   UNL     1      -0.086  11.043  21.299  0.00  0.00    +0.000 A 
ATOM     13  C   UNL     1      -0.954  12.125  21.448  0.00  0.00    +0.000 A 
ATOM     14  C   UNL     1      -1.924  12.414  20.472  0.00  0.00    +0.000 A 
ATOM     15  C   UNL     1      -2.841  13.587  20.684  0.00  0.00    +0.000 C 
ATOM     16  C   UNL     1      -2.022  11.594  19.332  0.00  0.00    +0.000 A 
ATOM     17  C   UNL     1      -3.029  11.808  18.236  0.00  0.00    +0.000 C 
ATOM     18  C   UNL     1      -1.138  10.511  19.191  0.00  0.00    +0.000 A 
ENDBRANCH   6  11
BRANCH   1  19
ATOM     19  C   UNL     1       4.770   5.572  17.672  0.00  0.00    +0.000 C 
BRANCH  19  21
ATOM     20  N   UNL     1       5.486   3.573  19.001  0.00  0.00    +0.000 N 
ATOM     21  C   UNL     1       5.699   4.881  18.665  0.00  0.00    +0.000 C 
ATOM     22  O   UNL     1       6.642   5.470  19.196  0.00  0.00    +0.000 OA
ATOM     23  H   UNL     1       6.150   3.218  19.677  0.00  0.00    +0.000 HD
BRANCH  20  24
ATOM     24  C   UNL     1       4.404   2.696  18.580  0.00  0.00    +0.000 C 
BRANCH  24  30
ATOM     25  C   UNL     1       1.906   2.933  19.038  0.00  0.00    +0.000 A 
ATOM     26  C   UNL     1       0.853   3.049  19.956  0.00  0.00    +0.000 A 
ATOM     27  C   UNL     1       1.083   2.908  21.326  0.00  0.00    +0.000 A 
ATOM     28  C   UNL     1       2.363   2.652  21.792  0.00  0.00    +0.000 A 
ATOM     29  C   UNL     1       3.424   2.557  20.895  0.00  0.00    +0.000 A 
ATOM     30  C   UNL     1       3.216   2.705  19.510  0.00  0.00    +0.000 A 
BRANCH  25  32
ATOM     31  C   UNL     1       1.156   4.296  17.246  0.00  0.00    +0.000 C 
ATOM     32  O   UNL     1       1.735   3.068  17.685  0.00  0.00    +0.000 OA
ENDBRANCH  25  32
ENDBRANCH  24  30
ENDBRANCH  20  24
ENDBRANCH  19  21
ENDBRANCH   1  19
TORSDOF 6
ENDMDL
MODEL 6
REMARK VINA RESULT:      -8.6      0.544      1.353
REMARK  Name = 
REMARK  9 active torsions:
REMARK  status: ('A' for Active; 'I' for Inactive)
REMARK    1  A    between atoms: C_1  and  O_2
REMARK    2  A    between atoms: O_2  and  C_3
REMARK    3  A    between atoms: C_8  and  C_9
REMARK    4  A    between atoms: C_9  and  N_10
REMARK    5  A    between atoms: C_11  and  C_13
REMARK    6  A    between atoms: C_13  and  N_14
REMARK    7  A    between atoms: C_19  and  C_20
REMARK    8  A    between atoms: C_23  and  C_24
REMARK    9  A    between atoms: C_25  and  C_26
REMARK                            x       y       z     vdW  Elec       q    Type
REMARK                         _______ _______ _______ _____ _____    ______ ____
ROOT
ATOM      1  N   UNL     1       0.375  11.454  20.654  0.00  0.00    +0.000 N 
ATOM      2  N   UNL     1       0.796  11.450  19.338  0.00  0.00    +0.000 NA
ATOM      3  C   UNL     1       1.257  10.254  19.163  0.00  0.00    +0.000 A 
ATOM      4  C   UNL     1       1.841   9.722  17.936  0.00  0.00    +0.000 A 
ATOM      5  C   UNL     1       2.221   8.442  17.941  0.00  0.00    +0.000 A 
ATOM      6  C   UNL     1       2.057   7.663  19.209  0.00  0.00    +0.000 A 
ATOM      7  N   UNL     1       1.535   8.140  20.301  0.00  0.00    +0.000 NA
ATOM      8  N   UNL     1       1.161   9.443  20.237  0.00  0.00    +0.000 N 
ATOM      9  C   UNL     1       0.578  10.190  21.247  0.00  0.00    +0.000 A 
ATOM     10  O   UNL     1       0.271   9.854  22.380  0.00  0.00    +0.000 OA
ENDROOT
BRANCH   6  11
ATOM     11  C   UNL     1       2.524   6.252  19.180  0.00  0.00    +0.000 A 
ATOM     12  C   UNL     1       2.307   5.441  20.293  0.00  0.00    +0.000 A 
ATOM     13  C   UNL     1       2.746   4.117  20.282  0.00  0.00    +0.000 A 
ATOM     14  C   UNL     1       3.420   3.587  19.168  0.00  0.00    +0.000 A 
ATOM     15  C   UNL     1       3.880   2.156  19.210  0.00  0.00    +0.000 C 
ATOM     16  C   UNL     1       3.659   4.409  18.051  0.00  0.00    +0.000 A 
ATOM     17  C   UNL     1       4.379   3.946  16.814  0.00  0.00    +0.000 C 
ATOM     18  C   UNL     1       3.207   5.739  18.072  0.00  0.00    +0.000 A 
ENDBRANCH   6  11
BRANCH   1  19
ATOM     19  C   UNL     1      -0.203  12.617  21.280  0.00  0.00    +0.000 C 
BRANCH  19  21
ATOM     20  N   UNL     1      -1.861  13.362  19.556  0.00  0.00    +0.000 N 
ATOM     21  C   UNL     1      -0.701  13.611  20.236  0.00  0.00    +0.000 C 
ATOM     22  O   UNL     1      -0.080  14.640  19.965  0.00  0.00    +0.000 OA
ATOM     23  H   UNL     1      -2.091  14.076  18.878  0.00  0.00    +0.000 HD
BRANCH  20  24
ATOM     24  C   UNL     1      -2.722  12.191  19.634  0.00  0.00    +0.000 C 
BRANCH  24  30
ATOM     25  C   UNL     1      -4.169  11.611  17.615  0.00  0.00    +0.000 A 
ATOM     26  C   UNL     1      -4.364  10.865  16.445  0.00  0.00    +0.000 A 
ATOM     27  C   UNL     1      -3.349  10.050  15.941  0.00  0.00    +0.000 A 
ATOM     28  C   UNL     1      -2.131   9.972  16.600  0.00  0.00    +0.000 A 
ATOM     29  C   UNL     1      -1.929  10.689  17.776  0.00  0.00    +0.000 A 
ATOM     30  C   UNL     1      -2.943  11.510  18.307  0.00  0.00    +0.000 A 
BRANCH  25  32
ATOM     31  C   UNL     1      -6.324  11.769  18.595  0.00  0.00    +0.000 C 
ATOM     32  O   UNL     1      -5.134  12.421  18.154  0.00  0.00    +0.000 OA
ENDBRANCH  25  32
ENDBRANCH  24  30
ENDBRANCH  20  24
ENDBRANCH  19  21
ENDBRANCH   1  19
TORSDOF 6
ENDMDL
MODEL 7
REMARK VINA RESULT:      -8.6      3.378      9.021
REMARK  Name = 
REMARK  9 active torsions:
REMARK  status: ('A' for Active; 'I' for Inactive)
REMARK    1  A    between atoms: C_1  and  O_2
REMARK    2  A    between atoms: O_2  and  C_3
REMARK    3  A    between atoms: C_8  and  C_9
REMARK    4  A    between atoms: C_9  and  N_10
REMARK    5  A    between atoms: C_11  and  C_13
REMARK    6  A    between atoms: C_13  and  N_14
REMARK    7  A    between atoms: C_19  and  C_20
REMARK    8  A    between atoms: C_23  and  C_24
REMARK    9  A    between atoms: C_25  and  C_26
REMARK                            x       y       z     vdW  Elec       q    Type
REMARK                         _______ _______ _______ _____ _____    ______ ____
ROOT
ATOM      1  N   UNL     1       3.157   7.160  18.086  0.00  0.00    +0.000 N 
ATOM      2  N   UNL     1       2.901   6.543  19.295  0.00  0.00    +0.000 NA
ATOM      3  C   UNL     1       2.137   7.382  19.917  0.00  0.00    +0.000 A 
ATOM      4  C   UNL     1       1.582   7.220  21.257  0.00  0.00    +0.000 A 
ATOM      5  C   UNL     1       0.776   8.184  21.709  0.00  0.00    +0.000 A 
ATOM      6  C   UNL     1       0.535   9.370  20.830  0.00  0.00    +0.000 A 
ATOM      7  N   UNL     1       1.031   9.512  19.636  0.00  0.00    +0.000 NA
ATOM      8  N   UNL     1       1.837   8.500  19.225  0.00  0.00    +0.000 N 
ATOM      9  C   UNL     1       2.483   8.397  18.004  0.00  0.00    +0.000 A 
ATOM     10  O   UNL     1       2.467   9.161  17.053  0.00  0.00    +0.000 OA
ENDROOT
BRANCH   6  11
ATOM     11  C   UNL     1      -0.340  10.435  21.387  0.00  0.00    +0.000 A 
ATOM     12  C   UNL     1      -0.758  10.349  22.714  0.00  0.00    +0.000 A 
ATOM     13  C   UNL     1      -1.586  11.338  23.247  0.00  0.00    +0.000 A 
ATOM     14  C   UNL     1      -2.019  12.419  22.461  0.00  0.00    +0.000 A 
ATOM     15  C   UNL     1      -2.916  13.454  23.081  0.00  0.00    +0.000 C 
ATOM     16  C   UNL     1      -1.615  12.499  21.115  0.00  0.00    +0.000 A 
ATOM     17  C   UNL     1      -2.030  13.607  20.185  0.00  0.00    +0.000 C 
ATOM     18  C   UNL     1      -0.778  11.500  20.592  0.00  0.00    +0.000 A 
ENDBRANCH   6  11
BRANCH   1  19
ATOM     19  C   UNL     1       3.995   6.567  17.074  0.00  0.00    +0.000 C 
BRANCH  19  21
ATOM     20  N   UNL     1       5.001   4.427  17.901  0.00  0.00    +0.000 N 
ATOM     21  C   UNL     1       5.135   5.774  17.703  0.00  0.00    +0.000 C 
ATOM     22  O   UNL     1       6.186   6.310  18.060  0.00  0.00    +0.000 OA
ATOM     23  H   UNL     1       5.809   4.002  18.337  0.00  0.00    +0.000 HD
BRANCH  20  24
ATOM     24  C   UNL     1       3.841   3.586  17.644  0.00  0.00    +0.000 C 
BRANCH  24  30
ATOM     25  C   UNL     1       3.440   2.874  20.061  0.00  0.00    +0.000 A 
ATOM     26  C   UNL     1       2.548   2.609  21.108  0.00  0.00    +0.000 A 
ATOM     27  C   UNL     1       1.186   2.888  20.973  0.00  0.00    +0.000 A 
ATOM     28  C   UNL     1       0.704   3.433  19.793  0.00  0.00    +0.000 A 
ATOM     29  C   UNL     1       1.574   3.680  18.735  0.00  0.00    +0.000 A 
ATOM     30  C   UNL     1       2.949   3.397  18.846  0.00  0.00    +0.000 A 
BRANCH  25  32
ATOM     31  C   UNL     1       5.151   1.427  20.842  0.00  0.00    +0.000 C 
ATOM     32  O   UNL     1       4.784   2.614  20.141  0.00  0.00    +0.000 OA
ENDBRANCH  25  32
ENDBRANCH  24  30
ENDBRANCH  20  24
ENDBRANCH  19  21
ENDBRANCH   1  19
TORSDOF 6
ENDMDL
MODEL 8
REMARK VINA RESULT:      -8.5      1.196      2.090
REMARK  Name = 
REMARK  9 active torsions:
REMARK  status: ('A' for Active; 'I' for Inactive)
REMARK    1  A    between atoms: C_1  and  O_2
REMARK    2  A    between atoms: O_2  and  C_3
REMARK    3  A    between atoms: C_8  and  C_9
REMARK    4  A    between atoms: C_9  and  N_10
REMARK    5  A    between atoms: C_11  and  C_13
REMARK    6  A    between atoms: C_13  and  N_14
REMARK    7  A    between atoms: C_19  and  C_20
REMARK    8  A    between atoms: C_23  and  C_24
REMARK    9  A    between atoms: C_25  and  C_26
REMARK                            x       y       z     vdW  Elec       q    Type
REMARK                         _______ _______ _______ _____ _____    ______ ____
ROOT
ATOM      1  N   UNL     1       0.168  11.278  20.253  0.00  0.00    +0.000 N 
ATOM      2  N   UNL     1       0.677  11.127  18.978  0.00  0.00    +0.000 NA
ATOM      3  C   UNL     1       1.221   9.953  18.997  0.00  0.00    +0.000 A 
ATOM      4  C   UNL     1       1.919   9.304  17.892  0.00  0.00    +0.000 A 
ATOM      5  C   UNL     1       2.376   8.066  18.096  0.00  0.00    +0.000 A 
ATOM      6  C   UNL     1       2.175   7.455  19.447  0.00  0.00    +0.000 A 
ATOM      7  N   UNL     1       1.551   8.035  20.430  0.00  0.00    +0.000 NA
ATOM      8  N   UNL     1       1.103   9.289  20.165  0.00  0.00    +0.000 N 
ATOM      9  C   UNL     1       0.408  10.121  21.026  0.00  0.00    +0.000 A 
ATOM     10  O   UNL     1       0.046   9.920  22.174  0.00  0.00    +0.000 OA
ENDROOT
BRANCH   6  11
ATOM     11  C   UNL     1       2.728   6.089  19.641  0.00  0.00    +0.000 A 
ATOM     12  C   UNL     1       3.892   5.724  18.966  0.00  0.00    +0.000 A 
ATOM     13  C   UNL     1       4.419   4.442  19.134  0.00  0.00    +0.000 A 
ATOM     14  C   UNL     1       3.786   3.504  19.967  0.00  0.00    +0.000 A 
ATOM     15  C   UNL     1       4.390   2.134  20.108  0.00  0.00    +0.000 C 
ATOM     16  C   UNL     1       2.600   3.863  20.635  0.00  0.00    +0.000 A 
ATOM     17  C   UNL     1       1.839   2.932  21.539  0.00  0.00    +0.000 C 
ATOM     18  C   UNL     1       2.083   5.157  20.461  0.00  0.00    +0.000 A 
ENDBRANCH   6  11
BRANCH   1  19
ATOM     19  C   UNL     1      -0.522  12.470  20.678  0.00  0.00    +0.000 C 
BRANCH  19  21
ATOM     20  N   UNL     1      -2.083  12.860  18.758  0.00  0.00    +0.000 N 
ATOM     21  C   UNL     1      -1.000  13.282  19.479  0.00  0.00    +0.000 C 
ATOM     22  O   UNL     1      -0.430  14.314  19.118  0.00  0.00    +0.000 OA
ATOM     23  H   UNL     1      -2.305  13.463  17.976  0.00  0.00    +0.000 HD
BRANCH  20  24
ATOM     24  C   UNL     1      -2.866  11.645  18.930  0.00  0.00    +0.000 C 
BRANCH  24  30
ATOM     25  C   UNL     1      -4.959  12.686  19.950  0.00  0.00    +0.000 A 
ATOM     26  C   UNL     1      -6.356  12.779  20.006  0.00  0.00    +0.000 A 
ATOM     27  C   UNL     1      -7.152  12.109  19.076  0.00  0.00    +0.000 A 
ATOM     28  C   UNL     1      -6.563  11.343  18.082  0.00  0.00    +0.000 A 
ATOM     29  C   UNL     1      -5.177  11.222  18.027  0.00  0.00    +0.000 A 
ATOM     30  C   UNL     1      -4.355  11.881  18.962  0.00  0.00    +0.000 A 
BRANCH  25  32
ATOM     31  C   UNL     1      -4.169  12.831  22.183  0.00  0.00    +0.000 C 
ATOM     32  O   UNL     1      -4.132  13.318  20.843  0.00  0.00    +0.000 OA
ENDBRANCH  25  32
ENDBRANCH  24  30
ENDBRANCH  20  24
ENDBRANCH  19  21
ENDBRANCH   1  19
TORSDOF 6
ENDMDL
MODEL 9
REMARK VINA RESULT:      -8.5      4.256      9.528
REMARK  Name = 
REMARK  9 active torsions:
REMARK  status: ('A' for Active; 'I' for Inactive)
REMARK    1  A    between atoms: C_1  and  O_2
REMARK    2  A    between atoms: O_2  and  C_3
REMARK    3  A    between atoms: C_8  and  C_9
REMARK    4  A    between atoms: C_9  and  N_10
REMARK    5  A    between atoms: C_11  and  C_13
REMARK    6  A    between atoms: C_13  and  N_14
REMARK    7  A    between atoms: C_19  and  C_20
REMARK    8  A    between atoms: C_23  and  C_24
REMARK    9  A    between atoms: C_25  and  C_26
REMARK                            x       y       z     vdW  Elec       q    Type
REMARK                         _______ _______ _______ _____ _____    ______ ____
ROOT
ATOM      1  N   UNL     1       2.934   5.114  18.904  0.00  0.00    +0.000 N 
ATOM      2  N   UNL     1       3.007   6.117  17.956  0.00  0.00    +0.000 NA
ATOM      3  C   UNL     1       2.430   7.125  18.526  0.00  0.00    +0.000 A 
ATOM      4  C   UNL     1       2.227   8.449  17.946  0.00  0.00    +0.000 A 
ATOM      5  C   UNL     1       1.646   9.374  18.714  0.00  0.00    +0.000 A 
ATOM      6  C   UNL     1       1.213   8.977  20.090  0.00  0.00    +0.000 A 
ATOM      7  N   UNL     1       1.395   7.796  20.605  0.00  0.00    +0.000 NA
ATOM      8  N   UNL     1       1.996   6.898  19.783  0.00  0.00    +0.000 N 
ATOM      9  C   UNL     1       2.312   5.583  20.081  0.00  0.00    +0.000 A 
ATOM     10  O   UNL     1       2.137   4.959  21.115  0.00  0.00    +0.000 OA
ENDROOT
BRANCH   6  11
ATOM     11  C   UNL     1       0.540  10.028  20.897  0.00  0.00    +0.000 A 
ATOM     12  C   UNL     1      -0.078   9.674  22.097  0.00  0.00    +0.000 A 
ATOM     13  C   UNL     1      -0.719  10.649  22.861  0.00  0.00    +0.000 A 
ATOM     14  C   UNL     1      -0.765  11.988  22.435  0.00  0.00    +0.000 A 
ATOM     15  C   UNL     1      -1.475  12.998  23.292  0.00  0.00    +0.000 C 
ATOM     16  C   UNL     1      -0.160  12.345  21.216  0.00  0.00    +0.000 A 
ATOM     17  C   UNL     1      -0.161  13.744  20.664  0.00  0.00    +0.000 C 
ATOM     18  C   UNL     1       0.487  11.355  20.458  0.00  0.00    +0.000 A 
ENDBRANCH   6  11
BRANCH   1  19
ATOM     19  C   UNL     1       3.455   3.790  18.673  0.00  0.00    +0.000 C 
BRANCH  19  21
ATOM     20  N   UNL     1       5.571   3.877  17.336  0.00  0.00    +0.000 N 
ATOM     21  C   UNL     1       4.976   3.811  18.566  0.00  0.00    +0.000 C 
ATOM     22  O   UNL     1       5.703   3.756  19.559  0.00  0.00    +0.000 OA
ATOM     23  H   UNL     1       6.582   3.871  17.378  0.00  0.00    +0.000 HD
BRANCH  20  24
ATOM     24  C   UNL     1       4.941   3.867  16.024  0.00  0.00    +0.000 C 
BRANCH  24  30
ATOM     25  C   UNL     1       7.057   4.917  15.063  0.00  0.00    +0.000 A 
ATOM     26  C   UNL     1       7.849   5.234  13.951  0.00  0.00    +0.000 A 
ATOM     27  C   UNL     1       7.519   4.756  12.681  0.00  0.00    +0.000 A 
ATOM     28  C   UNL     1       6.397   3.960  12.510  0.00  0.00    +0.000 A 
ATOM     29  C   UNL     1       5.587   3.656  13.600  0.00  0.00    +0.000 A 
ATOM     30  C   UNL     1       5.896   4.135  14.888  0.00  0.00    +0.000 A 
BRANCH  25  32
ATOM     31  C   UNL     1       7.147   6.762  16.553  0.00  0.00    +0.000 C 
ATOM     32  O   UNL     1       7.334   5.365  16.328  0.00  0.00    +0.000 OA
ENDBRANCH  25  32
ENDBRANCH  24  30
ENDBRANCH  20  24
ENDBRANCH  19  21
ENDBRANCH   1  19
TORSDOF 6
ENDMDL
