MODEL 1
REMARK VINA RESULT:      -7.1      0.000      0.000
REMARK  Name = 
REMARK  3 active torsions:
REMARK  status: ('A' for Active; 'I' for Inactive)
REMARK    1  A    between atoms: C_2  and  O_10
REMARK    2  A    between atoms: N_3  and  C_4
REMARK    3  A    between atoms: O_10  and  C_11
REMARK                            x       y       z     vdW  Elec       q    Type
REMARK                         _______ _______ _______ _____ _____    ______ ____
ROOT
ATOM      1  C   UNL     1       6.012   4.954  17.838  0.00  0.00    +0.000 A 
ATOM      2  C   UNL     1       7.150   5.776  17.668  0.00  0.00    +0.000 A 
ATOM      3 CL   UNL     1       7.987   6.490  18.993  0.00  0.00    +0.000 Cl
ATOM      4  C   UNL     1       7.690   5.980  16.398  0.00  0.00    +0.000 A 
ATOM      5  C   UNL     1       7.150   5.285  15.324  0.00  0.00    +0.000 A 
ATOM      6  O   UNL     1       7.695   5.452  14.053  0.00  0.00    +0.000 OA
ATOM      7  C   UNL     1       7.024   4.583  13.194  0.00  0.00    +0.000 A 
ATOM      8  O   UNL     1       7.301   4.490  12.013  0.00  0.00    +0.000 OA
ATOM      9  S   UNL     1       5.744   3.620  13.938  0.00  0.00    +0.000 S 
ATOM     10  C   UNL     1       6.098   4.390  15.483  0.00  0.00    +0.000 A 
ATOM     11  C   UNL     1       5.511   4.220  16.741  0.00  0.00    +0.000 A 
ATOM     12 CL   UNL     1       4.208   3.106  16.947  0.00  0.00    +0.000 Cl
ENDROOT
BRANCH   1  13
ATOM     13  O   UNL     1       5.445   4.739  19.126  0.00  0.00    +0.000 OA
BRANCH  13  15
ATOM     14  O   UNL     1       3.821   6.395  19.323  0.00  0.00    +0.000 OA
ATOM     15  C   UNL     1       4.204   5.276  19.557  0.00  0.00    +0.000 C 
ATOM     16  N   UNL     1       3.488   4.316  20.249  0.00  0.00    +0.000 N 
ATOM     17  H   UNL     1       3.982   3.513  20.625  0.00  0.00    +0.000 HD
BRANCH  16  18
ATOM     18  C   UNL     1       2.060   4.428  20.531  0.00  0.00    +0.000 C 
ATOM     19  C   UNL     1       1.291   4.834  19.260  0.00  0.00    +0.000 C 
ATOM     20  C   UNL     1       1.203   3.705  18.232  0.00  0.00    +0.000 C 
ATOM     21  C   UNL     1       0.652   2.423  18.845  0.00  0.00    +0.000 C 
ATOM     22  C   UNL     1       1.431   2.009  20.091  0.00  0.00    +0.000 C 
ATOM     23  C   UNL     1       1.488   3.133  21.123  0.00  0.00    +0.000 C 
ENDBRANCH  16  18
ENDBRANCH  13  15
ENDBRANCH   1  13
TORSDOF 3
ENDMDL
MODEL 2
REMARK VINA RESULT:      -6.4      3.593      7.237
REMARK  Name = 
REMARK  3 active torsions:
REMARK  status: ('A' for Active; 'I' for Inactive)
REMARK    1  A    between atoms: C_2  and  O_10
REMARK    2  A    between atoms: N_3  and  C_4
REMARK    3  A    between atoms: O_10  and  C_11
REMARK                            x       y       z     vdW  Elec       q    Type
REMARK                         _______ _______ _______ _____ _____    ______ ____
ROOT
ATOM      1  C   UNL     1       2.444   5.690  18.614  0.00  0.00    +0.000 A 
ATOM      2  C   UNL     1       2.163   5.076  19.856  0.00  0.00    +0.000 A 
ATOM      3 CL   UNL     1       2.507   3.419  20.173  0.00  0.00    +0.000 Cl
ATOM      4  C   UNL     1       1.657   5.829  20.916  0.00  0.00    +0.000 A 
ATOM      5  C   UNL     1       1.527   7.202  20.758  0.00  0.00    +0.000 A 
ATOM      6  O   UNL     1       1.051   7.975  21.815  0.00  0.00    +0.000 OA
ATOM      7  C   UNL     1       1.104   9.308  21.413  0.00  0.00    +0.000 A 
ATOM      8  O   UNL     1       0.770  10.223  22.143  0.00  0.00    +0.000 OA
ATOM      9  S   UNL     1       1.694   9.584  19.771  0.00  0.00    +0.000 S 
ATOM     10  C   UNL     1       1.896   7.843  19.581  0.00  0.00    +0.000 A 
ATOM     11  C   UNL     1       2.351   7.094  18.491  0.00  0.00    +0.000 A 
ATOM     12 CL   UNL     1       2.817   7.883  17.028  0.00  0.00    +0.000 Cl
ENDROOT
BRANCH   1  13
ATOM     13  O   UNL     1       2.957   4.936  17.520  0.00  0.00    +0.000 OA
BRANCH  13  15
ATOM     14  O   UNL     1       4.528   3.223  17.403  0.00  0.00    +0.000 OA
ATOM     15  C   UNL     1       4.269   4.399  17.459  0.00  0.00    +0.000 C 
ATOM     16  N   UNL     1       5.198   5.423  17.434  0.00  0.00    +0.000 N 
ATOM     17  H   UNL     1       4.918   6.346  17.751  0.00  0.00    +0.000 HD
BRANCH  16  18
ATOM     18  C   UNL     1       6.591   5.233  17.042  0.00  0.00    +0.000 C 
ATOM     19  C   UNL     1       7.164   6.534  16.448  0.00  0.00    +0.000 C 
ATOM     20  C   UNL     1       7.399   7.617  17.502  0.00  0.00    +0.000 C 
ATOM     21  C   UNL     1       8.242   7.103  18.663  0.00  0.00    +0.000 C 
ATOM     22  C   UNL     1       7.660   5.827  19.266  0.00  0.00    +0.000 C 
ATOM     23  C   UNL     1       7.456   4.743  18.211  0.00  0.00    +0.000 C 
ENDBRANCH  16  18
ENDBRANCH  13  15
ENDBRANCH   1  13
TORSDOF 3
ENDMDL
MODEL 3
REMARK VINA RESULT:      -6.4      4.593      5.987
REMARK  Name = 
REMARK  3 active torsions:
REMARK  status: ('A' for Active; 'I' for Inactive)
REMARK    1  A    between atoms: C_2  and  O_10
REMARK    2  A    between atoms: N_3  and  C_4
REMARK    3  A    between atoms: O_10  and  C_11
REMARK                            x       y       z     vdW  Elec       q    Type
REMARK                         _______ _______ _______ _____ _____    ______ ____
ROOT
ATOM      1  C   UNL     1       2.721   6.508  19.232  0.00  0.00    +0.000 A 
ATOM      2  C   UNL     1       2.888   5.285  19.922  0.00  0.00    +0.000 A 
ATOM      3 CL   UNL     1       1.658   4.604  20.916  0.00  0.00    +0.000 Cl
ATOM      4  C   UNL     1       4.052   4.534  19.755  0.00  0.00    +0.000 A 
ATOM      5  C   UNL     1       4.995   4.960  18.830  0.00  0.00    +0.000 A 
ATOM      6  O   UNL     1       6.150   4.207  18.629  0.00  0.00    +0.000 OA
ATOM      7  C   UNL     1       6.867   4.813  17.599  0.00  0.00    +0.000 A 
ATOM      8  O   UNL     1       7.919   4.363  17.184  0.00  0.00    +0.000 OA
ATOM      9  S   UNL     1       6.145   6.281  16.932  0.00  0.00    +0.000 S 
ATOM     10  C   UNL     1       4.805   6.104  18.063  0.00  0.00    +0.000 A 
ATOM     11  C   UNL     1       3.670   6.896  18.261  0.00  0.00    +0.000 A 
ATOM     12 CL   UNL     1       3.425   8.315  17.308  0.00  0.00    +0.000 Cl
ENDROOT
BRANCH   1  13
ATOM     13  O   UNL     1       1.542   7.289  19.394  0.00  0.00    +0.000 OA
BRANCH  13  15
ATOM     14  O   UNL     1       1.545   8.067  21.588  0.00  0.00    +0.000 OA
ATOM     15  C   UNL     1       1.355   8.259  20.412  0.00  0.00    +0.000 C 
ATOM     16  N   UNL     1       0.961   9.462  19.855  0.00  0.00    +0.000 N 
ATOM     17  H   UNL     1       0.572   9.462  18.916  0.00  0.00    +0.000 HD
BRANCH  16  18
ATOM     18  C   UNL     1       1.007  10.732  20.571  0.00  0.00    +0.000 C 
ATOM     19  C   UNL     1       1.483  11.860  19.635  0.00  0.00    +0.000 C 
ATOM     20  C   UNL     1       0.432  12.253  18.595  0.00  0.00    +0.000 C 
ATOM     21  C   UNL     1      -0.909  12.580  19.243  0.00  0.00    +0.000 C 
ATOM     22  C   UNL     1      -1.390  11.452  20.151  0.00  0.00    +0.000 C 
ATOM     23  C   UNL     1      -0.346  11.086  21.203  0.00  0.00    +0.000 C 
ENDBRANCH  16  18
ENDBRANCH  13  15
ENDBRANCH   1  13
TORSDOF 3
ENDMDL
MODEL 4
REMARK VINA RESULT:      -6.4      4.882      6.681
REMARK  Name = 
REMARK  3 active torsions:
REMARK  status: ('A' for Active; 'I' for Inactive)
REMARK    1  A    between atoms: C_2  and  O_10
REMARK    2  A    between atoms: N_3  and  C_4
REMARK    3  A    between atoms: O_10  and  C_11
REMARK                            x       y       z     vdW  Elec       q    Type
REMARK                         _______ _______ _______ _____ _____    ______ ____
ROOT
ATOM      1  C   UNL     1       2.870   7.116  18.909  0.00  0.00    +0.000 A 
ATOM      2  C   UNL     1       2.144   6.592  20.003  0.00  0.00    +0.000 A 
ATOM      3 CL   UNL     1       1.128   7.565  20.997  0.00  0.00    +0.000 Cl
ATOM      4  C   UNL     1       2.168   5.224  20.275  0.00  0.00    +0.000 A 
ATOM      5  C   UNL     1       2.835   4.380  19.397  0.00  0.00    +0.000 A 
ATOM      6  O   UNL     1       2.844   3.007  19.635  0.00  0.00    +0.000 OA
ATOM      7  C   UNL     1       3.504   2.404  18.565  0.00  0.00    +0.000 A 
ATOM      8  O   UNL     1       3.648   1.199  18.485  0.00  0.00    +0.000 OA
ATOM      9  S   UNL     1       4.115   3.508  17.329  0.00  0.00    +0.000 S 
ATOM     10  C   UNL     1       3.467   4.861  18.256  0.00  0.00    +0.000 A 
ATOM     11  C   UNL     1       3.500   6.236  18.003  0.00  0.00    +0.000 A 
ATOM     12 CL   UNL     1       4.279   6.840  16.585  0.00  0.00    +0.000 Cl
ENDROOT
BRANCH   1  13
ATOM     13  O   UNL     1       2.861   8.511  18.620  0.00  0.00    +0.000 OA
BRANCH  13  15
ATOM     14  O   UNL     1       1.072   8.857  17.172  0.00  0.00    +0.000 OA
ATOM     15  C   UNL     1       1.744   9.218  18.107  0.00  0.00    +0.000 C 
ATOM     16  N   UNL     1       1.517  10.356  18.859  0.00  0.00    +0.000 N 
ATOM     17  H   UNL     1       2.268  10.717  19.439  0.00  0.00    +0.000 HD
BRANCH  16  18
ATOM     18  C   UNL     1       0.271  11.114  18.812  0.00  0.00    +0.000 C 
ATOM     19  C   UNL     1      -0.748  10.537  19.814  0.00  0.00    +0.000 C 
ATOM     20  C   UNL     1      -0.385  10.836  21.270  0.00  0.00    +0.000 C 
ATOM     21  C   UNL     1      -0.144  12.323  21.498  0.00  0.00    +0.000 C 
ATOM     22  C   UNL     1       0.883  12.888  20.521  0.00  0.00    +0.000 C 
ATOM     23  C   UNL     1       0.498  12.610  19.070  0.00  0.00    +0.000 C 
ENDBRANCH  16  18
ENDBRANCH  13  15
ENDBRANCH   1  13
TORSDOF 3
ENDMDL
MODEL 5
REMARK VINA RESULT:      -6.4      2.970      6.697
REMARK  Name = 
REMARK  3 active torsions:
REMARK  status: ('A' for Active; 'I' for Inactive)
REMARK    1  A    between atoms: C_2  and  O_10
REMARK    2  A    between atoms: N_3  and  C_4
REMARK    3  A    between atoms: O_10  and  C_11
REMARK                            x       y       z     vdW  Elec       q    Type
REMARK                         _______ _______ _______ _____ _____    ______ ____
ROOT
ATOM      1  C   UNL     1       3.285   4.605  17.553  0.00  0.00    +0.000 A 
ATOM      2  C   UNL     1       3.174   5.754  18.369  0.00  0.00    +0.000 A 
ATOM      3 CL   UNL     1       3.462   7.346  17.778  0.00  0.00    +0.000 Cl
ATOM      4  C   UNL     1       2.744   5.641  19.692  0.00  0.00    +0.000 A 
ATOM      5  C   UNL     1       2.336   4.399  20.158  0.00  0.00    +0.000 A 
ATOM      6  O   UNL     1       1.874   4.272  21.466  0.00  0.00    +0.000 OA
ATOM      7  C   UNL     1       1.457   2.953  21.635  0.00  0.00    +0.000 A 
ATOM      8  O   UNL     1       0.982   2.548  22.679  0.00  0.00    +0.000 OA
ATOM      9  S   UNL     1       1.663   1.906  20.227  0.00  0.00    +0.000 S 
ATOM     10  C   UNL     1       2.336   3.274  19.341  0.00  0.00    +0.000 A 
ATOM     11  C   UNL     1       2.819   3.361  18.032  0.00  0.00    +0.000 A 
ATOM     12 CL   UNL     1       2.818   1.968  17.011  0.00  0.00    +0.000 Cl
ENDROOT
BRANCH   1  13
ATOM     13  O   UNL     1       3.728   4.701  16.203  0.00  0.00    +0.000 OA
BRANCH  13  15
ATOM     14  O   UNL     1       5.439   4.454  14.644  0.00  0.00    +0.000 OA
ATOM     15  C   UNL     1       5.079   4.571  15.790  0.00  0.00    +0.000 C 
ATOM     16  N   UNL     1       5.918   4.637  16.887  0.00  0.00    +0.000 N 
ATOM     17  H   UNL     1       5.531   4.467  17.810  0.00  0.00    +0.000 HD
BRANCH  16  18
ATOM     18  C   UNL     1       7.355   4.871  16.785  0.00  0.00    +0.000 C 
ATOM     19  C   UNL     1       7.633   6.308  16.305  0.00  0.00    +0.000 C 
ATOM     20  C   UNL     1       7.334   7.361  17.373  0.00  0.00    +0.000 C 
ATOM     21  C   UNL     1       8.045   7.053  18.685  0.00  0.00    +0.000 C 
ATOM     22  C   UNL     1       7.749   5.637  19.172  0.00  0.00    +0.000 C 
ATOM     23  C   UNL     1       8.078   4.592  18.109  0.00  0.00    +0.000 C 
ENDBRANCH  16  18
ENDBRANCH  13  15
ENDBRANCH   1  13
TORSDOF 3
ENDMDL
MODEL 6
REMARK VINA RESULT:      -6.4      9.305     11.587
REMARK  Name = 
REMARK  3 active torsions:
REMARK  status: ('A' for Active; 'I' for Inactive)
REMARK    1  A    between atoms: C_2  and  O_10
REMARK    2  A    between atoms: N_3  and  C_4
REMARK    3  A    between atoms: O_10  and  C_11
REMARK                            x       y       z     vdW  Elec       q    Type
REMARK                         _______ _______ _______ _____ _____    ______ ____
ROOT
ATOM      1  C   UNL     1      -2.040  11.784  19.129  0.00  0.00    +0.000 A 
ATOM      2  C   UNL     1      -2.354  12.402  20.361  0.00  0.00    +0.000 A 
ATOM      3 CL   UNL     1      -3.692  13.469  20.553  0.00  0.00    +0.000 Cl
ATOM      4  C   UNL     1      -1.617  12.101  21.508  0.00  0.00    +0.000 A 
ATOM      5  C   UNL     1      -0.641  11.117  21.437  0.00  0.00    +0.000 A 
ATOM      6  O   UNL     1       0.084  10.782  22.578  0.00  0.00    +0.000 OA
ATOM      7  C   UNL     1       0.923   9.722  22.242  0.00  0.00    +0.000 A 
ATOM      8  O   UNL     1       1.666   9.197  23.050  0.00  0.00    +0.000 OA
ATOM      9  S   UNL     1       0.833   9.185  20.562  0.00  0.00    +0.000 S 
ATOM     10  C   UNL     1      -0.387  10.421  20.260  0.00  0.00    +0.000 A 
ATOM     11  C   UNL     1      -1.077  10.751  19.090  0.00  0.00    +0.000 A 
ATOM     12 CL   UNL     1      -0.771   9.887  17.627  0.00  0.00    +0.000 Cl
ENDROOT
BRANCH   1  13
ATOM     13  O   UNL     1      -2.778  12.082  17.948  0.00  0.00    +0.000 OA
BRANCH  13  15
ATOM     14  O   UNL     1      -4.018  10.318  17.070  0.00  0.00    +0.000 OA
ATOM     15  C   UNL     1      -3.971  11.421  17.557  0.00  0.00    +0.000 C 
ATOM     16  N   UNL     1      -5.068  12.209  17.853  0.00  0.00    +0.000 N 
ATOM     17  H   UNL     1      -4.929  13.204  18.005  0.00  0.00    +0.000 HD
BRANCH  16  18
ATOM     18  C   UNL     1      -6.435  11.701  17.891  0.00  0.00    +0.000 C 
ATOM     19  C   UNL     1      -6.626  10.758  19.094  0.00  0.00    +0.000 C 
ATOM     20  C   UNL     1      -6.650  11.498  20.432  0.00  0.00    +0.000 C 
ATOM     21  C   UNL     1      -7.668  12.632  20.433  0.00  0.00    +0.000 C 
ATOM     22  C   UNL     1      -7.463  13.579  19.254  0.00  0.00    +0.000 C 
ATOM     23  C   UNL     1      -7.469  12.835  17.921  0.00  0.00    +0.000 C 
ENDBRANCH  16  18
ENDBRANCH  13  15
ENDBRANCH   1  13
TORSDOF 3
ENDMDL
MODEL 7
REMARK VINA RESULT:      -6.3      5.916      8.404
REMARK  Name = 
REMARK  3 active torsions:
REMARK  status: ('A' for Active; 'I' for Inactive)
REMARK    1  A    between atoms: C_2  and  O_10
REMARK    2  A    between atoms: N_3  and  C_4
REMARK    3  A    between atoms: O_10  and  C_11
REMARK                            x       y       z     vdW  Elec       q    Type
REMARK                         _______ _______ _______ _____ _____    ______ ____
ROOT
ATOM      1  C   UNL     1       1.205   9.189  20.378  0.00  0.00    +0.000 A 
ATOM      2  C   UNL     1       1.021   9.504  19.012  0.00  0.00    +0.000 A 
ATOM      3 CL   UNL     1       1.741   8.591  17.742  0.00  0.00    +0.000 Cl
ATOM      4  C   UNL     1       0.169  10.543  18.637  0.00  0.00    +0.000 A 
ATOM      5  C   UNL     1      -0.565  11.194  19.619  0.00  0.00    +0.000 A 
ATOM      6  O   UNL     1      -1.444  12.214  19.261  0.00  0.00    +0.000 OA
ATOM      7  C   UNL     1      -2.101  12.624  20.419  0.00  0.00    +0.000 A 
ATOM      8  O   UNL     1      -2.951  13.494  20.413  0.00  0.00    +0.000 OA
ATOM      9  S   UNL     1      -1.619  11.792  21.901  0.00  0.00    +0.000 S 
ATOM     10  C   UNL     1      -0.480  10.830  20.959  0.00  0.00    +0.000 A 
ATOM     11  C   UNL     1       0.412   9.830  21.356  0.00  0.00    +0.000 A 
ATOM     12 CL   UNL     1       0.519   9.370  23.017  0.00  0.00    +0.000 Cl
ENDROOT
BRANCH   1  13
ATOM     13  O   UNL     1       2.074   8.135  20.780  0.00  0.00    +0.000 OA
BRANCH  13  15
ATOM     14  O   UNL     1       0.791   6.193  20.768  0.00  0.00    +0.000 OA
ATOM     15  C   UNL     1       1.832   6.758  20.539  0.00  0.00    +0.000 C 
ATOM     16  N   UNL     1       2.948   6.174  19.969  0.00  0.00    +0.000 N 
ATOM     17  H   UNL     1       3.845   6.641  20.059  0.00  0.00    +0.000 HD
BRANCH  16  18
ATOM     18  C   UNL     1       2.922   4.878  19.299  0.00  0.00    +0.000 C 
ATOM     19  C   UNL     1       2.823   5.063  17.773  0.00  0.00    +0.000 C 
ATOM     20  C   UNL     1       4.121   5.584  17.151  0.00  0.00    +0.000 C 
ATOM     21  C   UNL     1       5.319   4.727  17.544  0.00  0.00    +0.000 C 
ATOM     22  C   UNL     1       5.429   4.564  19.057  0.00  0.00    +0.000 C 
ATOM     23  C   UNL     1       4.139   4.017  19.664  0.00  0.00    +0.000 C 
ENDBRANCH  16  18
ENDBRANCH  13  15
ENDBRANCH   1  13
TORSDOF 3
ENDMDL
MODEL 8
REMARK VINA RESULT:      -6.3      3.044      7.049
REMARK  Name = 
REMARK  3 active torsions:
REMARK  status: ('A' for Active; 'I' for Inactive)
REMARK    1  A    between atoms: C_2  and  O_10
REMARK    2  A    between atoms: N_3  and  C_4
REMARK    3  A    between atoms: O_10  and  C_11
REMARK                            x       y       z     vdW  Elec       q    Type
REMARK                         _______ _______ _______ _____ _____    ______ ____
ROOT
ATOM      1  C   UNL     1       3.800   5.944  17.648  0.00  0.00    +0.000 A 
ATOM      2  C   UNL     1       3.055   6.900  18.376  0.00  0.00    +0.000 A 
ATOM      3 CL   UNL     1       2.815   8.512  17.819  0.00  0.00    +0.000 Cl
ATOM      4  C   UNL     1       2.410   6.539  19.560  0.00  0.00    +0.000 A 
ATOM      5  C   UNL     1       2.435   5.208  19.955  0.00  0.00    +0.000 A 
ATOM      6  O   UNL     1       1.771   4.824  21.118  0.00  0.00    +0.000 OA
ATOM      7  C   UNL     1       1.887   3.439  21.225  0.00  0.00    +0.000 A 
ATOM      8  O   UNL     1       1.384   2.811  22.137  0.00  0.00    +0.000 OA
ATOM      9  S   UNL     1       2.814   2.653  19.942  0.00  0.00    +0.000 S 
ATOM     10  C   UNL     1       3.072   4.231  19.199  0.00  0.00    +0.000 A 
ATOM     11  C   UNL     1       3.771   4.588  18.042  0.00  0.00    +0.000 A 
ATOM     12 CL   UNL     1       4.560   3.378  17.096  0.00  0.00    +0.000 Cl
ENDROOT
BRANCH   1  13
ATOM     13  O   UNL     1       4.468   6.295  16.441  0.00  0.00    +0.000 OA
BRANCH  13  15
ATOM     14  O   UNL     1       6.760   6.123  16.813  0.00  0.00    +0.000 OA
ATOM     15  C   UNL     1       5.797   5.915  16.118  0.00  0.00    +0.000 C 
ATOM     16  N   UNL     1       5.816   5.239  14.911  0.00  0.00    +0.000 N 
ATOM     17  H   UNL     1       5.028   5.344  14.279  0.00  0.00    +0.000 HD
BRANCH  16  18
ATOM     18  C   UNL     1       6.946   4.433  14.460  0.00  0.00    +0.000 C 
ATOM     19  C   UNL     1       6.450   3.210  13.666  0.00  0.00    +0.000 C 
ATOM     20  C   UNL     1       5.902   3.578  12.286  0.00  0.00    +0.000 C 
ATOM     21  C   UNL     1       6.898   4.409  11.486  0.00  0.00    +0.000 C 
ATOM     22  C   UNL     1       7.370   5.634  12.264  0.00  0.00    +0.000 C 
ATOM     23  C   UNL     1       7.941   5.254  13.628  0.00  0.00    +0.000 C 
ENDBRANCH  16  18
ENDBRANCH  13  15
ENDBRANCH   1  13
TORSDOF 3
ENDMDL
MODEL 9
REMARK VINA RESULT:      -6.3      3.620      6.926
REMARK  Name = 
REMARK  3 active torsions:
REMARK  status: ('A' for Active; 'I' for Inactive)
REMARK    1  A    between atoms: C_2  and  O_10
REMARK    2  A    between atoms: N_3  and  C_4
REMARK    3  A    between atoms: O_10  and  C_11
REMARK                            x       y       z     vdW  Elec       q    Type
REMARK                         _______ _______ _______ _____ _____    ______ ____
ROOT
ATOM      1  C   UNL     1       2.680   5.554  19.262  0.00  0.00    +0.000 A 
ATOM      2  C   UNL     1       2.061   5.575  20.533  0.00  0.00    +0.000 A 
ATOM      3 CL   UNL     1       2.170   4.261  21.641  0.00  0.00    +0.000 Cl
ATOM      4  C   UNL     1       1.391   6.717  20.973  0.00  0.00    +0.000 A 
ATOM      5  C   UNL     1       1.427   7.858  20.183  0.00  0.00    +0.000 A 
ATOM      6  O   UNL     1       0.789   9.017  20.619  0.00  0.00    +0.000 OA
ATOM      7  C   UNL     1       1.055  10.016  19.684  0.00  0.00    +0.000 A 
ATOM      8  O   UNL     1       0.643  11.154  19.811  0.00  0.00    +0.000 OA
ATOM      9  S   UNL     1       2.035   9.520  18.301  0.00  0.00    +0.000 S 
ATOM     10  C   UNL     1       2.118   7.894  18.977  0.00  0.00    +0.000 A 
ATOM     11  C   UNL     1       2.745   6.740  18.497  0.00  0.00    +0.000 A 
ATOM     12 CL   UNL     1       3.610   6.779  17.003  0.00  0.00    +0.000 Cl
ENDROOT
BRANCH   1  13
ATOM     13  O   UNL     1       3.364   4.396  18.795  0.00  0.00    +0.000 OA
BRANCH  13  15
ATOM     14  O   UNL     1       5.114   3.048  19.527  0.00  0.00    +0.000 OA
ATOM     15  C   UNL     1       4.721   4.096  19.078  0.00  0.00    +0.000 C 
ATOM     16  N   UNL     1       5.525   5.165  18.728  0.00  0.00    +0.000 N 
ATOM     17  H   UNL     1       5.101   6.081  18.616  0.00  0.00    +0.000 HD
BRANCH  16  18
ATOM     18  C   UNL     1       6.973   5.065  18.576  0.00  0.00    +0.000 C 
ATOM     19  C   UNL     1       7.330   4.453  17.208  0.00  0.00    +0.000 C 
ATOM     20  C   UNL     1       7.072   5.410  16.043  0.00  0.00    +0.000 C 
ATOM     21  C   UNL     1       7.752   6.757  16.257  0.00  0.00    +0.000 C 
ATOM     22  C   UNL     1       7.379   7.373  17.602  0.00  0.00    +0.000 C 
ATOM     23  C   UNL     1       7.666   6.421  18.762  0.00  0.00    +0.000 C 
ENDBRANCH  16  18
ENDBRANCH  13  15
ENDBRANCH   1  13
TORSDOF 3
ENDMDL
