MODEL 1
REMARK VINA RESULT:      -8.1      0.000      0.000
REMARK  Name = 
REMARK  10 active torsions:
REMARK  status: ('A' for Active; 'I' for Inactive)
REMARK    1  A    between atoms: C_1  and  C_2
REMARK    2  A    between atoms: C_2  and  N_3
REMARK    3  A    between atoms: C_2  and  C_14
REMARK    4  A    between atoms: C_4  and  O_6
REMARK    5  A    between atoms: O_6  and  C_7
REMARK    6  A    between atoms: C_7  and  C_8
REMARK    7  A    between atoms: N_16  and  C_17
REMARK    8  A    between atoms: C_17  and  C_18
REMARK    9  A    between atoms: C_17  and  C_25
REMARK   10  A    between atoms: C_18  and  C_19
REMARK                            x       y       z     vdW  Elec       q    Type
REMARK                         _______ _______ _______ _____ _____    ______ ____
ROOT
ATOM      1  C   UNL     1       6.247   5.125  18.823  0.00  0.00    +0.000 C 
ATOM      2  O   UNL     1       6.049   5.638  19.923  0.00  0.00    +0.000 OA
ATOM      3  N   UNL     1       5.448   4.121  18.319  0.00  0.00    +0.000 N 
ATOM      4  H   UNL     1       5.902   3.467  17.684  0.00  0.00    +0.000 HD
ENDROOT
BRANCH   1   6
ATOM      5  C   UNL     1       7.812   6.917  17.843  0.00  0.00    +0.000 C 
ATOM      6  C   UNL     1       7.526   5.429  18.004  0.00  0.00    +0.000 C 
BRANCH   6   7
ATOM      7  N   UNL     1       7.523   4.701  16.742  0.00  0.00    +0.000 N 
ATOM      8  C   UNL     1       6.762   5.050  15.672  0.00  0.00    +0.000 C 
ATOM      9  O   UNL     1       6.029   6.029  15.632  0.00  0.00    +0.000 OA
ATOM     10  H   UNL     1       7.999   3.813  16.677  0.00  0.00    +0.000 HD
BRANCH   8  11
ATOM     11  O   UNL     1       6.874   4.105  14.715  0.00  0.00    +0.000 OA
BRANCH  11  12
ATOM     12  C   UNL     1       7.055   4.600  13.377  0.00  0.00    +0.000 C 
BRANCH  12  13
ATOM     13  C   UNL     1       6.441   3.603  12.424  0.00  0.00    +0.000 A 
ATOM     14  C   UNL     1       5.063   3.593  12.176  0.00  0.00    +0.000 A 
ATOM     15  C   UNL     1       4.498   2.609  11.360  0.00  0.00    +0.000 A 
ATOM     16  C   UNL     1       5.298   1.608  10.812  0.00  0.00    +0.000 A 
ATOM     17  C   UNL     1       6.675   1.628  11.022  0.00  0.00    +0.000 A 
ATOM     18  C   UNL     1       7.246   2.630  11.808  0.00  0.00    +0.000 A 
ENDBRANCH  12  13
ENDBRANCH  11  12
ENDBRANCH   8  11
ENDBRANCH   6   7
ENDBRANCH   1   6
BRANCH   3  19
ATOM     19  C   UNL     1       4.234   3.631  18.995  0.00  0.00    +0.000 C 
BRANCH  19  20
ATOM     20  C   UNL     1       4.167   2.098  18.987  0.00  0.00    +0.000 C 
ATOM     21  N   UNL     1       5.038   1.477  19.823  0.00  0.00    +0.000 N 
ATOM     22  O   UNL     1       3.299   1.443  18.413  0.00  0.00    +0.000 OA
ATOM     23  H   UNL     1       5.825   1.954  20.240  0.00  0.00    +0.000 HD
ATOM     24  H   UNL     1       5.006   0.474  19.879  0.00  0.00    +0.000 HD
ENDBRANCH  19  20
BRANCH  19  25
ATOM     25  C   UNL     1       2.950   4.179  18.346  0.00  0.00    +0.000 C 
BRANCH  25  26
ATOM     26  C   UNL     1       2.631   5.587  18.787  0.00  0.00    +0.000 A 
ATOM     27  C   UNL     1       2.187   5.835  20.090  0.00  0.00    +0.000 A 
ATOM     28  C   UNL     1       1.791   7.119  20.462  0.00  0.00    +0.000 A 
ATOM     29  C   UNL     1       1.852   8.164  19.541  0.00  0.00    +0.000 A 
ATOM     30  C   UNL     1       2.347   7.937  18.260  0.00  0.00    +0.000 A 
ATOM     31  C   UNL     1       2.751   6.657  17.889  0.00  0.00    +0.000 A 
ENDBRANCH  25  26
ENDBRANCH  19  25
ENDBRANCH   3  19
TORSDOF 9
ENDMDL
MODEL 2
REMARK VINA RESULT:      -8.0      3.447      6.825
REMARK  Name = 
REMARK  10 active torsions:
REMARK  status: ('A' for Active; 'I' for Inactive)
REMARK    1  A    between atoms: C_1  and  C_2
REMARK    2  A    between atoms: C_2  and  N_3
REMARK    3  A    between atoms: C_2  and  C_14
REMARK    4  A    between atoms: C_4  and  O_6
REMARK    5  A    between atoms: O_6  and  C_7
REMARK    6  A    between atoms: C_7  and  C_8
REMARK    7  A    between atoms: N_16  and  C_17
REMARK    8  A    between atoms: C_17  and  C_18
REMARK    9  A    between atoms: C_17  and  C_25
REMARK   10  A    between atoms: C_18  and  C_19
REMARK                            x       y       z     vdW  Elec       q    Type
REMARK                         _______ _______ _______ _____ _____    ______ ____
ROOT
ATOM      1  C   UNL     1       7.162   5.130  18.107  0.00  0.00    +0.000 C 
ATOM      2  O   UNL     1       7.507   4.241  17.329  0.00  0.00    +0.000 OA
ATOM      3  N   UNL     1       5.889   5.658  18.110  0.00  0.00    +0.000 N 
ATOM      4  H   UNL     1       5.810   6.627  18.413  0.00  0.00    +0.000 HD
ENDROOT
BRANCH   1   6
ATOM      5  C   UNL     1       8.177   5.389  20.457  0.00  0.00    +0.000 C 
ATOM      6  C   UNL     1       8.187   5.862  19.008  0.00  0.00    +0.000 C 
BRANCH   6   7
ATOM      7  N   UNL     1       8.063   7.307  18.871  0.00  0.00    +0.000 N 
ATOM      8  C   UNL     1       7.964   7.946  17.676  0.00  0.00    +0.000 C 
ATOM      9  O   UNL     1       7.928   7.384  16.590  0.00  0.00    +0.000 OA
ATOM     10  H   UNL     1       8.189   7.898  19.681  0.00  0.00    +0.000 HD
BRANCH   8  11
ATOM     11  O   UNL     1       8.007   9.280  17.876  0.00  0.00    +0.000 OA
BRANCH  11  12
ATOM     12  C   UNL     1       8.960   9.726  18.856  0.00  0.00    +0.000 C 
BRANCH  12  13
ATOM     13  C   UNL     1       9.539  11.037  18.382  0.00  0.00    +0.000 A 
ATOM     14  C   UNL     1       8.721  12.155  18.172  0.00  0.00    +0.000 A 
ATOM     15  C   UNL     1       9.257  13.335  17.647  0.00  0.00    +0.000 A 
ATOM     16  C   UNL     1      10.605  13.399  17.299  0.00  0.00    +0.000 A 
ATOM     17  C   UNL     1      11.436  12.306  17.537  0.00  0.00    +0.000 A 
ATOM     18  C   UNL     1      10.910  11.138  18.092  0.00  0.00    +0.000 A 
ENDBRANCH  12  13
ENDBRANCH  11  12
ENDBRANCH   8  11
ENDBRANCH   6   7
ENDBRANCH   1   6
BRANCH   3  19
ATOM     19  C   UNL     1       4.797   5.155  17.259  0.00  0.00    +0.000 C 
BRANCH  19  20
ATOM     20  C   UNL     1       5.056   5.454  15.777  0.00  0.00    +0.000 C 
ATOM     21  N   UNL     1       5.251   6.764  15.477  0.00  0.00    +0.000 N 
ATOM     22  O   UNL     1       5.247   4.597  14.917  0.00  0.00    +0.000 OA
ATOM     23  H   UNL     1       5.015   7.509  16.117  0.00  0.00    +0.000 HD
ATOM     24  H   UNL     1       5.460   7.005  14.524  0.00  0.00    +0.000 HD
ENDBRANCH  19  20
BRANCH  19  25
ATOM     25  C   UNL     1       3.436   5.760  17.648  0.00  0.00    +0.000 C 
BRANCH  25  26
ATOM     26  C   UNL     1       2.590   4.813  18.463  0.00  0.00    +0.000 A 
ATOM     27  C   UNL     1       1.938   3.739  17.845  0.00  0.00    +0.000 A 
ATOM     28  C   UNL     1       1.073   2.930  18.580  0.00  0.00    +0.000 A 
ATOM     29  C   UNL     1       0.866   3.177  19.936  0.00  0.00    +0.000 A 
ATOM     30  C   UNL     1       1.554   4.207  20.570  0.00  0.00    +0.000 A 
ATOM     31  C   UNL     1       2.425   5.012  19.841  0.00  0.00    +0.000 A 
ENDBRANCH  25  26
ENDBRANCH  19  25
ENDBRANCH   3  19
TORSDOF 9
ENDMDL
MODEL 3
REMARK VINA RESULT:      -7.9      2.530      8.135
REMARK  Name = 
REMARK  10 active torsions:
REMARK  status: ('A' for Active; 'I' for Inactive)
REMARK    1  A    between atoms: C_1  and  C_2
REMARK    2  A    between atoms: C_2  and  N_3
REMARK    3  A    between atoms: C_2  and  C_14
REMARK    4  A    between atoms: C_4  and  O_6
REMARK    5  A    between atoms: O_6  and  C_7
REMARK    6  A    between atoms: C_7  and  C_8
REMARK    7  A    between atoms: N_16  and  C_17
REMARK    8  A    between atoms: C_17  and  C_18
REMARK    9  A    between atoms: C_17  and  C_25
REMARK   10  A    between atoms: C_18  and  C_19
REMARK                            x       y       z     vdW  Elec       q    Type
REMARK                         _______ _______ _______ _____ _____    ______ ____
ROOT
ATOM      1  C   UNL     1       4.053   4.218  17.872  0.00  0.00    +0.000 C 
ATOM      2  O   UNL     1       4.315   3.053  18.173  0.00  0.00    +0.000 OA
ATOM      3  N   UNL     1       4.963   5.043  17.248  0.00  0.00    +0.000 N 
ATOM      4  H   UNL     1       4.868   6.039  17.443  0.00  0.00    +0.000 HD
ENDROOT
BRANCH   1   6
ATOM      5  C   UNL     1       1.487   4.331  17.714  0.00  0.00    +0.000 C 
ATOM      6  C   UNL     1       2.749   4.905  18.347  0.00  0.00    +0.000 C 
BRANCH   6   7
ATOM      7  N   UNL     1       2.849   6.354  18.225  0.00  0.00    +0.000 N 
ATOM      8  C   UNL     1       2.389   7.223  19.162  0.00  0.00    +0.000 C 
ATOM      9  O   UNL     1       1.878   6.891  20.224  0.00  0.00    +0.000 OA
ATOM     10  H   UNL     1       3.151   6.762  17.352  0.00  0.00    +0.000 HD
BRANCH   8  11
ATOM     11  O   UNL     1       2.499   8.484  18.697  0.00  0.00    +0.000 OA
BRANCH  11  12
ATOM     12  C   UNL     1       1.551   8.851  17.680  0.00  0.00    +0.000 C 
BRANCH  12  13
ATOM     13  C   UNL     1       0.536   9.780  18.301  0.00  0.00    +0.000 A 
ATOM     14  C   UNL     1       0.835  10.507  19.460  0.00  0.00    +0.000 A 
ATOM     15  C   UNL     1      -0.143  11.294  20.074  0.00  0.00    +0.000 A 
ATOM     16  C   UNL     1      -1.436  11.337  19.555  0.00  0.00    +0.000 A 
ATOM     17  C   UNL     1      -1.735  10.648  18.381  0.00  0.00    +0.000 A 
ATOM     18  C   UNL     1      -0.750   9.889  17.748  0.00  0.00    +0.000 A 
ENDBRANCH  12  13
ENDBRANCH  11  12
ENDBRANCH   8  11
ENDBRANCH   6   7
ENDBRANCH   1   6
BRANCH   3  19
ATOM     19  C   UNL     1       6.293   4.597  16.799  0.00  0.00    +0.000 C 
BRANCH  19  20
ATOM     20  C   UNL     1       7.309   4.609  17.949  0.00  0.00    +0.000 C 
ATOM     21  N   UNL     1       6.823   5.035  19.144  0.00  0.00    +0.000 N 
ATOM     22  O   UNL     1       8.437   4.126  17.887  0.00  0.00    +0.000 OA
ATOM     23  H   UNL     1       5.945   5.527  19.230  0.00  0.00    +0.000 HD
ATOM     24  H   UNL     1       7.442   5.027  19.936  0.00  0.00    +0.000 HD
ENDBRANCH  19  20
BRANCH  19  25
ATOM     25  C   UNL     1       6.841   5.470  15.656  0.00  0.00    +0.000 C 
BRANCH  25  26
ATOM     26  C   UNL     1       6.631   4.848  14.297  0.00  0.00    +0.000 A 
ATOM     27  C   UNL     1       5.528   4.019  14.062  0.00  0.00    +0.000 A 
ATOM     28  C   UNL     1       5.395   3.362  12.841  0.00  0.00    +0.000 A 
ATOM     29  C   UNL     1       6.352   3.539  11.843  0.00  0.00    +0.000 A 
ATOM     30  C   UNL     1       7.421   4.406  12.047  0.00  0.00    +0.000 A 
ATOM     31  C   UNL     1       7.551   5.071  13.263  0.00  0.00    +0.000 A 
ENDBRANCH  25  26
ENDBRANCH  19  25
ENDBRANCH   3  19
TORSDOF 9
ENDMDL
MODEL 4
REMARK VINA RESULT:      -7.7      3.500      6.522
REMARK  Name = 
REMARK  10 active torsions:
REMARK  status: ('A' for Active; 'I' for Inactive)
REMARK    1  A    between atoms: C_1  and  C_2
REMARK    2  A    between atoms: C_2  and  N_3
REMARK    3  A    between atoms: C_2  and  C_14
REMARK    4  A    between atoms: C_4  and  O_6
REMARK    5  A    between atoms: O_6  and  C_7
REMARK    6  A    between atoms: C_7  and  C_8
REMARK    7  A    between atoms: N_16  and  C_17
REMARK    8  A    between atoms: C_17  and  C_18
REMARK    9  A    between atoms: C_17  and  C_25
REMARK   10  A    between atoms: C_18  and  C_19
REMARK                            x       y       z     vdW  Elec       q    Type
REMARK                         _______ _______ _______ _____ _____    ______ ____
ROOT
ATOM      1  C   UNL     1       5.455   4.982  18.795  0.00  0.00    +0.000 C 
ATOM      2  O   UNL     1       5.422   5.234  20.000  0.00  0.00    +0.000 OA
ATOM      3  N   UNL     1       4.561   4.124  18.193  0.00  0.00    +0.000 N 
ATOM      4  H   UNL     1       4.904   3.629  17.372  0.00  0.00    +0.000 HD
ENDROOT
BRANCH   1   6
ATOM      5  C   UNL     1       7.610   4.350  17.538  0.00  0.00    +0.000 C 
ATOM      6  C   UNL     1       6.626   5.457  17.899  0.00  0.00    +0.000 C 
BRANCH   6   7
ATOM      7  N   UNL     1       7.267   6.639  18.461  0.00  0.00    +0.000 N 
ATOM      8  C   UNL     1       7.889   7.587  17.713  0.00  0.00    +0.000 C 
ATOM      9  O   UNL     1       7.948   7.578  16.491  0.00  0.00    +0.000 OA
ATOM     10  H   UNL     1       7.385   6.715  19.461  0.00  0.00    +0.000 HD
BRANCH   8  11
ATOM     11  O   UNL     1       8.500   8.472  18.529  0.00  0.00    +0.000 OA
BRANCH  11  12
ATOM     12  C   UNL     1       8.326   9.855  18.179  0.00  0.00    +0.000 C 
BRANCH  12  13
ATOM     13  C   UNL     1       9.460  10.639  18.794  0.00  0.00    +0.000 A 
ATOM     14  C   UNL     1       9.498  10.897  20.171  0.00  0.00    +0.000 A 
ATOM     15  C   UNL     1      10.506  11.699  20.713  0.00  0.00    +0.000 A 
ATOM     16  C   UNL     1      11.466  12.276  19.882  0.00  0.00    +0.000 A 
ATOM     17  C   UNL     1      11.460  11.997  18.517  0.00  0.00    +0.000 A 
ATOM     18  C   UNL     1      10.474  11.169  17.979  0.00  0.00    +0.000 A 
ENDBRANCH  12  13
ENDBRANCH  11  12
ENDBRANCH   8  11
ENDBRANCH   6   7
ENDBRANCH   1   6
BRANCH   3  19
ATOM     19  C   UNL     1       3.430   3.500  18.900  0.00  0.00    +0.000 C 
BRANCH  19  20
ATOM     20  C   UNL     1       3.328   2.002  18.587  0.00  0.00    +0.000 C 
ATOM     21  N   UNL     1       2.353   1.660  17.706  0.00  0.00    +0.000 N 
ATOM     22  O   UNL     1       4.146   1.158  18.948  0.00  0.00    +0.000 OA
ATOM     23  H   UNL     1       1.603   2.289  17.455  0.00  0.00    +0.000 HD
ATOM     24  H   UNL     1       2.271   0.694  17.442  0.00  0.00    +0.000 HD
ENDBRANCH  19  20
BRANCH  19  25
ATOM     25  C   UNL     1       2.087   4.165  18.543  0.00  0.00    +0.000 C 
BRANCH  25  26
ATOM     26  C   UNL     1       1.976   5.573  19.074  0.00  0.00    +0.000 A 
ATOM     27  C   UNL     1       2.202   6.666  18.230  0.00  0.00    +0.000 A 
ATOM     28  C   UNL     1       2.204   7.960  18.746  0.00  0.00    +0.000 A 
ATOM     29  C   UNL     1       1.966   8.173  20.103  0.00  0.00    +0.000 A 
ATOM     30  C   UNL     1       1.683   7.096  20.938  0.00  0.00    +0.000 A 
ATOM     31  C   UNL     1       1.672   5.803  20.423  0.00  0.00    +0.000 A 
ENDBRANCH  25  26
ENDBRANCH  19  25
ENDBRANCH   3  19
TORSDOF 9
ENDMDL
MODEL 5
REMARK VINA RESULT:      -7.7      3.924      6.781
REMARK  Name = 
REMARK  10 active torsions:
REMARK  status: ('A' for Active; 'I' for Inactive)
REMARK    1  A    between atoms: C_1  and  C_2
REMARK    2  A    between atoms: C_2  and  N_3
REMARK    3  A    between atoms: C_2  and  C_14
REMARK    4  A    between atoms: C_4  and  O_6
REMARK    5  A    between atoms: O_6  and  C_7
REMARK    6  A    between atoms: C_7  and  C_8
REMARK    7  A    between atoms: N_16  and  C_17
REMARK    8  A    between atoms: C_17  and  C_18
REMARK    9  A    between atoms: C_17  and  C_25
REMARK   10  A    between atoms: C_18  and  C_19
REMARK                            x       y       z     vdW  Elec       q    Type
REMARK                         _______ _______ _______ _____ _____    ______ ____
ROOT
ATOM      1  C   UNL     1       5.997   5.471  18.862  0.00  0.00    +0.000 C 
ATOM      2  O   UNL     1       5.978   4.832  19.914  0.00  0.00    +0.000 OA
ATOM      3  N   UNL     1       4.848   5.910  18.242  0.00  0.00    +0.000 N 
ATOM      4  H   UNL     1       4.897   6.002  17.228  0.00  0.00    +0.000 HD
ENDROOT
BRANCH   1   6
ATOM      5  C   UNL     1       8.167   4.407  17.977  0.00  0.00    +0.000 C 
ATOM      6  C   UNL     1       7.304   5.662  18.053  0.00  0.00    +0.000 C 
BRANCH   6   7
ATOM      7  N   UNL     1       8.033   6.838  18.508  0.00  0.00    +0.000 N 
ATOM      8  C   UNL     1       7.856   8.082  17.992  0.00  0.00    +0.000 C 
ATOM      9  O   UNL     1       7.044   8.362  17.120  0.00  0.00    +0.000 OA
ATOM     10  H   UNL     1       8.809   6.728  19.145  0.00  0.00    +0.000 HD
BRANCH   8  11
ATOM     11  O   UNL     1       8.771   8.921  18.520  0.00  0.00    +0.000 OA
BRANCH  11  12
ATOM     12  C   UNL     1       8.697  10.282  18.063  0.00  0.00    +0.000 C 
BRANCH  12  13
ATOM     13  C   UNL     1       9.874  11.033  18.637  0.00  0.00    +0.000 A 
ATOM     14  C   UNL     1      10.006  11.223  20.018  0.00  0.00    +0.000 A 
ATOM     15  C   UNL     1      11.053  11.996  20.529  0.00  0.00    +0.000 A 
ATOM     16  C   UNL     1      11.957  12.612  19.664  0.00  0.00    +0.000 A 
ATOM     17  C   UNL     1      11.856  12.400  18.291  0.00  0.00    +0.000 A 
ATOM     18  C   UNL     1      10.832  11.601  17.781  0.00  0.00    +0.000 A 
ENDBRANCH  12  13
ENDBRANCH  11  12
ENDBRANCH   8  11
ENDBRANCH   6   7
ENDBRANCH   1   6
BRANCH   3  19
ATOM     19  C   UNL     1       3.501   5.743  18.813  0.00  0.00    +0.000 C 
BRANCH  19  20
ATOM     20  C   UNL     1       3.077   4.269  18.833  0.00  0.00    +0.000 C 
ATOM     21  N   UNL     1       3.090   3.647  17.626  0.00  0.00    +0.000 N 
ATOM     22  O   UNL     1       2.892   3.612  19.855  0.00  0.00    +0.000 OA
ATOM     23  H   UNL     1       3.141   4.154  16.754  0.00  0.00    +0.000 HD
ATOM     24  H   UNL     1       2.855   2.671  17.594  0.00  0.00    +0.000 HD
ENDBRANCH  19  20
BRANCH  19  25
ATOM     25  C   UNL     1       2.441   6.545  18.035  0.00  0.00    +0.000 C 
BRANCH  25  26
ATOM     26  C   UNL     1       1.981   7.775  18.777  0.00  0.00    +0.000 A 
ATOM     27  C   UNL     1       1.695   7.708  20.146  0.00  0.00    +0.000 A 
ATOM     28  C   UNL     1       1.170   8.817  20.805  0.00  0.00    +0.000 A 
ATOM     29  C   UNL     1       0.941  10.003  20.108  0.00  0.00    +0.000 A 
ATOM     30  C   UNL     1       1.277  10.095  18.761  0.00  0.00    +0.000 A 
ATOM     31  C   UNL     1       1.810   8.991  18.101  0.00  0.00    +0.000 A 
ENDBRANCH  25  26
ENDBRANCH  19  25
ENDBRANCH   3  19
TORSDOF 9
ENDMDL
MODEL 6
REMARK VINA RESULT:      -7.7      3.390      7.094
REMARK  Name = 
REMARK  10 active torsions:
REMARK  status: ('A' for Active; 'I' for Inactive)
REMARK    1  A    between atoms: C_1  and  C_2
REMARK    2  A    between atoms: C_2  and  N_3
REMARK    3  A    between atoms: C_2  and  C_14
REMARK    4  A    between atoms: C_4  and  O_6
REMARK    5  A    between atoms: O_6  and  C_7
REMARK    6  A    between atoms: C_7  and  C_8
REMARK    7  A    between atoms: N_16  and  C_17
REMARK    8  A    between atoms: C_17  and  C_18
REMARK    9  A    between atoms: C_17  and  C_25
REMARK   10  A    between atoms: C_18  and  C_19
REMARK                            x       y       z     vdW  Elec       q    Type
REMARK                         _______ _______ _______ _____ _____    ______ ____
ROOT
ATOM      1  C   UNL     1       7.270   5.206  17.971  0.00  0.00    +0.000 C 
ATOM      2  O   UNL     1       7.622   4.469  17.050  0.00  0.00    +0.000 OA
ATOM      3  N   UNL     1       5.980   5.677  18.090  0.00  0.00    +0.000 N 
ATOM      4  H   UNL     1       5.877   6.580  18.550  0.00  0.00    +0.000 HD
ENDROOT
BRANCH   1   6
ATOM      5  C   UNL     1       8.325   5.132  20.317  0.00  0.00    +0.000 C 
ATOM      6  C   UNL     1       8.295   5.819  18.956  0.00  0.00    +0.000 C 
BRANCH   6   7
ATOM      7  N   UNL     1       8.134   7.265  19.043  0.00  0.00    +0.000 N 
ATOM      8  C   UNL     1       8.038   8.080  17.960  0.00  0.00    +0.000 C 
ATOM      9  O   UNL     1       8.036   7.692  16.799  0.00  0.00    +0.000 OA
ATOM     10  H   UNL     1       8.229   7.725  19.937  0.00  0.00    +0.000 HD
BRANCH   8  11
ATOM     11  O   UNL     1       8.042   9.366  18.366  0.00  0.00    +0.000 OA
BRANCH  11  12
ATOM     12  C   UNL     1       8.786  10.273  17.534  0.00  0.00    +0.000 C 
BRANCH  12  13
ATOM     13  C   UNL     1       9.788  10.991  18.406  0.00  0.00    +0.000 A 
ATOM     14  C   UNL     1      10.979  11.497  17.872  0.00  0.00    +0.000 A 
ATOM     15  C   UNL     1      11.937  12.080  18.707  0.00  0.00    +0.000 A 
ATOM     16  C   UNL     1      11.728  12.134  20.084  0.00  0.00    +0.000 A 
ATOM     17  C   UNL     1      10.530  11.667  20.622  0.00  0.00    +0.000 A 
ATOM     18  C   UNL     1       9.558  11.116  19.786  0.00  0.00    +0.000 A 
ENDBRANCH  12  13
ENDBRANCH  11  12
ENDBRANCH   8  11
ENDBRANCH   6   7
ENDBRANCH   1   6
BRANCH   3  19
ATOM     19  C   UNL     1       4.882   5.278  17.193  0.00  0.00    +0.000 C 
BRANCH  19  20
ATOM     20  C   UNL     1       5.194   5.629  15.732  0.00  0.00    +0.000 C 
ATOM     21  N   UNL     1       5.390   4.564  14.912  0.00  0.00    +0.000 N 
ATOM     22  O   UNL     1       5.118   6.759  15.256  0.00  0.00    +0.000 OA
ATOM     23  H   UNL     1       5.556   3.631  15.262  0.00  0.00    +0.000 HD
ATOM     24  H   UNL     1       5.562   4.743  13.938  0.00  0.00    +0.000 HD
ENDBRANCH  19  20
BRANCH  19  25
ATOM     25  C   UNL     1       3.549   5.944  17.581  0.00  0.00    +0.000 C 
BRANCH  25  26
ATOM     26  C   UNL     1       2.690   5.061  18.453  0.00  0.00    +0.000 A 
ATOM     27  C   UNL     1       2.021   3.962  17.903  0.00  0.00    +0.000 A 
ATOM     28  C   UNL     1       1.145   3.212  18.686  0.00  0.00    +0.000 A 
ATOM     29  C   UNL     1       0.944   3.545  20.025  0.00  0.00    +0.000 A 
ATOM     30  C   UNL     1       1.649   4.601  20.594  0.00  0.00    +0.000 A 
ATOM     31  C   UNL     1       2.531   5.346  19.816  0.00  0.00    +0.000 A 
ENDBRANCH  25  26
ENDBRANCH  19  25
ENDBRANCH   3  19
TORSDOF 9
ENDMDL
MODEL 7
REMARK VINA RESULT:      -7.7      2.108      7.989
REMARK  Name = 
REMARK  10 active torsions:
REMARK  status: ('A' for Active; 'I' for Inactive)
REMARK    1  A    between atoms: C_1  and  C_2
REMARK    2  A    between atoms: C_2  and  N_3
REMARK    3  A    between atoms: C_2  and  C_14
REMARK    4  A    between atoms: C_4  and  O_6
REMARK    5  A    between atoms: O_6  and  C_7
REMARK    6  A    between atoms: C_7  and  C_8
REMARK    7  A    between atoms: N_16  and  C_17
REMARK    8  A    between atoms: C_17  and  C_18
REMARK    9  A    between atoms: C_17  and  C_25
REMARK   10  A    between atoms: C_18  and  C_19
REMARK                            x       y       z     vdW  Elec       q    Type
REMARK                         _______ _______ _______ _____ _____    ______ ____
ROOT
ATOM      1  C   UNL     1       3.559   3.349  17.834  0.00  0.00    +0.000 C 
ATOM      2  O   UNL     1       3.805   2.194  17.487  0.00  0.00    +0.000 OA
ATOM      3  N   UNL     1       4.389   4.406  17.529  0.00  0.00    +0.000 N 
ATOM      4  H   UNL     1       4.385   5.180  18.191  0.00  0.00    +0.000 HD
ENDROOT
BRANCH   1   6
ATOM      5  C   UNL     1       1.068   3.052  18.408  0.00  0.00    +0.000 C 
ATOM      6  C   UNL     1       2.401   3.674  18.810  0.00  0.00    +0.000 C 
BRANCH   6   7
ATOM      7  N   UNL     1       2.317   5.107  19.061  0.00  0.00    +0.000 N 
ATOM      8  C   UNL     1       2.241   5.651  20.304  0.00  0.00    +0.000 C 
ATOM      9  O   UNL     1       2.273   5.009  21.345  0.00  0.00    +0.000 OA
ATOM     10  H   UNL     1       2.173   5.742  18.289  0.00  0.00    +0.000 HD
BRANCH   8  11
ATOM     11  O   UNL     1       2.032   6.980  20.199  0.00  0.00    +0.000 OA
BRANCH  11  12
ATOM     12  C   UNL     1       2.022   7.499  18.858  0.00  0.00    +0.000 C 
BRANCH  12  13
ATOM     13  C   UNL     1       1.646   8.960  18.925  0.00  0.00    +0.000 A 
ATOM     14  C   UNL     1       2.141   9.877  17.990  0.00  0.00    +0.000 A 
ATOM     15  C   UNL     1       1.857  11.240  18.117  0.00  0.00    +0.000 A 
ATOM     16  C   UNL     1       1.102  11.701  19.194  0.00  0.00    +0.000 A 
ATOM     17  C   UNL     1       0.574  10.794  20.110  0.00  0.00    +0.000 A 
ATOM     18  C   UNL     1       0.829   9.430  19.966  0.00  0.00    +0.000 A 
ENDBRANCH  12  13
ENDBRANCH  11  12
ENDBRANCH   8  11
ENDBRANCH   6   7
ENDBRANCH   1   6
BRANCH   3  19
ATOM     19  C   UNL     1       5.591   4.280  16.687  0.00  0.00    +0.000 C 
BRANCH  19  20
ATOM     20  C   UNL     1       6.875   4.434  17.513  0.00  0.00    +0.000 C 
ATOM     21  N   UNL     1       6.698   4.440  18.860  0.00  0.00    +0.000 N 
ATOM     22  O   UNL     1       8.011   4.392  17.047  0.00  0.00    +0.000 OA
ATOM     23  H   UNL     1       5.793   4.572  19.289  0.00  0.00    +0.000 HD
ATOM     24  H   UNL     1       7.514   4.503  19.443  0.00  0.00    +0.000 HD
ENDBRANCH  19  20
BRANCH  19  25
ATOM     25  C   UNL     1       5.613   5.321  15.553  0.00  0.00    +0.000 C 
BRANCH  25  26
ATOM     26  C   UNL     1       6.116   4.751  14.250  0.00  0.00    +0.000 A 
ATOM     27  C   UNL     1       7.304   5.225  13.683  0.00  0.00    +0.000 A 
ATOM     28  C   UNL     1       7.710   4.773  12.429  0.00  0.00    +0.000 A 
ATOM     29  C   UNL     1       6.942   3.835  11.741  0.00  0.00    +0.000 A 
ATOM     30  C   UNL     1       5.790   3.315  12.323  0.00  0.00    +0.000 A 
ATOM     31  C   UNL     1       5.387   3.759  13.579  0.00  0.00    +0.000 A 
ENDBRANCH  25  26
ENDBRANCH  19  25
ENDBRANCH   3  19
TORSDOF 9
ENDMDL
MODEL 8
REMARK VINA RESULT:      -7.6      1.932      3.133
REMARK  Name = 
REMARK  10 active torsions:
REMARK  status: ('A' for Active; 'I' for Inactive)
REMARK    1  A    between atoms: C_1  and  C_2
REMARK    2  A    between atoms: C_2  and  N_3
REMARK    3  A    between atoms: C_2  and  C_14
REMARK    4  A    between atoms: C_4  and  O_6
REMARK    5  A    between atoms: O_6  and  C_7
REMARK    6  A    between atoms: C_7  and  C_8
REMARK    7  A    between atoms: N_16  and  C_17
REMARK    8  A    between atoms: C_17  and  C_18
REMARK    9  A    between atoms: C_17  and  C_25
REMARK   10  A    between atoms: C_18  and  C_19
REMARK                            x       y       z     vdW  Elec       q    Type
REMARK                         _______ _______ _______ _____ _____    ______ ____
ROOT
ATOM      1  C   UNL     1       5.658   5.065  18.267  0.00  0.00    +0.000 C 
ATOM      2  O   UNL     1       5.133   3.953  18.202  0.00  0.00    +0.000 OA
ATOM      3  N   UNL     1       4.923   6.225  18.380  0.00  0.00    +0.000 N 
ATOM      4  H   UNL     1       5.347   7.060  17.981  0.00  0.00    +0.000 HD
ENDROOT
BRANCH   1   6
ATOM      5  C   UNL     1       7.663   6.677  18.311  0.00  0.00    +0.000 C 
ATOM      6  C   UNL     1       7.176   5.260  18.029  0.00  0.00    +0.000 C 
BRANCH   6   7
ATOM      7  N   UNL     1       7.566   4.766  16.716  0.00  0.00    +0.000 N 
ATOM      8  C   UNL     1       6.982   5.165  15.556  0.00  0.00    +0.000 C 
ATOM      9  O   UNL     1       6.097   6.007  15.479  0.00  0.00    +0.000 OA
ATOM     10  H   UNL     1       8.208   3.989  16.645  0.00  0.00    +0.000 HD
BRANCH   8  11
ATOM     11  O   UNL     1       7.463   4.426  14.534  0.00  0.00    +0.000 OA
BRANCH  11  12
ATOM     12  C   UNL     1       7.173   4.929  13.219  0.00  0.00    +0.000 C 
BRANCH  12  13
ATOM     13  C   UNL     1       6.663   3.781  12.382  0.00  0.00    +0.000 A 
ATOM     14  C   UNL     1       5.289   3.544  12.239  0.00  0.00    +0.000 A 
ATOM     15  C   UNL     1       4.833   2.426  11.536  0.00  0.00    +0.000 A 
ATOM     16  C   UNL     1       5.743   1.518  10.995  0.00  0.00    +0.000 A 
ATOM     17  C   UNL     1       7.111   1.762  11.100  0.00  0.00    +0.000 A 
ATOM     18  C   UNL     1       7.567   2.896  11.772  0.00  0.00    +0.000 A 
ENDBRANCH  12  13
ENDBRANCH  11  12
ENDBRANCH   8  11
ENDBRANCH   6   7
ENDBRANCH   1   6
BRANCH   3  19
ATOM     19  C   UNL     1       3.458   6.249  18.527  0.00  0.00    +0.000 C 
BRANCH  19  20
ATOM     20  C   UNL     1       2.881   7.627  18.179  0.00  0.00    +0.000 C 
ATOM     21  N   UNL     1       3.344   8.173  17.025  0.00  0.00    +0.000 N 
ATOM     22  O   UNL     1       1.949   8.162  18.776  0.00  0.00    +0.000 OA
ATOM     23  H   UNL     1       4.167   7.827  16.552  0.00  0.00    +0.000 HD
ATOM     24  H   UNL     1       2.968   9.059  16.737  0.00  0.00    +0.000 HD
ENDBRANCH  19  20
BRANCH  19  25
ATOM     25  C   UNL     1       3.014   5.881  19.955  0.00  0.00    +0.000 C 
BRANCH  25  26
ATOM     26  C   UNL     1       2.209   4.606  20.002  0.00  0.00    +0.000 A 
ATOM     27  C   UNL     1       2.045   3.918  21.211  0.00  0.00    +0.000 A 
ATOM     28  C   UNL     1       1.393   2.688  21.232  0.00  0.00    +0.000 A 
ATOM     29  C   UNL     1       0.885   2.143  20.053  0.00  0.00    +0.000 A 
ATOM     30  C   UNL     1       0.993   2.847  18.858  0.00  0.00    +0.000 A 
ATOM     31  C   UNL     1       1.637   4.081  18.835  0.00  0.00    +0.000 A 
ENDBRANCH  25  26
ENDBRANCH  19  25
ENDBRANCH   3  19
TORSDOF 9
ENDMDL
MODEL 9
REMARK VINA RESULT:      -7.6      2.010      8.117
REMARK  Name = 
REMARK  10 active torsions:
REMARK  status: ('A' for Active; 'I' for Inactive)
REMARK    1  A    between atoms: C_1  and  C_2
REMARK    2  A    between atoms: C_2  and  N_3
REMARK    3  A    between atoms: C_2  and  C_14
REMARK    4  A    between atoms: C_4  and  O_6
REMARK    5  A    between atoms: O_6  and  C_7
REMARK    6  A    between atoms: C_7  and  C_8
REMARK    7  A    between atoms: N_16  and  C_17
REMARK    8  A    between atoms: C_17  and  C_18
REMARK    9  A    between atoms: C_17  and  C_25
REMARK   10  A    between atoms: C_18  and  C_19
REMARK                            x       y       z     vdW  Elec       q    Type
REMARK                         _______ _______ _______ _____ _____    ______ ____
ROOT
ATOM      1  C   UNL     1       3.719   3.197  17.908  0.00  0.00    +0.000 C 
ATOM      2  O   UNL     1       4.026   2.125  17.386  0.00  0.00    +0.000 OA
ATOM      3  N   UNL     1       4.483   4.334  17.766  0.00  0.00    +0.000 N 
ATOM      4  H   UNL     1       4.443   4.997  18.539  0.00  0.00    +0.000 HD
ENDROOT
BRANCH   1   6
ATOM      5  C   UNL     1       1.217   2.821  18.377  0.00  0.00    +0.000 C 
ATOM      6  C   UNL     1       2.556   3.300  18.925  0.00  0.00    +0.000 C 
BRANCH   6   7
ATOM      7  N   UNL     1       2.496   4.631  19.515  0.00  0.00    +0.000 N 
ATOM      8  C   UNL     1       2.064   4.877  20.779  0.00  0.00    +0.000 C 
ATOM      9  O   UNL     1       1.716   4.013  21.574  0.00  0.00    +0.000 OA
ATOM     10  H   UNL     1       2.651   5.442  18.934  0.00  0.00    +0.000 HD
BRANCH   8  11
ATOM     11  O   UNL     1       1.992   6.210  20.978  0.00  0.00    +0.000 OA
BRANCH  11  12
ATOM     12  C   UNL     1       2.241   7.020  19.816  0.00  0.00    +0.000 C 
BRANCH  12  13
ATOM     13  C   UNL     1       1.466   8.307  19.970  0.00  0.00    +0.000 A 
ATOM     14  C   UNL     1       0.811   8.618  21.168  0.00  0.00    +0.000 A 
ATOM     15  C   UNL     1       0.024   9.769  21.267  0.00  0.00    +0.000 A 
ATOM     16  C   UNL     1      -0.141  10.602  20.161  0.00  0.00    +0.000 A 
ATOM     17  C   UNL     1       0.534  10.322  18.975  0.00  0.00    +0.000 A 
ATOM     18  C   UNL     1       1.348   9.192  18.886  0.00  0.00    +0.000 A 
ENDBRANCH  12  13
ENDBRANCH  11  12
ENDBRANCH   8  11
ENDBRANCH   6   7
ENDBRANCH   1   6
BRANCH   3  19
ATOM     19  C   UNL     1       5.680   4.410  16.910  0.00  0.00    +0.000 C 
BRANCH  19  20
ATOM     20  C   UNL     1       6.929   4.778  17.722  0.00  0.00    +0.000 C 
ATOM     21  N   UNL     1       8.078   4.179  17.317  0.00  0.00    +0.000 N 
ATOM     22  O   UNL     1       6.970   5.665  18.571  0.00  0.00    +0.000 OA
ATOM     23  H   UNL     1       8.086   3.382  16.696  0.00  0.00    +0.000 HD
ATOM     24  H   UNL     1       8.929   4.416  17.795  0.00  0.00    +0.000 HD
ENDBRANCH  19  20
BRANCH  19  25
ATOM     25  C   UNL     1       5.515   5.438  15.775  0.00  0.00    +0.000 C 
BRANCH  25  26
ATOM     26  C   UNL     1       6.014   4.923  14.448  0.00  0.00    +0.000 A 
ATOM     27  C   UNL     1       5.291   3.947  13.752  0.00  0.00    +0.000 A 
ATOM     28  C   UNL     1       5.807   3.397  12.581  0.00  0.00    +0.000 A 
ATOM     29  C   UNL     1       7.038   3.828  12.088  0.00  0.00    +0.000 A 
ATOM     30  C   UNL     1       7.736   4.839  12.742  0.00  0.00    +0.000 A 
ATOM     31  C   UNL     1       7.218   5.396  13.908  0.00  0.00    +0.000 A 
ENDBRANCH  25  26
ENDBRANCH  19  25
ENDBRANCH   3  19
TORSDOF 9
ENDMDL
