MODEL 1
REMARK VINA RESULT:      -6.9      0.000      0.000
REMARK  Name = 
REMARK  8 active torsions:
REMARK  status: ('A' for Active; 'I' for Inactive)
REMARK    1  A    between atoms: C_1  and  O_2
REMARK    2  A    between atoms: O_2  and  C_3
REMARK    3  A    between atoms: N_9  and  C_10
REMARK    4  A    between atoms: C_10  and  C_11
REMARK    5  A    between atoms: C_11  and  N_12
REMARK    6  A    between atoms: N_12  and  C_13
REMARK    7  A    between atoms: N_12  and  C_14
REMARK    8  A    between atoms: C_15  and  C_17
REMARK                            x       y       z     vdW  Elec       q    Type
REMARK                         _______ _______ _______ _____ _____    ______ ____
ROOT
ATOM      1  C   UNL     1      -0.714  11.419  22.164  0.00  0.00    +0.000 A 
ATOM      2  C   UNL     1      -1.016  12.019  20.910  0.00  0.00    +0.000 A 
ATOM      3  C   UNL     1      -0.562  11.432  19.707  0.00  0.00    +0.000 A 
ATOM      4  C   UNL     1       0.190  10.258  19.789  0.00  0.00    +0.000 A 
ATOM      5  S   UNL     1       0.914   9.320  18.582  0.00  0.00    +0.000 S 
ATOM      6  C   UNL     1       1.558   8.188  19.700  0.00  0.00    +0.000 A 
ATOM      7  N   UNL     1       2.397   7.022  19.427  0.00  0.00    +0.000 N 
ATOM      8  C   UNL     1       3.077   6.925  18.218  0.00  0.00    +0.000 C 
ATOM      9  O   UNL     1       2.966   7.830  17.403  0.00  0.00    +0.000 OA
ATOM     10  N   UNL     1       1.201   8.554  20.950  0.00  0.00    +0.000 NA
ATOM     11  C   UNL     1       0.467   9.677  21.004  0.00  0.00    +0.000 A 
ATOM     12  C   UNL     1       0.027  10.234  22.195  0.00  0.00    +0.000 A 
ENDROOT
BRANCH   8  13
ATOM     13  C   UNL     1       4.070   5.832  17.844  0.00  0.00    +0.000 A 
ATOM     14  C   UNL     1       5.488   5.897  17.850  0.00  0.00    +0.000 A 
ATOM     15  C   UNL     1       6.111   4.734  17.431  0.00  0.00    +0.000 A 
ATOM     16 CL   UNL     1       7.843   4.494  17.325  0.00  0.00    +0.000 Cl
ATOM     17  S   UNL     1       4.961   3.589  17.045  0.00  0.00    +0.000 S 
ATOM     18  C   UNL     1       3.641   4.559  17.420  0.00  0.00    +0.000 A 
ATOM     19 CL   UNL     1       1.990   3.996  17.202  0.00  0.00    +0.000 Cl
ENDBRANCH   8  13
BRANCH   1  21
ATOM     20  C   UNL     1      -1.935  13.007  23.561  0.00  0.00    +0.000 C 
ATOM     21  O   UNL     1      -1.095  11.938  23.359  0.00  0.00    +0.000 OA
ENDBRANCH   1  21
BRANCH   7  22
ATOM     22  C   UNL     1       2.641   5.994  20.468  0.00  0.00    +0.000 C 
BRANCH  22  23
ATOM     23  C   UNL     1       1.629   4.831  20.599  0.00  0.00    +0.000 C 
BRANCH  23  24
ATOM     24  N   UNL     1       2.175   3.637  21.277  0.00  0.00    +0.000 NA
ATOM     25  C   UNL     1       1.189   2.540  21.327  0.00  0.00    +0.000 C 
ATOM     26  C   UNL     1       3.359   3.182  20.523  0.00  0.00    +0.000 C 
ENDBRANCH  23  24
ENDBRANCH  22  23
ENDBRANCH   7  22
TORSDOF 5
ENDMDL
MODEL 2
REMARK VINA RESULT:      -6.8      1.933      2.380
REMARK  Name = 
REMARK  8 active torsions:
REMARK  status: ('A' for Active; 'I' for Inactive)
REMARK    1  A    between atoms: C_1  and  O_2
REMARK    2  A    between atoms: O_2  and  C_3
REMARK    3  A    between atoms: N_9  and  C_10
REMARK    4  A    between atoms: C_10  and  C_11
REMARK    5  A    between atoms: C_11  and  N_12
REMARK    6  A    between atoms: N_12  and  C_13
REMARK    7  A    between atoms: N_12  and  C_14
REMARK    8  A    between atoms: C_15  and  C_17
REMARK                            x       y       z     vdW  Elec       q    Type
REMARK                         _______ _______ _______ _____ _____    ______ ____
ROOT
ATOM      1  C   UNL     1      -0.223  10.099  21.707  0.00  0.00    +0.000 A 
ATOM      2  C   UNL     1      -0.210  11.154  20.752  0.00  0.00    +0.000 A 
ATOM      3  C   UNL     1       0.464  10.997  19.520  0.00  0.00    +0.000 A 
ATOM      4  C   UNL     1       1.114   9.786  19.274  0.00  0.00    +0.000 A 
ATOM      5  S   UNL     1       2.033   9.272  17.950  0.00  0.00    +0.000 S 
ATOM      6  C   UNL     1       2.353   7.731  18.636  0.00  0.00    +0.000 A 
ATOM      7  N   UNL     1       3.166   6.647  18.088  0.00  0.00    +0.000 N 
ATOM      8  C   UNL     1       4.088   6.912  17.081  0.00  0.00    +0.000 C 
ATOM      9  O   UNL     1       4.208   8.060  16.677  0.00  0.00    +0.000 OA
ATOM     10  N   UNL     1       1.752   7.655  19.843  0.00  0.00    +0.000 NA
ATOM     11  C   UNL     1       1.086   8.766  20.196  0.00  0.00    +0.000 A 
ATOM     12  C   UNL     1       0.428   8.898  21.409  0.00  0.00    +0.000 A 
ENDROOT
BRANCH   8  13
ATOM     13  C   UNL     1       5.077   5.911  16.498  0.00  0.00    +0.000 A 
ATOM     14  C   UNL     1       5.060   5.311  15.211  0.00  0.00    +0.000 A 
ATOM     15  C   UNL     1       6.094   4.418  14.987  0.00  0.00    +0.000 A 
ATOM     16 CL   UNL     1       6.351   3.516  13.508  0.00  0.00    +0.000 Cl
ATOM     17  S   UNL     1       7.063   4.332  16.341  0.00  0.00    +0.000 S 
ATOM     18  C   UNL     1       6.183   5.449  17.238  0.00  0.00    +0.000 A 
ATOM     19 CL   UNL     1       6.619   5.857  18.891  0.00  0.00    +0.000 Cl
ENDBRANCH   8  13
BRANCH   1  21
ATOM     20  C   UNL     1      -1.671  11.184  23.347  0.00  0.00    +0.000 C 
ATOM     21  O   UNL     1      -0.827  10.186  22.919  0.00  0.00    +0.000 OA
ENDBRANCH   1  21
BRANCH   7  22
ATOM     22  C   UNL     1       3.120   5.285  18.672  0.00  0.00    +0.000 C 
BRANCH  22  23
ATOM     23  C   UNL     1       1.943   4.360  18.280  0.00  0.00    +0.000 C 
BRANCH  23  24
ATOM     24  N   UNL     1       2.323   2.939  18.134  0.00  0.00    +0.000 NA
ATOM     25  C   UNL     1       3.788   2.766  18.106  0.00  0.00    +0.000 C 
ATOM     26  C   UNL     1       1.775   2.196  19.284  0.00  0.00    +0.000 C 
ENDBRANCH  23  24
ENDBRANCH  22  23
ENDBRANCH   7  22
TORSDOF 5
ENDMDL
MODEL 3
REMARK VINA RESULT:      -6.4      4.300      9.141
REMARK  Name = 
REMARK  8 active torsions:
REMARK  status: ('A' for Active; 'I' for Inactive)
REMARK    1  A    between atoms: C_1  and  O_2
REMARK    2  A    between atoms: O_2  and  C_3
REMARK    3  A    between atoms: N_9  and  C_10
REMARK    4  A    between atoms: C_10  and  C_11
REMARK    5  A    between atoms: C_11  and  N_12
REMARK    6  A    between atoms: N_12  and  C_13
REMARK    7  A    between atoms: N_12  and  C_14
REMARK    8  A    between atoms: C_15  and  C_17
REMARK                            x       y       z     vdW  Elec       q    Type
REMARK                         _______ _______ _______ _____ _____    ______ ____
ROOT
ATOM      1  C   UNL     1       3.364   7.069  17.777  0.00  0.00    +0.000 A 
ATOM      2  C   UNL     1       3.394   6.207  18.909  0.00  0.00    +0.000 A 
ATOM      3  C   UNL     1       2.658   6.526  20.072  0.00  0.00    +0.000 A 
ATOM      4  C   UNL     1       1.910   7.705  20.076  0.00  0.00    +0.000 A 
ATOM      5  S   UNL     1       0.957   8.408  21.285  0.00  0.00    +0.000 S 
ATOM      6  C   UNL     1       0.534   9.758  20.312  0.00  0.00    +0.000 A 
ATOM      7  N   UNL     1      -0.288  10.912  20.674  0.00  0.00    +0.000 N 
ATOM      8  C   UNL     1      -0.515  11.210  22.013  0.00  0.00    +0.000 C 
ATOM      9  O   UNL     1      -0.011  10.498  22.871  0.00  0.00    +0.000 OA
ATOM     10  N   UNL     1       1.124   9.632  19.105  0.00  0.00    +0.000 NA
ATOM     11  C   UNL     1       1.876   8.527  18.974  0.00  0.00    +0.000 A 
ATOM     12  C   UNL     1       2.587   8.231  17.822  0.00  0.00    +0.000 A 
ENDROOT
BRANCH   8  13
ATOM     13  C   UNL     1      -1.250  12.436  22.538  0.00  0.00    +0.000 A 
ATOM     14  C   UNL     1      -2.554  12.504  23.096  0.00  0.00    +0.000 A 
ATOM     15  C   UNL     1      -2.950  13.779  23.461  0.00  0.00    +0.000 A 
ATOM     16 CL   UNL     1      -4.495  14.196  24.174  0.00  0.00    +0.000 Cl
ATOM     17  S   UNL     1      -1.729  14.864  23.122  0.00  0.00    +0.000 S 
ATOM     18  C   UNL     1      -0.663  13.717  22.512  0.00  0.00    +0.000 A 
ATOM     19 CL   UNL     1       0.914  14.164  21.879  0.00  0.00    +0.000 Cl
ENDBRANCH   8  13
BRANCH   1  21
ATOM     20  C   UNL     1       5.318   6.286  16.539  0.00  0.00    +0.000 C 
ATOM     21  O   UNL     1       4.064   6.841  16.637  0.00  0.00    +0.000 OA
ENDBRANCH   1  21
BRANCH   7  22
ATOM     22  C   UNL     1      -0.783  11.853  19.640  0.00  0.00    +0.000 C 
BRANCH  22  23
ATOM     23  C   UNL     1      -2.229  11.674  19.120  0.00  0.00    +0.000 C 
BRANCH  23  24
ATOM     24  N   UNL     1      -2.314  11.402  17.670  0.00  0.00    +0.000 NA
ATOM     25  C   UNL     1      -1.809  10.055  17.338  0.00  0.00    +0.000 C 
ATOM     26  C   UNL     1      -3.730  11.494  17.267  0.00  0.00    +0.000 C 
ENDBRANCH  23  24
ENDBRANCH  22  23
ENDBRANCH   7  22
TORSDOF 5
ENDMDL
MODEL 4
REMARK VINA RESULT:      -6.3      3.581      8.117
REMARK  Name = 
REMARK  8 active torsions:
REMARK  status: ('A' for Active; 'I' for Inactive)
REMARK    1  A    between atoms: C_1  and  O_2
REMARK    2  A    between atoms: O_2  and  C_3
REMARK    3  A    between atoms: N_9  and  C_10
REMARK    4  A    between atoms: C_10  and  C_11
REMARK    5  A    between atoms: C_11  and  N_12
REMARK    6  A    between atoms: N_12  and  C_13
REMARK    7  A    between atoms: N_12  and  C_14
REMARK    8  A    between atoms: C_15  and  C_17
REMARK                            x       y       z     vdW  Elec       q    Type
REMARK                         _______ _______ _______ _____ _____    ______ ____
ROOT
ATOM      1  C   UNL     1       4.608   3.761  19.040  0.00  0.00    +0.000 A 
ATOM      2  C   UNL     1       5.189   4.192  17.815  0.00  0.00    +0.000 A 
ATOM      3  C   UNL     1       4.865   5.456  17.274  0.00  0.00    +0.000 A 
ATOM      4  C   UNL     1       3.960   6.260  17.972  0.00  0.00    +0.000 A 
ATOM      5  S   UNL     1       3.326   7.785  17.609  0.00  0.00    +0.000 S 
ATOM      6  C   UNL     1       2.362   7.839  19.029  0.00  0.00    +0.000 A 
ATOM      7  N   UNL     1       1.432   8.884  19.453  0.00  0.00    +0.000 N 
ATOM      8  C   UNL     1       0.953   9.804  18.527  0.00  0.00    +0.000 C 
ATOM      9  O   UNL     1       1.316   9.714  17.363  0.00  0.00    +0.000 OA
ATOM     10  N   UNL     1       2.554   6.703  19.733  0.00  0.00    +0.000 NA
ATOM     11  C   UNL     1       3.412   5.842  19.162  0.00  0.00    +0.000 A 
ATOM     12  C   UNL     1       3.720   4.607  19.712  0.00  0.00    +0.000 A 
ENDROOT
BRANCH   8  13
ATOM     13  C   UNL     1      -0.101  10.870  18.799  0.00  0.00    +0.000 A 
ATOM     14  C   UNL     1      -1.512  10.717  18.835  0.00  0.00    +0.000 A 
ATOM     15  C   UNL     1      -2.203  11.890  19.087  0.00  0.00    +0.000 A 
ATOM     16 CL   UNL     1      -3.946  12.036  19.194  0.00  0.00    +0.000 Cl
ATOM     17  S   UNL     1      -1.124  13.147  19.277  0.00  0.00    +0.000 S 
ATOM     18  C   UNL     1       0.253  12.210  19.053  0.00  0.00    +0.000 A 
ATOM     19 CL   UNL     1       1.863  12.913  19.074  0.00  0.00    +0.000 Cl
ENDBRANCH   8  13
BRANCH   1  21
ATOM     20  C   UNL     1       4.033   1.448  19.574  0.00  0.00    +0.000 C 
ATOM     21  O   UNL     1       4.852   2.552  19.607  0.00  0.00    +0.000 OA
ENDBRANCH   1  21
BRANCH   7  22
ATOM     22  C   UNL     1       0.886   8.909  20.832  0.00  0.00    +0.000 C 
BRANCH  22  23
ATOM     23  C   UNL     1       1.097  10.185  21.680  0.00  0.00    +0.000 C 
BRANCH  23  24
ATOM     24  N   UNL     1       0.176  10.297  22.831  0.00  0.00    +0.000 NA
ATOM     25  C   UNL     1      -0.773  11.414  22.663  0.00  0.00    +0.000 C 
ATOM     26  C   UNL     1      -0.583   9.036  22.937  0.00  0.00    +0.000 C 
ENDBRANCH  23  24
ENDBRANCH  22  23
ENDBRANCH   7  22
TORSDOF 5
ENDMDL
MODEL 5
REMARK VINA RESULT:      -6.1      3.505      7.865
REMARK  Name = 
REMARK  8 active torsions:
REMARK  status: ('A' for Active; 'I' for Inactive)
REMARK    1  A    between atoms: C_1  and  O_2
REMARK    2  A    between atoms: O_2  and  C_3
REMARK    3  A    between atoms: N_9  and  C_10
REMARK    4  A    between atoms: C_10  and  C_11
REMARK    5  A    between atoms: C_11  and  N_12
REMARK    6  A    between atoms: N_12  and  C_13
REMARK    7  A    between atoms: N_12  and  C_14
REMARK    8  A    between atoms: C_15  and  C_17
REMARK                            x       y       z     vdW  Elec       q    Type
REMARK                         _______ _______ _______ _____ _____    ______ ____
ROOT
ATOM      1  C   UNL     1       3.265   3.336  18.582  0.00  0.00    +0.000 A 
ATOM      2  C   UNL     1       4.191   3.723  17.573  0.00  0.00    +0.000 A 
ATOM      3  C   UNL     1       4.331   5.082  17.211  0.00  0.00    +0.000 A 
ATOM      4  C   UNL     1       3.536   6.024  17.869  0.00  0.00    +0.000 A 
ATOM      5  S   UNL     1       3.414   7.700  17.671  0.00  0.00    +0.000 S 
ATOM      6  C   UNL     1       2.212   7.860  18.887  0.00  0.00    +0.000 A 
ATOM      7  N   UNL     1       1.515   9.072  19.316  0.00  0.00    +0.000 N 
ATOM      8  C   UNL     1       1.504  10.194  18.495  0.00  0.00    +0.000 C 
ATOM      9  O   UNL     1       2.075  10.142  17.415  0.00  0.00    +0.000 OA
ATOM     10  N   UNL     1       1.944   6.643  19.404  0.00  0.00    +0.000 NA
ATOM     11  C   UNL     1       2.653   5.644  18.852  0.00  0.00    +0.000 A 
ATOM     12  C   UNL     1       2.503   4.317  19.224  0.00  0.00    +0.000 A 
ENDROOT
BRANCH   8  13
ATOM     13  C   UNL     1       0.729  11.479  18.758  0.00  0.00    +0.000 A 
ATOM     14  C   UNL     1       1.230  12.725  19.221  0.00  0.00    +0.000 A 
ATOM     15  C   UNL     1       0.262  13.701  19.383  0.00  0.00    +0.000 A 
ATOM     16 CL   UNL     1       0.555  15.336  19.938  0.00  0.00    +0.000 Cl
ATOM     17  S   UNL     1      -1.231  13.085  18.965  0.00  0.00    +0.000 S 
ATOM     18  C   UNL     1      -0.663  11.557  18.556  0.00  0.00    +0.000 A 
ATOM     19 CL   UNL     1      -1.748  10.276  18.034  0.00  0.00    +0.000 Cl
ENDBRANCH   8  13
BRANCH   1  21
ATOM     20  C   UNL     1       1.868   1.492  19.363  0.00  0.00    +0.000 C 
ATOM     21  O   UNL     1       3.059   2.051  18.963  0.00  0.00    +0.000 OA
ENDBRANCH   1  21
BRANCH   7  22
ATOM     22  C   UNL     1       0.707   9.090  20.560  0.00  0.00    +0.000 C 
BRANCH  22  23
ATOM     23  C   UNL     1       1.348   9.674  21.841  0.00  0.00    +0.000 C 
BRANCH  23  24
ATOM     24  N   UNL     1       0.369  10.200  22.814  0.00  0.00    +0.000 NA
ATOM     25  C   UNL     1      -0.366  11.360  22.274  0.00  0.00    +0.000 C 
ATOM     26  C   UNL     1      -0.595   9.126  23.123  0.00  0.00    +0.000 C 
ENDBRANCH  23  24
ENDBRANCH  22  23
ENDBRANCH   7  22
TORSDOF 5
ENDMDL
MODEL 6
REMARK VINA RESULT:      -6.1      2.364      3.587
REMARK  Name = 
REMARK  8 active torsions:
REMARK  status: ('A' for Active; 'I' for Inactive)
REMARK    1  A    between atoms: C_1  and  O_2
REMARK    2  A    between atoms: O_2  and  C_3
REMARK    3  A    between atoms: N_9  and  C_10
REMARK    4  A    between atoms: C_10  and  C_11
REMARK    5  A    between atoms: C_11  and  N_12
REMARK    6  A    between atoms: N_12  and  C_13
REMARK    7  A    between atoms: N_12  and  C_14
REMARK    8  A    between atoms: C_15  and  C_17
REMARK                            x       y       z     vdW  Elec       q    Type
REMARK                         _______ _______ _______ _____ _____    ______ ____
ROOT
ATOM      1  C   UNL     1       0.107  12.080  19.213  0.00  0.00    +0.000 A 
ATOM      2  C   UNL     1      -0.366  11.916  20.545  0.00  0.00    +0.000 A 
ATOM      3  C   UNL     1      -0.095  10.728  21.261  0.00  0.00    +0.000 A 
ATOM      4  C   UNL     1       0.643   9.728  20.623  0.00  0.00    +0.000 A 
ATOM      5  S   UNL     1       1.114   8.192  21.152  0.00  0.00    +0.000 S 
ATOM      6  C   UNL     1       1.912   7.815  19.680  0.00  0.00    +0.000 A 
ATOM      7  N   UNL     1       2.587   6.571  19.309  0.00  0.00    +0.000 N 
ATOM      8  C   UNL     1       2.320   5.401  20.010  0.00  0.00    +0.000 C 
ATOM      9  O   UNL     1       1.511   5.433  20.927  0.00  0.00    +0.000 OA
ATOM     10  N   UNL     1       1.800   8.863  18.838  0.00  0.00    +0.000 NA
ATOM     11  C   UNL     1       1.108   9.899  19.340  0.00  0.00    +0.000 A 
ATOM     12  C   UNL     1       0.856  11.058  18.623  0.00  0.00    +0.000 A 
ENDROOT
BRANCH   8  13
ATOM     13  C   UNL     1       2.857   4.018  19.667  0.00  0.00    +0.000 A 
ATOM     14  C   UNL     1       3.829   3.256  20.368  0.00  0.00    +0.000 A 
ATOM     15  C   UNL     1       4.124   2.036  19.785  0.00  0.00    +0.000 A 
ATOM     16 CL   UNL     1       5.275   0.869  20.402  0.00  0.00    +0.000 Cl
ATOM     17  S   UNL     1       3.211   1.841  18.402  0.00  0.00    +0.000 S 
ATOM     18  C   UNL     1       2.410   3.313  18.532  0.00  0.00    +0.000 A 
ATOM     19 CL   UNL     1       1.251   3.844  17.323  0.00  0.00    +0.000 Cl
ENDBRANCH   8  13
BRANCH   1  21
ATOM     20  C   UNL     1       0.152  14.484  18.786  0.00  0.00    +0.000 C 
ATOM     21  O   UNL     1      -0.135  13.180  18.457  0.00  0.00    +0.000 OA
ENDBRANCH   1  21
BRANCH   7  22
ATOM     22  C   UNL     1       3.461   6.503  18.113  0.00  0.00    +0.000 C 
BRANCH  22  23
ATOM     23  C   UNL     1       4.981   6.315  18.326  0.00  0.00    +0.000 C 
BRANCH  23  24
ATOM     24  N   UNL     1       5.542   5.139  17.629  0.00  0.00    +0.000 NA
ATOM     25  C   UNL     1       4.895   4.920  16.322  0.00  0.00    +0.000 C 
ATOM     26  C   UNL     1       6.983   5.375  17.416  0.00  0.00    +0.000 C 
ENDBRANCH  23  24
ENDBRANCH  22  23
ENDBRANCH   7  22
TORSDOF 5
ENDMDL
MODEL 7
REMARK VINA RESULT:      -6.0      4.389      8.854
REMARK  Name = 
REMARK  8 active torsions:
REMARK  status: ('A' for Active; 'I' for Inactive)
REMARK    1  A    between atoms: C_1  and  O_2
REMARK    2  A    between atoms: O_2  and  C_3
REMARK    3  A    between atoms: N_9  and  C_10
REMARK    4  A    between atoms: C_10  and  C_11
REMARK    5  A    between atoms: C_11  and  N_12
REMARK    6  A    between atoms: N_12  and  C_13
REMARK    7  A    between atoms: N_12  and  C_14
REMARK    8  A    between atoms: C_15  and  C_17
REMARK                            x       y       z     vdW  Elec       q    Type
REMARK                         _______ _______ _______ _____ _____    ______ ____
ROOT
ATOM      1  C   UNL     1       3.096   6.211  18.272  0.00  0.00    +0.000 A 
ATOM      2  C   UNL     1       2.753   5.489  19.449  0.00  0.00    +0.000 A 
ATOM      3  C   UNL     1       2.001   6.105  20.474  0.00  0.00    +0.000 A 
ATOM      4  C   UNL     1       1.612   7.435  20.298  0.00  0.00    +0.000 A 
ATOM      5  S   UNL     1       0.753   8.481  21.313  0.00  0.00    +0.000 S 
ATOM      6  C   UNL     1       0.837   9.792  20.207  0.00  0.00    +0.000 A 
ATOM      7  N   UNL     1       0.329  11.153  20.376  0.00  0.00    +0.000 N 
ATOM      8  C   UNL     1       0.035  11.631  21.648  0.00  0.00    +0.000 C 
ATOM      9  O   UNL     1       0.218  10.900  22.611  0.00  0.00    +0.000 OA
ATOM     10  N   UNL     1       1.509   9.395  19.106  0.00  0.00    +0.000 NA
ATOM     11  C   UNL     1       1.936   8.123  19.152  0.00  0.00    +0.000 A 
ATOM     12  C   UNL     1       2.670   7.536  18.133  0.00  0.00    +0.000 A 
ENDROOT
BRANCH   8  13
ATOM     13  C   UNL     1      -0.390  13.054  21.985  0.00  0.00    +0.000 A 
ATOM     14  C   UNL     1       0.399  14.234  21.959  0.00  0.00    +0.000 A 
ATOM     15  C   UNL     1      -0.277  15.379  22.344  0.00  0.00    +0.000 A 
ATOM     16 CL   UNL     1       0.413  16.987  22.419  0.00  0.00    +0.000 Cl
ATOM     17  S   UNL     1      -1.856  14.996  22.724  0.00  0.00    +0.000 S 
ATOM     18  C   UNL     1      -1.706  13.356  22.390  0.00  0.00    +0.000 A 
ATOM     19 CL   UNL     1      -3.043  12.239  22.621  0.00  0.00    +0.000 Cl
ENDBRANCH   8  13
BRANCH   1  21
ATOM     20  C   UNL     1       4.813   6.342  16.541  0.00  0.00    +0.000 C 
ATOM     21  O   UNL     1       3.836   5.694  17.259  0.00  0.00    +0.000 OA
ENDBRANCH   1  21
BRANCH   7  22
ATOM     22  C   UNL     1       0.238  12.084  19.225  0.00  0.00    +0.000 C 
BRANCH  22  23
ATOM     23  C   UNL     1      -1.159  12.378  18.629  0.00  0.00    +0.000 C 
BRANCH  23  24
ATOM     24  N   UNL     1      -2.072  11.216  18.642  0.00  0.00    +0.000 NA
ATOM     25  C   UNL     1      -3.481  11.629  18.503  0.00  0.00    +0.000 C 
ATOM     26  C   UNL     1      -1.716  10.339  17.510  0.00  0.00    +0.000 C 
ENDBRANCH  23  24
ENDBRANCH  22  23
ENDBRANCH   7  22
TORSDOF 5
ENDMDL
MODEL 8
REMARK VINA RESULT:      -6.0      4.238      8.953
REMARK  Name = 
REMARK  8 active torsions:
REMARK  status: ('A' for Active; 'I' for Inactive)
REMARK    1  A    between atoms: C_1  and  O_2
REMARK    2  A    between atoms: O_2  and  C_3
REMARK    3  A    between atoms: N_9  and  C_10
REMARK    4  A    between atoms: C_10  and  C_11
REMARK    5  A    between atoms: C_11  and  N_12
REMARK    6  A    between atoms: N_12  and  C_13
REMARK    7  A    between atoms: N_12  and  C_14
REMARK    8  A    between atoms: C_15  and  C_17
REMARK                            x       y       z     vdW  Elec       q    Type
REMARK                         _______ _______ _______ _____ _____    ______ ____
ROOT
ATOM      1  C   UNL     1       3.375   6.339  18.033  0.00  0.00    +0.000 A 
ATOM      2  C   UNL     1       3.165   5.624  19.245  0.00  0.00    +0.000 A 
ATOM      3  C   UNL     1       2.406   6.195  20.292  0.00  0.00    +0.000 A 
ATOM      4  C   UNL     1       1.877   7.474  20.101  0.00  0.00    +0.000 A 
ATOM      5  S   UNL     1       0.969   8.461  21.131  0.00  0.00    +0.000 S 
ATOM      6  C   UNL     1       0.867   9.738  19.988  0.00  0.00    +0.000 A 
ATOM      7  N   UNL     1       0.233  11.047  20.146  0.00  0.00    +0.000 N 
ATOM      8  C   UNL     1      -0.044  11.534  21.419  0.00  0.00    +0.000 C 
ATOM      9  O   UNL     1       0.259  10.855  22.390  0.00  0.00    +0.000 OA
ATOM     10  N   UNL     1       1.520   9.375  18.864  0.00  0.00    +0.000 NA
ATOM     11  C   UNL     1       2.075   8.153  18.922  0.00  0.00    +0.000 A 
ATOM     12  C   UNL     1       2.812   7.610  17.882  0.00  0.00    +0.000 A 
ENDROOT
BRANCH   8  13
ATOM     13  C   UNL     1      -0.593  12.918  21.739  0.00  0.00    +0.000 A 
ATOM     14  C   UNL     1      -1.929  13.279  22.056  0.00  0.00    +0.000 A 
ATOM     15  C   UNL     1      -2.115  14.633  22.276  0.00  0.00    +0.000 A 
ATOM     16 CL   UNL     1      -3.639  15.394  22.684  0.00  0.00    +0.000 Cl
ATOM     17  S   UNL     1      -0.662  15.434  22.099  0.00  0.00    +0.000 S 
ATOM     18  C   UNL     1       0.236  14.057  21.748  0.00  0.00    +0.000 A 
ATOM     19 CL   UNL     1       1.952  14.143  21.378  0.00  0.00    +0.000 Cl
ENDBRANCH   8  13
BRANCH   1  21
ATOM     20  C   UNL     1       5.112   6.530  16.328  0.00  0.00    +0.000 C 
ATOM     21  O   UNL     1       4.112   5.865  16.997  0.00  0.00    +0.000 OA
ENDBRANCH   1  21
BRANCH   7  22
ATOM     22  C   UNL     1      -0.007  11.927  18.977  0.00  0.00    +0.000 C 
BRANCH  22  23
ATOM     23  C   UNL     1      -1.466  12.144  18.511  0.00  0.00    +0.000 C 
BRANCH  23  24
ATOM     24  N   UNL     1      -2.243  10.894  18.376  0.00  0.00    +0.000 NA
ATOM     25  C   UNL     1      -3.658  11.164  18.058  0.00  0.00    +0.000 C 
ATOM     26  C   UNL     1      -1.650  10.099  17.284  0.00  0.00    +0.000 C 
ENDBRANCH  23  24
ENDBRANCH  22  23
ENDBRANCH   7  22
TORSDOF 5
ENDMDL
MODEL 9
REMARK VINA RESULT:      -6.0      3.566      7.932
REMARK  Name = 
REMARK  8 active torsions:
REMARK  status: ('A' for Active; 'I' for Inactive)
REMARK    1  A    between atoms: C_1  and  O_2
REMARK    2  A    between atoms: O_2  and  C_3
REMARK    3  A    between atoms: N_9  and  C_10
REMARK    4  A    between atoms: C_10  and  C_11
REMARK    5  A    between atoms: C_11  and  N_12
REMARK    6  A    between atoms: N_12  and  C_13
REMARK    7  A    between atoms: N_12  and  C_14
REMARK    8  A    between atoms: C_15  and  C_17
REMARK                            x       y       z     vdW  Elec       q    Type
REMARK                         _______ _______ _______ _____ _____    ______ ____
ROOT
ATOM      1  C   UNL     1       4.451   4.219  19.118  0.00  0.00    +0.000 A 
ATOM      2  C   UNL     1       4.741   4.499  17.754  0.00  0.00    +0.000 A 
ATOM      3  C   UNL     1       4.244   5.671  17.141  0.00  0.00    +0.000 A 
ATOM      4  C   UNL     1       3.463   6.536  17.910  0.00  0.00    +0.000 A 
ATOM      5  S   UNL     1       2.686   7.983  17.505  0.00  0.00    +0.000 S 
ATOM      6  C   UNL     1       2.037   8.199  19.080  0.00  0.00    +0.000 A 
ATOM      7  N   UNL     1       1.160   9.267  19.559  0.00  0.00    +0.000 N 
ATOM      8  C   UNL     1       0.450  10.043  18.650  0.00  0.00    +0.000 C 
ATOM      9  O   UNL     1       0.568   9.809  17.455  0.00  0.00    +0.000 OA
ATOM     10  N   UNL     1       2.431   7.172  19.862  0.00  0.00    +0.000 NA
ATOM     11  C   UNL     1       3.197   6.265  19.232  0.00  0.00    +0.000 A 
ATOM     12  C   UNL     1       3.678   5.123  19.853  0.00  0.00    +0.000 A 
ENDROOT
BRANCH   8  13
ATOM     13  C   UNL     1      -0.579  11.107  19.005  0.00  0.00    +0.000 A 
ATOM     14  C   UNL     1      -0.369  12.341  19.674  0.00  0.00    +0.000 A 
ATOM     15  C   UNL     1      -1.520  13.085  19.870  0.00  0.00    +0.000 A 
ATOM     16 CL   UNL     1      -1.596  14.646  20.661  0.00  0.00    +0.000 Cl
ATOM     17  S   UNL     1      -2.829  12.270  19.234  0.00  0.00    +0.000 S 
ATOM     18  C   UNL     1      -1.942  10.952  18.683  0.00  0.00    +0.000 A 
ATOM     19 CL   UNL     1      -2.714   9.583  17.896  0.00  0.00    +0.000 Cl
ENDBRANCH   8  13
BRANCH   1  21
ATOM     20  C   UNL     1       4.098   2.034  20.150  0.00  0.00    +0.000 C 
ATOM     21  O   UNL     1       4.873   3.103  19.765  0.00  0.00    +0.000 OA
ENDBRANCH   1  21
BRANCH   7  22
ATOM     22  C   UNL     1       0.912   9.459  21.009  0.00  0.00    +0.000 C 
BRANCH  22  23
ATOM     23  C   UNL     1      -0.372   8.851  21.619  0.00  0.00    +0.000 C 
BRANCH  23  24
ATOM     24  N   UNL     1      -0.693   9.360  22.968  0.00  0.00    +0.000 NA
ATOM     25  C   UNL     1       0.468   9.269  23.875  0.00  0.00    +0.000 C 
ATOM     26  C   UNL     1      -1.092  10.775  22.843  0.00  0.00    +0.000 C 
ENDBRANCH  23  24
ENDBRANCH  22  23
ENDBRANCH   7  22
TORSDOF 5
ENDMDL
