MODEL 1
REMARK VINA RESULT:      -7.0      0.000      0.000
REMARK  Name = 
REMARK  4 active torsions:
REMARK  status: ('A' for Active; 'I' for Inactive)
REMARK    1  A    between atoms: C_4  and  C_5
REMARK    2  A    between atoms: N_16  and  C_17
REMARK    3  A    between atoms: C_17  and  C_18
REMARK    4  A    between atoms: C_21  and  C_22
REMARK                            x       y       z     vdW  Elec       q    Type
REMARK                         _______ _______ _______ _____ _____    ______ ____
ROOT
ATOM      1  O   UNL     1      -4.269  13.036  24.952  0.00  0.00    +0.000 OA
ATOM      2  C   UNL     1      -3.570  12.889  23.958  0.00  0.00    +0.000 A 
ATOM      3  C   UNL     1      -4.130  13.013  22.603  0.00  0.00    +0.000 A 
ATOM      4  C   UNL     1      -3.383  12.866  21.484  0.00  0.00    +0.000 A 
ATOM      5  C   UNL     1      -1.916  12.544  21.616  0.00  0.00    +0.000 A 
ATOM      6  C   UNL     1      -1.163  12.007  20.569  0.00  0.00    +0.000 A 
ATOM      7  C   UNL     1      -1.039  10.638  20.575  0.00  0.00    +0.000 A 
ATOM      8  C   UNL     1      -0.827  10.062  21.844  0.00  0.00    +0.000 A 
ATOM      9  C   UNL     1      -0.917  10.832  22.999  0.00  0.00    +0.000 A 
ATOM     10  C   UNL     1      -1.601  12.028  22.885  0.00  0.00    +0.000 A 
ATOM     11  N   UNL     1      -2.275  12.458  24.031  0.00  0.00    +0.000 N 
ATOM     12  N   UNL     1      -0.511  10.012  19.429  0.00  0.00    +0.000 N 
ATOM     13  C   UNL     1       0.939  10.242  19.636  0.00  0.00    +0.000 C 
ATOM     14  C   UNL     1       1.114  11.810  19.465  0.00  0.00    +0.000 C 
ATOM     15  O   UNL     1       0.020  12.661  20.109  0.00  0.00    +0.000 OA
ATOM     16  H   UNL     1      -1.988  12.116  24.940  0.00  0.00    +0.000 HD
ENDROOT
BRANCH  13  17
ATOM     17  C   UNL     1       1.629   9.009  19.038  0.00  0.00    +0.000 A 
ATOM     18  C   UNL     1       1.810   7.889  19.916  0.00  0.00    +0.000 A 
ATOM     19  C   UNL     1       2.482   6.741  19.563  0.00  0.00    +0.000 A 
ATOM     20  C   UNL     1       3.087   6.686  18.319  0.00  0.00    +0.000 A 
ATOM     21  C   UNL     1       2.999   7.792  17.454  0.00  0.00    +0.000 A 
ATOM     22  C   UNL     1       2.277   8.950  17.808  0.00  0.00    +0.000 A 
ENDBRANCH  13  17
BRANCH   4  23
ATOM     23  C   UNL     1      -4.111  12.851  20.171  0.00  0.00    +0.000 C 
ATOM     24  F   UNL     1      -3.326  12.853  19.069  0.00  0.00    +0.000 F 
ATOM     25  F   UNL     1      -4.917  11.755  20.072  0.00  0.00    +0.000 F 
ATOM     26  F   UNL     1      -4.939  13.927  20.059  0.00  0.00    +0.000 F 
ENDBRANCH   4  23
BRANCH  12  27
ATOM     27  C   UNL     1      -0.982  10.512  18.100  0.00  0.00    +0.000 C 
BRANCH  27  28
ATOM     28  C   UNL     1      -2.286   9.886  17.736  0.00  0.00    +0.000 C 
ATOM     29  C   UNL     1      -3.317  10.647  16.936  0.00  0.00    +0.000 C 
ATOM     30  C   UNL     1      -2.542   9.531  16.292  0.00  0.00    +0.000 C 
ENDBRANCH  27  28
ENDBRANCH  12  27
TORSDOF 4
ENDMDL
MODEL 2
REMARK VINA RESULT:      -6.9      3.064      7.414
REMARK  Name = 
REMARK  4 active torsions:
REMARK  status: ('A' for Active; 'I' for Inactive)
REMARK    1  A    between atoms: C_4  and  C_5
REMARK    2  A    between atoms: N_16  and  C_17
REMARK    3  A    between atoms: C_17  and  C_18
REMARK    4  A    between atoms: C_21  and  C_22
REMARK                            x       y       z     vdW  Elec       q    Type
REMARK                         _______ _______ _______ _____ _____    ______ ____
ROOT
ATOM      1  O   UNL     1       1.884   8.920  17.365  0.00  0.00    +0.000 OA
ATOM      2  C   UNL     1       1.572   9.679  18.273  0.00  0.00    +0.000 A 
ATOM      3  C   UNL     1       1.140   9.170  19.584  0.00  0.00    +0.000 A 
ATOM      4  C   UNL     1       0.799   9.981  20.611  0.00  0.00    +0.000 A 
ATOM      5  C   UNL     1       0.843  11.476  20.413  0.00  0.00    +0.000 A 
ATOM      6  C   UNL     1       0.165  12.368  21.247  0.00  0.00    +0.000 A 
ATOM      7  C   UNL     1      -1.075  12.762  20.803  0.00  0.00    +0.000 A 
ATOM      8  C   UNL     1      -1.160  13.027  19.421  0.00  0.00    +0.000 A 
ATOM      9  C   UNL     1      -0.097  12.731  18.573  0.00  0.00    +0.000 A 
ATOM     10  C   UNL     1       0.834  11.828  19.053  0.00  0.00    +0.000 A 
ATOM     11  N   UNL     1       1.460  11.029  18.092  0.00  0.00    +0.000 N 
ATOM     12  N   UNL     1      -1.913  13.457  21.697  0.00  0.00    +0.000 N 
ATOM     13  C   UNL     1      -1.338  14.822  21.606  0.00  0.00    +0.000 C 
ATOM     14  C   UNL     1       0.093  14.687  22.276  0.00  0.00    +0.000 C 
ATOM     15  O   UNL     1       0.864  13.417  21.918  0.00  0.00    +0.000 OA
ATOM     16  H   UNL     1       1.493  11.337  17.128  0.00  0.00    +0.000 HD
ENDROOT
BRANCH  13  17
ATOM     17  C   UNL     1      -2.530  15.770  21.789  0.00  0.00    +0.000 A 
ATOM     18  C   UNL     1      -2.610  16.462  23.043  0.00  0.00    +0.000 A 
ATOM     19  C   UNL     1      -3.656  17.282  23.400  0.00  0.00    +0.000 A 
ATOM     20  C   UNL     1      -4.733  17.390  22.536  0.00  0.00    +0.000 A 
ATOM     21  C   UNL     1      -4.731  16.670  21.328  0.00  0.00    +0.000 A 
ATOM     22  C   UNL     1      -3.639  15.862  20.953  0.00  0.00    +0.000 A 
ENDBRANCH  13  17
BRANCH   4  23
ATOM     23  C   UNL     1       0.218   9.333  21.833  0.00  0.00    +0.000 C 
ATOM     24  F   UNL     1      -0.881   9.935  22.346  0.00  0.00    +0.000 F 
ATOM     25  F   UNL     1      -0.130   8.039  21.581  0.00  0.00    +0.000 F 
ATOM     26  F   UNL     1       1.133   9.277  22.840  0.00  0.00    +0.000 F 
ENDBRANCH   4  23
BRANCH  12  27
ATOM     27  C   UNL     1      -1.970  12.958  23.106  0.00  0.00    +0.000 C 
BRANCH  27  28
ATOM     28  C   UNL     1      -3.249  12.232  23.354  0.00  0.00    +0.000 C 
ATOM     29  C   UNL     1      -4.129  12.585  24.530  0.00  0.00    +0.000 C 
ATOM     30  C   UNL     1      -4.552  12.961  23.136  0.00  0.00    +0.000 C 
ENDBRANCH  27  28
ENDBRANCH  12  27
TORSDOF 4
ENDMDL
MODEL 3
REMARK VINA RESULT:      -6.6      3.121      7.395
REMARK  Name = 
REMARK  4 active torsions:
REMARK  status: ('A' for Active; 'I' for Inactive)
REMARK    1  A    between atoms: C_4  and  C_5
REMARK    2  A    between atoms: N_16  and  C_17
REMARK    3  A    between atoms: C_17  and  C_18
REMARK    4  A    between atoms: C_21  and  C_22
REMARK                            x       y       z     vdW  Elec       q    Type
REMARK                         _______ _______ _______ _____ _____    ______ ____
ROOT
ATOM      1  O   UNL     1       1.942   8.967  17.187  0.00  0.00    +0.000 OA
ATOM      2  C   UNL     1       1.655   9.708  18.118  0.00  0.00    +0.000 A 
ATOM      3  C   UNL     1       1.240   9.172  19.424  0.00  0.00    +0.000 A 
ATOM      4  C   UNL     1       0.926   9.963  20.475  0.00  0.00    +0.000 A 
ATOM      5  C   UNL     1       0.981  11.461  20.312  0.00  0.00    +0.000 A 
ATOM      6  C   UNL     1       0.327  12.340  21.178  0.00  0.00    +0.000 A 
ATOM      7  C   UNL     1      -0.916  12.757  20.766  0.00  0.00    +0.000 A 
ATOM      8  C   UNL     1      -1.022  13.055  19.392  0.00  0.00    +0.000 A 
ATOM      9  C   UNL     1       0.024  12.768  18.519  0.00  0.00    +0.000 A 
ATOM     10  C   UNL     1       0.952  11.845  18.961  0.00  0.00    +0.000 A 
ATOM     11  N   UNL     1       1.554  11.063  17.971  0.00  0.00    +0.000 N 
ATOM     12  N   UNL     1      -1.731  13.439  21.690  0.00  0.00    +0.000 N 
ATOM     13  C   UNL     1      -1.144  14.799  21.621  0.00  0.00    +0.000 C 
ATOM     14  C   UNL     1       0.298  14.635  22.263  0.00  0.00    +0.000 C 
ATOM     15  O   UNL     1       1.049  13.365  21.861  0.00  0.00    +0.000 OA
ATOM     16  H   UNL     1       1.573  11.393  17.014  0.00  0.00    +0.000 HD
ENDROOT
BRANCH  13  17
ATOM     17  C   UNL     1      -2.322  15.755  21.847  0.00  0.00    +0.000 A 
ATOM     18  C   UNL     1      -3.299  15.825  20.800  0.00  0.00    +0.000 A 
ATOM     19  C   UNL     1      -4.369  16.690  20.807  0.00  0.00    +0.000 A 
ATOM     20  C   UNL     1      -4.473  17.603  21.844  0.00  0.00    +0.000 A 
ATOM     21  C   UNL     1      -3.495  17.620  22.854  0.00  0.00    +0.000 A 
ATOM     22  C   UNL     1      -2.423  16.705  22.859  0.00  0.00    +0.000 A 
ENDBRANCH  13  17
BRANCH   4  23
ATOM     23  C   UNL     1       0.358   9.291  21.693  0.00  0.00    +0.000 C 
ATOM     24  F   UNL     1       0.217   7.948  21.605  0.00  0.00    +0.000 F 
ATOM     25  F   UNL     1       1.133   9.530  22.788  0.00  0.00    +0.000 F 
ATOM     26  F   UNL     1      -0.872   9.790  21.997  0.00  0.00    +0.000 F 
ENDBRANCH   4  23
BRANCH  12  27
ATOM     27  C   UNL     1      -1.769  12.908  23.088  0.00  0.00    +0.000 C 
BRANCH  27  28
ATOM     28  C   UNL     1      -3.089  12.275  23.373  0.00  0.00    +0.000 C 
ATOM     29  C   UNL     1      -4.184  13.041  24.076  0.00  0.00    +0.000 C 
ATOM     30  C   UNL     1      -4.300  12.745  22.606  0.00  0.00    +0.000 C 
ENDBRANCH  27  28
ENDBRANCH  12  27
TORSDOF 4
ENDMDL
MODEL 4
REMARK VINA RESULT:      -6.6      2.515      4.267
REMARK  Name = 
REMARK  4 active torsions:
REMARK  status: ('A' for Active; 'I' for Inactive)
REMARK    1  A    between atoms: C_4  and  C_5
REMARK    2  A    between atoms: N_16  and  C_17
REMARK    3  A    between atoms: C_17  and  C_18
REMARK    4  A    between atoms: C_21  and  C_22
REMARK                            x       y       z     vdW  Elec       q    Type
REMARK                         _______ _______ _______ _____ _____    ______ ____
ROOT
ATOM      1  O   UNL     1      -0.033  17.862  19.574  0.00  0.00    +0.000 OA
ATOM      2  C   UNL     1      -0.240  16.657  19.522  0.00  0.00    +0.000 A 
ATOM      3  C   UNL     1      -0.960  15.956  20.597  0.00  0.00    +0.000 A 
ATOM      4  C   UNL     1      -1.214  14.628  20.566  0.00  0.00    +0.000 A 
ATOM      5  C   UNL     1      -0.730  13.814  19.393  0.00  0.00    +0.000 A 
ATOM      6  C   UNL     1      -0.600  12.424  19.441  0.00  0.00    +0.000 A 
ATOM      7  C   UNL     1       0.657  11.960  19.750  0.00  0.00    +0.000 A 
ATOM      8  C   UNL     1       1.720  12.657  19.139  0.00  0.00    +0.000 A 
ATOM      9  C   UNL     1       1.484  13.827  18.424  0.00  0.00    +0.000 A 
ATOM     10  C   UNL     1       0.288  14.470  18.680  0.00  0.00    +0.000 A 
ATOM     11  N   UNL     1       0.303  15.862  18.552  0.00  0.00    +0.000 N 
ATOM     12  N   UNL     1       0.806  10.594  20.057  0.00  0.00    +0.000 N 
ATOM     13  C   UNL     1       0.818  10.007  18.695  0.00  0.00    +0.000 C 
ATOM     14  C   UNL     1      -0.658  10.234  18.159  0.00  0.00    +0.000 C 
ATOM     15  O   UNL     1      -1.270  11.594  18.492  0.00  0.00    +0.000 OA
ATOM     16  H   UNL     1       1.012  16.305  17.982  0.00  0.00    +0.000 HD
ENDROOT
BRANCH  13  17
ATOM     17  C   UNL     1       1.758   8.798  18.788  0.00  0.00    +0.000 A 
ATOM     18  C   UNL     1       2.545   8.508  17.625  0.00  0.00    +0.000 A 
ATOM     19  C   UNL     1       3.373   7.414  17.514  0.00  0.00    +0.000 A 
ATOM     20  C   UNL     1       3.394   6.495  18.550  0.00  0.00    +0.000 A 
ATOM     21  C   UNL     1       2.581   6.701  19.679  0.00  0.00    +0.000 A 
ATOM     22  C   UNL     1       1.764   7.844  19.801  0.00  0.00    +0.000 A 
ENDBRANCH  13  17
BRANCH   4  23
ATOM     23  C   UNL     1      -1.806  14.014  21.802  0.00  0.00    +0.000 C 
ATOM     24  F   UNL     1      -0.913  13.542  22.703  0.00  0.00    +0.000 F 
ATOM     25  F   UNL     1      -2.591  14.911  22.464  0.00  0.00    +0.000 F 
ATOM     26  F   UNL     1      -2.624  12.973  21.486  0.00  0.00    +0.000 F 
ENDBRANCH   4  23
BRANCH  12  27
ATOM     27  C   UNL     1      -0.236   9.973  20.932  0.00  0.00    +0.000 C 
BRANCH  27  28
ATOM     28  C   UNL     1      -0.076  10.431  22.343  0.00  0.00    +0.000 C 
ATOM     29  C   UNL     1      -1.253  10.462  23.289  0.00  0.00    +0.000 C 
ATOM     30  C   UNL     1      -0.186   9.415  23.453  0.00  0.00    +0.000 C 
ENDBRANCH  27  28
ENDBRANCH  12  27
TORSDOF 4
ENDMDL
MODEL 5
REMARK VINA RESULT:      -6.5      3.088      4.753
REMARK  Name = 
REMARK  4 active torsions:
REMARK  status: ('A' for Active; 'I' for Inactive)
REMARK    1  A    between atoms: C_4  and  C_5
REMARK    2  A    between atoms: N_16  and  C_17
REMARK    3  A    between atoms: C_17  and  C_18
REMARK    4  A    between atoms: C_21  and  C_22
REMARK                            x       y       z     vdW  Elec       q    Type
REMARK                         _______ _______ _______ _____ _____    ______ ____
ROOT
ATOM      1  O   UNL     1       1.907  18.549  19.532  0.00  0.00    +0.000 OA
ATOM      2  C   UNL     1       1.383  17.446  19.440  0.00  0.00    +0.000 A 
ATOM      3  C   UNL     1       0.384  16.988  20.419  0.00  0.00    +0.000 A 
ATOM      4  C   UNL     1      -0.219  15.780  20.340  0.00  0.00    +0.000 A 
ATOM      5  C   UNL     1       0.149  14.845  19.216  0.00  0.00    +0.000 A 
ATOM      6  C   UNL     1      -0.114  13.474  19.257  0.00  0.00    +0.000 A 
ATOM      7  C   UNL     1       0.924  12.688  19.697  0.00  0.00    +0.000 A 
ATOM      8  C   UNL     1       2.198  13.056  19.217  0.00  0.00    +0.000 A 
ATOM      9  C   UNL     1       2.374  14.234  18.498  0.00  0.00    +0.000 A 
ATOM     10  C   UNL     1       1.380  15.185  18.630  0.00  0.00    +0.000 A 
ATOM     11  N   UNL     1       1.791  16.517  18.525  0.00  0.00    +0.000 N 
ATOM     12  N   UNL     1       0.657  11.338  19.998  0.00  0.00    +0.000 N 
ATOM     13  C   UNL     1       0.659  10.749  18.637  0.00  0.00    +0.000 C 
ATOM     14  C   UNL     1      -0.630  11.363  17.945  0.00  0.00    +0.000 C 
ATOM     15  O   UNL     1      -0.878  12.845  18.227  0.00  0.00    +0.000 OA
ATOM     16  H   UNL     1       2.653  16.739  18.043  0.00  0.00    +0.000 HD
ENDROOT
BRANCH  13  17
ATOM     17  C   UNL     1       1.214   9.330  18.816  0.00  0.00    +0.000 A 
ATOM     18  C   UNL     1       1.242   8.819  20.156  0.00  0.00    +0.000 A 
ATOM     19  C   UNL     1       1.783   7.601  20.499  0.00  0.00    +0.000 A 
ATOM     20  C   UNL     1       2.408   6.855  19.514  0.00  0.00    +0.000 A 
ATOM     21  C   UNL     1       2.469   7.353  18.200  0.00  0.00    +0.000 A 
ATOM     22  C   UNL     1       1.879   8.583  17.848  0.00  0.00    +0.000 A 
ENDBRANCH  13  17
BRANCH   4  23
ATOM     23  C   UNL     1      -1.090  15.373  21.494  0.00  0.00    +0.000 C 
ATOM     24  F   UNL     1      -0.518  14.533  22.388  0.00  0.00    +0.000 F 
ATOM     25  F   UNL     1      -1.511  16.462  22.197  0.00  0.00    +0.000 F 
ATOM     26  F   UNL     1      -2.224  14.758  21.057  0.00  0.00    +0.000 F 
ENDBRANCH   4  23
BRANCH  12  27
ATOM     27  C   UNL     1      -0.605  11.042  20.743  0.00  0.00    +0.000 C 
BRANCH  27  28
ATOM     28  C   UNL     1      -0.419  11.279  22.204  0.00  0.00    +0.000 C 
ATOM     29  C   UNL     1      -1.606  11.381  23.133  0.00  0.00    +0.000 C 
ATOM     30  C   UNL     1      -0.729  10.159  23.167  0.00  0.00    +0.000 C 
ENDBRANCH  27  28
ENDBRANCH  12  27
TORSDOF 4
ENDMDL
MODEL 6
REMARK VINA RESULT:      -6.5      2.990      4.742
REMARK  Name = 
REMARK  4 active torsions:
REMARK  status: ('A' for Active; 'I' for Inactive)
REMARK    1  A    between atoms: C_4  and  C_5
REMARK    2  A    between atoms: N_16  and  C_17
REMARK    3  A    between atoms: C_17  and  C_18
REMARK    4  A    between atoms: C_21  and  C_22
REMARK                            x       y       z     vdW  Elec       q    Type
REMARK                         _______ _______ _______ _____ _____    ______ ____
ROOT
ATOM      1  O   UNL     1       1.540  18.532  19.322  0.00  0.00    +0.000 OA
ATOM      2  C   UNL     1       1.094  17.393  19.268  0.00  0.00    +0.000 A 
ATOM      3  C   UNL     1       0.085  16.919  20.228  0.00  0.00    +0.000 A 
ATOM      4  C   UNL     1      -0.435  15.672  20.191  0.00  0.00    +0.000 A 
ATOM      5  C   UNL     1       0.043  14.707  19.135  0.00  0.00    +0.000 A 
ATOM      6  C   UNL     1      -0.132  13.325  19.240  0.00  0.00    +0.000 A 
ATOM      7  C   UNL     1       0.935  12.635  19.764  0.00  0.00    +0.000 A 
ATOM      8  C   UNL     1       2.203  13.062  19.317  0.00  0.00    +0.000 A 
ATOM      9  C   UNL     1       2.333  14.211  18.543  0.00  0.00    +0.000 A 
ATOM     10  C   UNL     1       1.274  15.098  18.582  0.00  0.00    +0.000 A 
ATOM     11  N   UNL     1       1.602  16.447  18.422  0.00  0.00    +0.000 N 
ATOM     12  N   UNL     1       0.743  11.287  20.127  0.00  0.00    +0.000 N 
ATOM     13  C   UNL     1       0.844  10.630  18.800  0.00  0.00    +0.000 C 
ATOM     14  C   UNL     1      -0.450  11.119  18.024  0.00  0.00    +0.000 C 
ATOM     15  O   UNL     1      -0.806  12.593  18.215  0.00  0.00    +0.000 OA
ATOM     16  H   UNL     1       2.468  16.702  17.964  0.00  0.00    +0.000 HD
ENDROOT
BRANCH  13  17
ATOM     17  C   UNL     1       1.482   9.262  19.079  0.00  0.00    +0.000 A 
ATOM     18  C   UNL     1       2.047   8.579  17.952  0.00  0.00    +0.000 A 
ATOM     19  C   UNL     1       2.581   7.312  18.014  0.00  0.00    +0.000 A 
ATOM     20  C   UNL     1       2.502   6.621  19.212  0.00  0.00    +0.000 A 
ATOM     21  C   UNL     1       1.888   7.225  20.324  0.00  0.00    +0.000 A 
ATOM     22  C   UNL     1       1.378   8.537  20.262  0.00  0.00    +0.000 A 
ENDBRANCH  13  17
BRANCH   4  23
ATOM     23  C   UNL     1      -1.328  15.266  21.328  0.00  0.00    +0.000 C 
ATOM     24  F   UNL     1      -1.858  16.285  22.045  0.00  0.00    +0.000 F 
ATOM     25  F   UNL     1      -2.376  14.517  20.883  0.00  0.00    +0.000 F 
ATOM     26  F   UNL     1      -0.662  14.475  22.214  0.00  0.00    +0.000 F 
ENDBRANCH   4  23
BRANCH  12  27
ATOM     27  C   UNL     1      -0.529  10.945  20.834  0.00  0.00    +0.000 C 
BRANCH  27  28
ATOM     28  C   UNL     1      -0.389  11.172  22.302  0.00  0.00    +0.000 C 
ATOM     29  C   UNL     1      -1.605  11.344  23.182  0.00  0.00    +0.000 C 
ATOM     30  C   UNL     1      -0.804  10.072  23.249  0.00  0.00    +0.000 C 
ENDBRANCH  27  28
ENDBRANCH  12  27
TORSDOF 4
ENDMDL
MODEL 7
REMARK VINA RESULT:      -6.4      2.934      7.453
REMARK  Name = 
REMARK  4 active torsions:
REMARK  status: ('A' for Active; 'I' for Inactive)
REMARK    1  A    between atoms: C_4  and  C_5
REMARK    2  A    between atoms: N_16  and  C_17
REMARK    3  A    between atoms: C_17  and  C_18
REMARK    4  A    between atoms: C_21  and  C_22
REMARK                            x       y       z     vdW  Elec       q    Type
REMARK                         _______ _______ _______ _____ _____    ______ ____
ROOT
ATOM      1  O   UNL     1       1.801   8.622  17.918  0.00  0.00    +0.000 OA
ATOM      2  C   UNL     1       1.341   9.481  18.660  0.00  0.00    +0.000 A 
ATOM      3  C   UNL     1       1.042   9.193  20.072  0.00  0.00    +0.000 A 
ATOM      4  C   UNL     1       0.544  10.121  20.920  0.00  0.00    +0.000 A 
ATOM      5  C   UNL     1       0.261  11.511  20.407  0.00  0.00    +0.000 A 
ATOM      6  C   UNL     1      -0.586  12.402  21.069  0.00  0.00    +0.000 A 
ATOM      7  C   UNL     1      -1.885  12.422  20.623  0.00  0.00    +0.000 A 
ATOM      8  C   UNL     1      -2.039  12.353  19.223  0.00  0.00    +0.000 A 
ATOM      9  C   UNL     1      -0.944  12.106  18.399  0.00  0.00    +0.000 A 
ATOM     10  C   UNL     1       0.163  11.545  19.006  0.00  0.00    +0.000 A 
ATOM     11  N   UNL     1       0.939  10.704  18.203  0.00  0.00    +0.000 N 
ATOM     12  N   UNL     1      -2.845  13.105  21.395  0.00  0.00    +0.000 N 
ATOM     13  C   UNL     1      -2.580  14.506  20.983  0.00  0.00    +0.000 C 
ATOM     14  C   UNL     1      -1.147  14.824  21.585  0.00  0.00    +0.000 C 
ATOM     15  O   UNL     1      -0.123  13.695  21.462  0.00  0.00    +0.000 OA
ATOM     16  H   UNL     1       0.895  10.792  17.195  0.00  0.00    +0.000 HD
ENDROOT
BRANCH  13  17
ATOM     17  C   UNL     1      -3.947  15.202  21.028  0.00  0.00    +0.000 A 
ATOM     18  C   UNL     1      -4.055  16.343  21.889  0.00  0.00    +0.000 A 
ATOM     19  C   UNL     1      -5.229  17.028  22.108  0.00  0.00    +0.000 A 
ATOM     20  C   UNL     1      -6.391  16.548  21.527  0.00  0.00    +0.000 A 
ATOM     21  C   UNL     1      -6.344  15.387  20.734  0.00  0.00    +0.000 A 
ATOM     22  C   UNL     1      -5.131  14.713  20.485  0.00  0.00    +0.000 A 
ENDBRANCH  13  17
BRANCH   4  23
ATOM     23  C   UNL     1       0.127   9.650  22.284  0.00  0.00    +0.000 C 
ATOM     24  F   UNL     1      -0.824   8.687  22.302  0.00  0.00    +0.000 F 
ATOM     25  F   UNL     1       1.193   9.157  22.976  0.00  0.00    +0.000 F 
ATOM     26  F   UNL     1      -0.352  10.681  23.032  0.00  0.00    +0.000 F 
ENDBRANCH   4  23
BRANCH  12  27
ATOM     27  C   UNL     1      -2.780  12.928  22.878  0.00  0.00    +0.000 C 
BRANCH  27  28
ATOM     28  C   UNL     1      -4.069  12.388  23.399  0.00  0.00    +0.000 C 
ATOM     29  C   UNL     1      -4.382  12.409  24.877  0.00  0.00    +0.000 C 
ATOM     30  C   UNL     1      -5.093  13.353  23.945  0.00  0.00    +0.000 C 
ENDBRANCH  27  28
ENDBRANCH  12  27
TORSDOF 4
ENDMDL
MODEL 8
REMARK VINA RESULT:      -6.4      2.917      7.411
REMARK  Name = 
REMARK  4 active torsions:
REMARK  status: ('A' for Active; 'I' for Inactive)
REMARK    1  A    between atoms: C_4  and  C_5
REMARK    2  A    between atoms: N_16  and  C_17
REMARK    3  A    between atoms: C_17  and  C_18
REMARK    4  A    between atoms: C_21  and  C_22
REMARK                            x       y       z     vdW  Elec       q    Type
REMARK                         _______ _______ _______ _____ _____    ______ ____
ROOT
ATOM      1  O   UNL     1       1.782   8.503  17.808  0.00  0.00    +0.000 OA
ATOM      2  C   UNL     1       1.342   9.351  18.573  0.00  0.00    +0.000 A 
ATOM      3  C   UNL     1       1.082   9.045  19.989  0.00  0.00    +0.000 A 
ATOM      4  C   UNL     1       0.605   9.961  20.862  0.00  0.00    +0.000 A 
ATOM      5  C   UNL     1       0.306  11.356  20.375  0.00  0.00    +0.000 A 
ATOM      6  C   UNL     1      -0.524  12.238  21.071  0.00  0.00    +0.000 A 
ATOM      7  C   UNL     1      -1.835  12.260  20.661  0.00  0.00    +0.000 A 
ATOM      8  C   UNL     1      -2.027  12.208  19.264  0.00  0.00    +0.000 A 
ATOM      9  C   UNL     1      -0.955  11.974  18.408  0.00  0.00    +0.000 A 
ATOM     10  C   UNL     1       0.170  11.408  18.977  0.00  0.00    +0.000 A 
ATOM     11  N   UNL     1       0.924  10.579  18.143  0.00  0.00    +0.000 N 
ATOM     12  N   UNL     1      -2.774  12.932  21.467  0.00  0.00    +0.000 N 
ATOM     13  C   UNL     1      -2.523  14.338  21.066  0.00  0.00    +0.000 C 
ATOM     14  C   UNL     1      -1.075  14.652  21.632  0.00  0.00    +0.000 C 
ATOM     15  O   UNL     1      -0.053  13.527  21.467  0.00  0.00    +0.000 OA
ATOM     16  H   UNL     1       0.853  10.680  17.138  0.00  0.00    +0.000 HD
ENDROOT
BRANCH  13  17
ATOM     17  C   UNL     1      -3.890  15.030  21.157  0.00  0.00    +0.000 A 
ATOM     18  C   UNL     1      -4.969  14.408  20.447  0.00  0.00    +0.000 A 
ATOM     19  C   UNL     1      -6.235  14.942  20.357  0.00  0.00    +0.000 A 
ATOM     20  C   UNL     1      -6.466  16.189  20.915  0.00  0.00    +0.000 A 
ATOM     21  C   UNL     1      -5.414  16.869  21.556  0.00  0.00    +0.000 A 
ATOM     22  C   UNL     1      -4.131  16.298  21.677  0.00  0.00    +0.000 A 
ENDBRANCH  13  17
BRANCH   4  23
ATOM     23  C   UNL     1       0.227   9.472  22.231  0.00  0.00    +0.000 C 
ATOM     24  F   UNL     1      -0.233  10.419  23.082  0.00  0.00    +0.000 F 
ATOM     25  F   UNL     1      -0.739   8.513  22.157  0.00  0.00    +0.000 F 
ATOM     26  F   UNL     1       1.287   8.879  22.848  0.00  0.00    +0.000 F 
ENDBRANCH   4  23
BRANCH  12  27
ATOM     27  C   UNL     1      -2.668  12.736  22.946  0.00  0.00    +0.000 C 
BRANCH  27  28
ATOM     28  C   UNL     1      -3.965  12.256  23.506  0.00  0.00    +0.000 C 
ATOM     29  C   UNL     1      -4.331  12.509  24.949  0.00  0.00    +0.000 C 
ATOM     30  C   UNL     1      -5.025  13.272  23.854  0.00  0.00    +0.000 C 
ENDBRANCH  27  28
ENDBRANCH  12  27
TORSDOF 4
ENDMDL
MODEL 9
REMARK VINA RESULT:      -6.3      1.616      2.218
REMARK  Name = 
REMARK  4 active torsions:
REMARK  status: ('A' for Active; 'I' for Inactive)
REMARK    1  A    between atoms: C_4  and  C_5
REMARK    2  A    between atoms: N_16  and  C_17
REMARK    3  A    between atoms: C_17  and  C_18
REMARK    4  A    between atoms: C_21  and  C_22
REMARK                            x       y       z     vdW  Elec       q    Type
REMARK                         _______ _______ _______ _____ _____    ______ ____
ROOT
ATOM      1  O   UNL     1      -4.700  15.889  24.940  0.00  0.00    +0.000 OA
ATOM      2  C   UNL     1      -4.127  15.478  23.940  0.00  0.00    +0.000 A 
ATOM      3  C   UNL     1      -4.873  15.104  22.728  0.00  0.00    +0.000 A 
ATOM      4  C   UNL     1      -4.270  14.656  21.603  0.00  0.00    +0.000 A 
ATOM      5  C   UNL     1      -2.769  14.512  21.581  0.00  0.00    +0.000 A 
ATOM      6  C   UNL     1      -2.100  13.720  20.645  0.00  0.00    +0.000 A 
ATOM      7  C   UNL     1      -1.802  12.444  21.058  0.00  0.00    +0.000 A 
ATOM      8  C   UNL     1      -1.350  12.335  22.389  0.00  0.00    +0.000 A 
ATOM      9  C   UNL     1      -1.384  13.434  23.243  0.00  0.00    +0.000 A 
ATOM     10  C   UNL     1      -2.224  14.467  22.876  0.00  0.00    +0.000 A 
ATOM     11  N   UNL     1      -2.789  15.197  23.926  0.00  0.00    +0.000 N 
ATOM     12  N   UNL     1      -1.355  11.518  20.094  0.00  0.00    +0.000 N 
ATOM     13  C   UNL     1       0.069  11.916  19.972  0.00  0.00    +0.000 C 
ATOM     14  C   UNL     1       0.016  13.348  19.292  0.00  0.00    +0.000 C 
ATOM     15  O   UNL     1      -1.083  14.276  19.811  0.00  0.00    +0.000 OA
ATOM     16  H   UNL     1      -2.342  15.197  24.834  0.00  0.00    +0.000 HD
ENDROOT
BRANCH  13  17
ATOM     17  C   UNL     1       0.825  10.613  19.684  0.00  0.00    +0.000 A 
ATOM     18  C   UNL     1       1.420  10.493  18.385  0.00  0.00    +0.000 A 
ATOM     19  C   UNL     1       2.059   9.359  17.937  0.00  0.00    +0.000 A 
ATOM     20  C   UNL     1       2.065   8.240  18.753  0.00  0.00    +0.000 A 
ATOM     21  C   UNL     1       1.428   8.289  20.006  0.00  0.00    +0.000 A 
ATOM     22  C   UNL     1       0.808   9.466  20.472  0.00  0.00    +0.000 A 
ENDBRANCH  13  17
BRANCH   4  23
ATOM     23  C   UNL     1      -5.158  14.152  20.503  0.00  0.00    +0.000 C 
ATOM     24  F   UNL     1      -5.148  14.884  19.364  0.00  0.00    +0.000 F 
ATOM     25  F   UNL     1      -4.824  12.879  20.150  0.00  0.00    +0.000 F 
ATOM     26  F   UNL     1      -6.456  14.092  20.911  0.00  0.00    +0.000 F 
ENDBRANCH   4  23
BRANCH  12  27
ATOM     27  C   UNL     1      -2.059  11.515  18.774  0.00  0.00    +0.000 C 
BRANCH  27  28
ATOM     28  C   UNL     1      -2.226  10.120  18.273  0.00  0.00    +0.000 C 
ATOM     29  C   UNL     1      -3.426   9.730  17.443  0.00  0.00    +0.000 C 
ATOM     30  C   UNL     1      -2.074   9.856  16.795  0.00  0.00    +0.000 C 
ENDBRANCH  27  28
ENDBRANCH  12  27
TORSDOF 4
ENDMDL
