MODEL 1
REMARK VINA RESULT:      -7.6      0.000      0.000
REMARK  Name = 
REMARK  10 active torsions:
REMARK  status: ('A' for Active; 'I' for Inactive)
REMARK    1  A    between atoms: N_1  and  C_2
REMARK    2  A    between atoms: C_2  and  C_3
REMARK    3  A    between atoms: C_2  and  C_11
REMARK    4  A    between atoms: C_3  and  C_4
REMARK    5  A    between atoms: C_7  and  O_8
REMARK    6  A    between atoms: C_14  and  CA_15
REMARK    7  A    between atoms: CA_15  and  C_16
REMARK    8  A    between atoms: CA_15  and  N_18
REMARK    9  A    between atoms: C_16  and  O_17
REMARK   10  A    between atoms: C_19  and  C_21
REMARK                            x       y       z     vdW  Elec       q    Type
REMARK                         _______ _______ _______ _____ _____    ______ ____
ROOT
ATOM      1  C   UNL     1       7.991   7.716  17.894  0.00  0.00    +0.000 A 
ATOM      2  N   UNL     1       8.213   6.865  18.913  0.00  0.00    +0.000 NA
ATOM      3  N   UNL     1       7.616   5.730  18.584  0.00  0.00    +0.000 NA
ATOM      4  C   UNL     1       7.058   5.931  17.371  0.00  0.00    +0.000 A 
ATOM      5  O   UNL     1       7.296   7.141  16.943  0.00  0.00    +0.000 OA
ENDROOT
BRANCH   1   6
ATOM      6  C   UNL     1       8.395   9.165  17.894  0.00  0.00    +0.000 C 
BRANCH   6   7
ATOM      7  N   UNL     1       7.252   9.998  17.524  0.00  0.00    +0.000 NA
ATOM      8  H   UNL     1       6.373   9.437  17.608  0.00  0.00    +0.000 HD
ATOM      9  H   UNL     1       7.349  10.326  16.535  0.00  0.00    +0.000 HD
ENDBRANCH   6   7
BRANCH   6  10
ATOM     10  C   UNL     1       8.975   9.593  19.266  0.00  0.00    +0.000 C 
BRANCH  10  11
ATOM     11  C   UNL     1       9.890  10.797  19.147  0.00  0.00    +0.000 A 
ATOM     12  C   UNL     1      10.276  11.520  20.289  0.00  0.00    +0.000 A 
ATOM     13  C   UNL     1      11.094  12.648  20.168  0.00  0.00    +0.000 A 
ATOM     14  C   UNL     1      11.536  13.067  18.905  0.00  0.00    +0.000 A 
ATOM     15  C   UNL     1      11.160  12.349  17.766  0.00  0.00    +0.000 A 
ATOM     16  C   UNL     1      10.346  11.219  17.884  0.00  0.00    +0.000 A 
BRANCH  14  17
ATOM     17  O   UNL     1      12.319  14.157  18.774  0.00  0.00    +0.000 OA
ATOM     18  H   UNL     1      12.842  14.322  17.976  0.00  0.00    +0.000 HD
ENDBRANCH  14  17
ENDBRANCH  10  11
ENDBRANCH   6  10
ENDBRANCH   1   6
BRANCH   4  19
ATOM     19  CA  UNL     1       6.180   4.960  16.629  0.00  0.00    +0.000 C 
BRANCH  19  20
ATOM     20  N   UNL     1       4.782   5.237  16.913  0.00  0.00    +0.000 N 
ATOM     21  C   UNL     1       3.901   4.313  17.405  0.00  0.00    +0.000 C 
ATOM     22  O   UNL     1       4.271   3.173  17.645  0.00  0.00    +0.000 OA
ATOM     23  H   UNL     1       4.443   6.192  16.719  0.00  0.00    +0.000 HD
BRANCH  21  24
ATOM     24  C   UNL     1       2.441   4.711  17.630  0.00  0.00    +0.000 C 
ATOM     25  C   UNL     1       2.329   6.104  18.280  0.00  0.00    +0.000 C 
ATOM     26  C   UNL     1       2.810   6.053  19.737  0.00  0.00    +0.000 C 
ATOM     27  N   UNL     1       1.984   5.120  20.519  0.00  0.00    +0.000 NA
ATOM     28  C   UNL     1       2.058   3.754  19.976  0.00  0.00    +0.000 C 
ATOM     29  C   UNL     1       1.627   3.715  18.495  0.00  0.00    +0.000 C 
ATOM     30  H   UNL     1       0.989   5.448  20.510  0.00  0.00    +0.000 HD
ENDBRANCH  21  24
ENDBRANCH  19  20
BRANCH  19  31
ATOM     31  C   UNL     1       6.422   5.014  15.107  0.00  0.00    +0.000 C 
BRANCH  31  32
ATOM     32  O   UNL     1       7.710   5.488  14.801  0.00  0.00    +0.000 OA
ATOM     33  H   UNL     1       7.616   6.195  14.111  0.00  0.00    +0.000 HD
ENDBRANCH  31  32
ENDBRANCH  19  31
ENDBRANCH   4  19
TORSDOF 10
ENDMDL
MODEL 2
REMARK VINA RESULT:      -7.5      0.460      1.037
REMARK  Name = 
REMARK  10 active torsions:
REMARK  status: ('A' for Active; 'I' for Inactive)
REMARK    1  A    between atoms: N_1  and  C_2
REMARK    2  A    between atoms: C_2  and  C_3
REMARK    3  A    between atoms: C_2  and  C_11
REMARK    4  A    between atoms: C_3  and  C_4
REMARK    5  A    between atoms: C_7  and  O_8
REMARK    6  A    between atoms: C_14  and  CA_15
REMARK    7  A    between atoms: CA_15  and  C_16
REMARK    8  A    between atoms: CA_15  and  N_18
REMARK    9  A    between atoms: C_16  and  O_17
REMARK   10  A    between atoms: C_19  and  C_21
REMARK                            x       y       z     vdW  Elec       q    Type
REMARK                         _______ _______ _______ _____ _____    ______ ____
ROOT
ATOM      1  C   UNL     1       7.967   7.749  17.886  0.00  0.00    +0.000 A 
ATOM      2  N   UNL     1       8.197   6.871  18.879  0.00  0.00    +0.000 NA
ATOM      3  N   UNL     1       7.551   5.764  18.551  0.00  0.00    +0.000 NA
ATOM      4  C   UNL     1       6.957   6.007  17.364  0.00  0.00    +0.000 A 
ATOM      5  O   UNL     1       7.219   7.217  16.950  0.00  0.00    +0.000 OA
ENDROOT
BRANCH   1   6
ATOM      6  C   UNL     1       8.420   9.184  17.898  0.00  0.00    +0.000 C 
BRANCH   6   7
ATOM      7  N   UNL     1       7.316  10.055  17.498  0.00  0.00    +0.000 NA
ATOM      8  H   UNL     1       7.699  10.905  17.024  0.00  0.00    +0.000 HD
ATOM      9  H   UNL     1       6.769  10.355  18.338  0.00  0.00    +0.000 HD
ENDBRANCH   6   7
BRANCH   6  10
ATOM     10  C   UNL     1       8.976   9.592  19.287  0.00  0.00    +0.000 C 
BRANCH  10  11
ATOM     11  C   UNL     1       9.852  10.829  19.208  0.00  0.00    +0.000 A 
ATOM     12  C   UNL     1      10.438  11.215  17.991  0.00  0.00    +0.000 A 
ATOM     13  C   UNL     1      11.270  12.338  17.932  0.00  0.00    +0.000 A 
ATOM     14  C   UNL     1      11.526  13.087  19.089  0.00  0.00    +0.000 A 
ATOM     15  C   UNL     1      10.942  12.711  20.302  0.00  0.00    +0.000 A 
ATOM     16  C   UNL     1      10.107  11.592  20.362  0.00  0.00    +0.000 A 
BRANCH  14  17
ATOM     17  O   UNL     1      12.333  14.167  19.047  0.00  0.00    +0.000 OA
ATOM     18  H   UNL     1      11.996  15.054  18.852  0.00  0.00    +0.000 HD
ENDBRANCH  14  17
ENDBRANCH  10  11
ENDBRANCH   6  10
ENDBRANCH   1   6
BRANCH   4  19
ATOM     19  CA  UNL     1       6.020   5.082  16.636  0.00  0.00    +0.000 C 
BRANCH  19  20
ATOM     20  N   UNL     1       4.651   5.324  17.062  0.00  0.00    +0.000 N 
ATOM     21  C   UNL     1       3.753   4.334  17.357  0.00  0.00    +0.000 C 
ATOM     22  O   UNL     1       4.081   3.159  17.280  0.00  0.00    +0.000 OA
ATOM     23  H   UNL     1       4.348   6.307  17.135  0.00  0.00    +0.000 HD
BRANCH  21  24
ATOM     24  C   UNL     1       2.326   4.710  17.759  0.00  0.00    +0.000 C 
ATOM     25  C   UNL     1       2.315   5.695  18.944  0.00  0.00    +0.000 C 
ATOM     26  C   UNL     1       2.768   4.988  20.230  0.00  0.00    +0.000 C 
ATOM     27  N   UNL     1       1.859   3.877  20.555  0.00  0.00    +0.000 NA
ATOM     28  C   UNL     1       1.833   2.874  19.478  0.00  0.00    +0.000 C 
ATOM     29  C   UNL     1       1.423   3.506  18.132  0.00  0.00    +0.000 C 
ATOM     30  H   UNL     1       0.893   4.254  20.707  0.00  0.00    +0.000 HD
ENDBRANCH  21  24
ENDBRANCH  19  20
BRANCH  19  31
ATOM     31  C   UNL     1       6.125   5.243  15.106  0.00  0.00    +0.000 C 
BRANCH  31  32
ATOM     32  O   UNL     1       7.463   5.254  14.674  0.00  0.00    +0.000 OA
ATOM     33  H   UNL     1       7.812   6.176  14.792  0.00  0.00    +0.000 HD
ENDBRANCH  31  32
ENDBRANCH  19  31
ENDBRANCH   4  19
TORSDOF 10
ENDMDL
MODEL 3
REMARK VINA RESULT:      -7.2      5.446      7.747
REMARK  Name = 
REMARK  10 active torsions:
REMARK  status: ('A' for Active; 'I' for Inactive)
REMARK    1  A    between atoms: N_1  and  C_2
REMARK    2  A    between atoms: C_2  and  C_3
REMARK    3  A    between atoms: C_2  and  C_11
REMARK    4  A    between atoms: C_3  and  C_4
REMARK    5  A    between atoms: C_7  and  O_8
REMARK    6  A    between atoms: C_14  and  CA_15
REMARK    7  A    between atoms: CA_15  and  C_16
REMARK    8  A    between atoms: CA_15  and  N_18
REMARK    9  A    between atoms: C_16  and  O_17
REMARK   10  A    between atoms: C_19  and  C_21
REMARK                            x       y       z     vdW  Elec       q    Type
REMARK                         _______ _______ _______ _____ _____    ______ ____
ROOT
ATOM      1  C   UNL     1       1.982   8.236  18.862  0.00  0.00    +0.000 A 
ATOM      2  N   UNL     1       2.386   8.829  17.724  0.00  0.00    +0.000 NA
ATOM      3  N   UNL     1       3.263   8.008  17.169  0.00  0.00    +0.000 NA
ATOM      4  C   UNL     1       3.354   6.938  17.989  0.00  0.00    +0.000 A 
ATOM      5  O   UNL     1       2.564   7.071  19.019  0.00  0.00    +0.000 OA
ENDROOT
BRANCH   1   6
ATOM      6  C   UNL     1       1.066   8.871  19.873  0.00  0.00    +0.000 C 
BRANCH   6   7
ATOM      7  N   UNL     1       1.506   8.528  21.224  0.00  0.00    +0.000 NA
ATOM      8  H   UNL     1       0.726   8.704  21.898  0.00  0.00    +0.000 HD
ATOM      9  H   UNL     1       2.327   9.117  21.497  0.00  0.00    +0.000 HD
ENDBRANCH   6   7
BRANCH   6  10
ATOM     10  C   UNL     1       0.991  10.408  19.684  0.00  0.00    +0.000 C 
BRANCH  10  11
ATOM     11  C   UNL     1      -0.383  10.859  19.226  0.00  0.00    +0.000 A 
ATOM     12  C   UNL     1      -1.098  11.828  19.951  0.00  0.00    +0.000 A 
ATOM     13  C   UNL     1      -2.378  12.215  19.540  0.00  0.00    +0.000 A 
ATOM     14  C   UNL     1      -2.957  11.641  18.400  0.00  0.00    +0.000 A 
ATOM     15  C   UNL     1      -2.248  10.680  17.672  0.00  0.00    +0.000 A 
ATOM     16  C   UNL     1      -0.968  10.294  18.078  0.00  0.00    +0.000 A 
BRANCH  14  17
ATOM     17  O   UNL     1      -4.193  12.000  17.998  0.00  0.00    +0.000 OA
ATOM     18  H   UNL     1      -4.342  12.520  17.195  0.00  0.00    +0.000 HD
ENDBRANCH  14  17
ENDBRANCH  10  11
ENDBRANCH   6  10
ENDBRANCH   1   6
BRANCH   4  19
ATOM     19  CA  UNL     1       4.306   5.783  17.835  0.00  0.00    +0.000 C 
BRANCH  19  20
ATOM     20  N   UNL     1       3.682   4.558  18.307  0.00  0.00    +0.000 N 
ATOM     21  C   UNL     1       4.276   3.679  19.172  0.00  0.00    +0.000 C 
ATOM     22  O   UNL     1       5.396   3.901  19.607  0.00  0.00    +0.000 OA
ATOM     23  H   UNL     1       2.736   4.346  17.956  0.00  0.00    +0.000 HD
BRANCH  21  24
ATOM     24  C   UNL     1       3.536   2.401  19.571  0.00  0.00    +0.000 C 
ATOM     25  C   UNL     1       2.267   2.195  18.720  0.00  0.00    +0.000 C 
ATOM     26  C   UNL     1       1.201   3.237  19.091  0.00  0.00    +0.000 C 
ATOM     27  N   UNL     1       0.824   3.107  20.507  0.00  0.00    +0.000 NA
ATOM     28  C   UNL     1       1.982   3.317  21.391  0.00  0.00    +0.000 C 
ATOM     29  C   UNL     1       3.124   2.333  21.064  0.00  0.00    +0.000 C 
ATOM     30  H   UNL     1       0.425   2.152  20.672  0.00  0.00    +0.000 HD
ENDBRANCH  21  24
ENDBRANCH  19  20
BRANCH  19  31
ATOM     31  C   UNL     1       4.760   5.604  16.372  0.00  0.00    +0.000 C 
BRANCH  31  32
ATOM     32  O   UNL     1       5.527   6.696  15.928  0.00  0.00    +0.000 OA
ATOM     33  H   UNL     1       4.999   7.521  16.086  0.00  0.00    +0.000 HD
ENDBRANCH  31  32
ENDBRANCH  19  31
ENDBRANCH   4  19
TORSDOF 10
ENDMDL
MODEL 4
REMARK VINA RESULT:      -7.1      5.513      8.713
REMARK  Name = 
REMARK  10 active torsions:
REMARK  status: ('A' for Active; 'I' for Inactive)
REMARK    1  A    between atoms: N_1  and  C_2
REMARK    2  A    between atoms: C_2  and  C_3
REMARK    3  A    between atoms: C_2  and  C_11
REMARK    4  A    between atoms: C_3  and  C_4
REMARK    5  A    between atoms: C_7  and  O_8
REMARK    6  A    between atoms: C_14  and  CA_15
REMARK    7  A    between atoms: CA_15  and  C_16
REMARK    8  A    between atoms: CA_15  and  N_18
REMARK    9  A    between atoms: C_16  and  O_17
REMARK   10  A    between atoms: C_19  and  C_21
REMARK                            x       y       z     vdW  Elec       q    Type
REMARK                         _______ _______ _______ _____ _____    ______ ____
ROOT
ATOM      1  C   UNL     1       2.144   7.826  19.173  0.00  0.00    +0.000 A 
ATOM      2  N   UNL     1       2.309   8.344  17.942  0.00  0.00    +0.000 NA
ATOM      3  N   UNL     1       1.611   9.467  17.915  0.00  0.00    +0.000 NA
ATOM      4  C   UNL     1       1.051   9.597  19.137  0.00  0.00    +0.000 A 
ATOM      5  O   UNL     1       1.385   8.600  19.911  0.00  0.00    +0.000 OA
ENDROOT
BRANCH   1   6
ATOM      6  C   UNL     1       2.672   6.487  19.611  0.00  0.00    +0.000 C 
BRANCH   6   7
ATOM      7  N   UNL     1       1.851   5.964  20.703  0.00  0.00    +0.000 NA
ATOM      8  H   UNL     1       1.461   6.762  21.256  0.00  0.00    +0.000 HD
ATOM      9  H   UNL     1       2.430   5.366  21.336  0.00  0.00    +0.000 HD
ENDBRANCH   6   7
BRANCH   6  10
ATOM     10  C   UNL     1       2.730   5.486  18.429  0.00  0.00    +0.000 C 
BRANCH  10  11
ATOM     11  C   UNL     1       4.157   5.152  18.037  0.00  0.00    +0.000 A 
ATOM     12  C   UNL     1       4.439   4.562  16.792  0.00  0.00    +0.000 A 
ATOM     13  C   UNL     1       5.753   4.228  16.450  0.00  0.00    +0.000 A 
ATOM     14  C   UNL     1       6.801   4.478  17.347  0.00  0.00    +0.000 A 
ATOM     15  C   UNL     1       6.528   5.068  18.585  0.00  0.00    +0.000 A 
ATOM     16  C   UNL     1       5.216   5.407  18.928  0.00  0.00    +0.000 A 
BRANCH  14  17
ATOM     17  O   UNL     1       8.071   4.152  17.033  0.00  0.00    +0.000 OA
ATOM     18  H   UNL     1       8.733   4.823  16.809  0.00  0.00    +0.000 HD
ENDBRANCH  14  17
ENDBRANCH  10  11
ENDBRANCH   6  10
ENDBRANCH   1   6
BRANCH   4  19
ATOM     19  CA  UNL     1       0.079  10.666  19.557  0.00  0.00    +0.000 C 
BRANCH  19  20
ATOM     20  N   UNL     1      -1.254  10.343  19.076  0.00  0.00    +0.000 N 
ATOM     21  C   UNL     1      -2.100  11.249  18.495  0.00  0.00    +0.000 C 
ATOM     22  O   UNL     1      -1.752  12.411  18.343  0.00  0.00    +0.000 OA
ATOM     23  H   UNL     1      -1.573   9.370  19.192  0.00  0.00    +0.000 HD
BRANCH  21  24
ATOM     24  C   UNL     1      -3.497  10.801  18.060  0.00  0.00    +0.000 C 
ATOM     25  C   UNL     1      -3.494   9.339  17.573  0.00  0.00    +0.000 C 
ATOM     26  C   UNL     1      -2.757   9.225  16.230  0.00  0.00    +0.000 C 
ATOM     27  N   UNL     1      -3.425  10.044  15.206  0.00  0.00    +0.000 NA
ATOM     28  C   UNL     1      -3.445  11.465  15.586  0.00  0.00    +0.000 C 
ATOM     29  C   UNL     1      -4.137  11.672  16.950  0.00  0.00    +0.000 C 
ATOM     30  H   UNL     1      -4.406   9.701  15.075  0.00  0.00    +0.000 HD
ENDBRANCH  21  24
ENDBRANCH  19  20
BRANCH  19  31
ATOM     31  C   UNL     1       0.050  10.847  21.088  0.00  0.00    +0.000 C 
BRANCH  31  32
ATOM     32  O   UNL     1       1.334  11.081  21.610  0.00  0.00    +0.000 OA
ATOM     33  H   UNL     1       1.796  10.205  21.682  0.00  0.00    +0.000 HD
ENDBRANCH  31  32
ENDBRANCH  19  31
ENDBRANCH   4  19
TORSDOF 10
ENDMDL
MODEL 5
REMARK VINA RESULT:      -7.1      1.350      1.693
REMARK  Name = 
REMARK  10 active torsions:
REMARK  status: ('A' for Active; 'I' for Inactive)
REMARK    1  A    between atoms: N_1  and  C_2
REMARK    2  A    between atoms: C_2  and  C_3
REMARK    3  A    between atoms: C_2  and  C_11
REMARK    4  A    between atoms: C_3  and  C_4
REMARK    5  A    between atoms: C_7  and  O_8
REMARK    6  A    between atoms: C_14  and  CA_15
REMARK    7  A    between atoms: CA_15  and  C_16
REMARK    8  A    between atoms: CA_15  and  N_18
REMARK    9  A    between atoms: C_16  and  O_17
REMARK   10  A    between atoms: C_19  and  C_21
REMARK                            x       y       z     vdW  Elec       q    Type
REMARK                         _______ _______ _______ _____ _____    ______ ____
ROOT
ATOM      1  C   UNL     1       7.868   6.946  17.673  0.00  0.00    +0.000 A 
ATOM      2  N   UNL     1       7.788   6.146  18.752  0.00  0.00    +0.000 NA
ATOM      3  N   UNL     1       7.421   4.956  18.304  0.00  0.00    +0.000 NA
ATOM      4  C   UNL     1       7.300   5.074  16.965  0.00  0.00    +0.000 A 
ATOM      5  O   UNL     1       7.583   6.288  16.576  0.00  0.00    +0.000 OA
ENDROOT
BRANCH   1   6
ATOM      6  C   UNL     1       8.145   8.424  17.729  0.00  0.00    +0.000 C 
BRANCH   6   7
ATOM      7  N   UNL     1       6.942   9.167  17.354  0.00  0.00    +0.000 NA
ATOM      8  H   UNL     1       7.217  10.026  16.825  0.00  0.00    +0.000 HD
ATOM      9  H   UNL     1       6.414   9.454  18.210  0.00  0.00    +0.000 HD
ENDBRANCH   6   7
BRANCH   6  10
ATOM     10  C   UNL     1       8.651   8.854  19.130  0.00  0.00    +0.000 C 
BRANCH  10  11
ATOM     11  C   UNL     1       9.324  10.214  19.100  0.00  0.00    +0.000 A 
ATOM     12  C   UNL     1       9.676  10.811  17.877  0.00  0.00    +0.000 A 
ATOM     13  C   UNL     1      10.324  12.050  17.858  0.00  0.00    +0.000 A 
ATOM     14  C   UNL     1      10.628  12.707  19.059  0.00  0.00    +0.000 A 
ATOM     15  C   UNL     1      10.276  12.120  20.278  0.00  0.00    +0.000 A 
ATOM     16  C   UNL     1       9.624  10.883  20.300  0.00  0.00    +0.000 A 
BRANCH  14  17
ATOM     17  O   UNL     1      11.260  13.898  19.054  0.00  0.00    +0.000 OA
ATOM     18  H   UNL     1      12.197  13.984  19.282  0.00  0.00    +0.000 HD
ENDBRANCH  14  17
ENDBRANCH  10  11
ENDBRANCH   6  10
ENDBRANCH   1   6
BRANCH   4  19
ATOM     19  CA  UNL     1       6.799   4.012  16.024  0.00  0.00    +0.000 C 
BRANCH  19  20
ATOM     20  N   UNL     1       5.526   3.491  16.494  0.00  0.00    +0.000 N 
ATOM     21  C   UNL     1       4.418   4.263  16.721  0.00  0.00    +0.000 C 
ATOM     22  O   UNL     1       4.452   5.468  16.521  0.00  0.00    +0.000 OA
ATOM     23  H   UNL     1       5.469   2.477  16.672  0.00  0.00    +0.000 HD
BRANCH  21  24
ATOM     24  C   UNL     1       3.142   3.607  17.253  0.00  0.00    +0.000 C 
ATOM     25  C   UNL     1       2.355   4.565  18.169  0.00  0.00    +0.000 C 
ATOM     26  C   UNL     1       3.107   4.776  19.491  0.00  0.00    +0.000 C 
ATOM     27  N   UNL     1       3.268   3.498  20.202  0.00  0.00    +0.000 NA
ATOM     28  C   UNL     1       4.036   2.532  19.400  0.00  0.00    +0.000 C 
ATOM     29  C   UNL     1       3.371   2.286  18.030  0.00  0.00    +0.000 C 
ATOM     30  H   UNL     1       2.323   3.101  20.418  0.00  0.00    +0.000 HD
ENDBRANCH  21  24
ENDBRANCH  19  20
BRANCH  19  31
ATOM     31  C   UNL     1       6.643   4.545  14.586  0.00  0.00    +0.000 C 
BRANCH  31  32
ATOM     32  O   UNL     1       6.328   3.517  13.680  0.00  0.00    +0.000 OA
ATOM     33  H   UNL     1       6.037   2.728  14.207  0.00  0.00    +0.000 HD
ENDBRANCH  31  32
ENDBRANCH  19  31
ENDBRANCH   4  19
TORSDOF 10
ENDMDL
MODEL 6
REMARK VINA RESULT:      -7.1      1.237      1.775
REMARK  Name = 
REMARK  10 active torsions:
REMARK  status: ('A' for Active; 'I' for Inactive)
REMARK    1  A    between atoms: N_1  and  C_2
REMARK    2  A    between atoms: C_2  and  C_3
REMARK    3  A    between atoms: C_2  and  C_11
REMARK    4  A    between atoms: C_3  and  C_4
REMARK    5  A    between atoms: C_7  and  O_8
REMARK    6  A    between atoms: C_14  and  CA_15
REMARK    7  A    between atoms: CA_15  and  C_16
REMARK    8  A    between atoms: CA_15  and  N_18
REMARK    9  A    between atoms: C_16  and  O_17
REMARK   10  A    between atoms: C_19  and  C_21
REMARK                            x       y       z     vdW  Elec       q    Type
REMARK                         _______ _______ _______ _____ _____    ______ ____
ROOT
ATOM      1  C   UNL     1       8.133   7.720  18.007  0.00  0.00    +0.000 A 
ATOM      2  N   UNL     1       8.396   7.014  19.122  0.00  0.00    +0.000 NA
ATOM      3  N   UNL     1       7.911   5.800  18.914  0.00  0.00    +0.000 NA
ATOM      4  C   UNL     1       7.377   5.811  17.674  0.00  0.00    +0.000 A 
ATOM      5  O   UNL     1       7.521   6.981  17.114  0.00  0.00    +0.000 OA
ENDROOT
BRANCH   1   6
ATOM      6  C   UNL     1       8.409   9.191  17.847  0.00  0.00    +0.000 C 
BRANCH   6   7
ATOM      7  N   UNL     1       7.166   9.898  17.546  0.00  0.00    +0.000 NA
ATOM      8  H   UNL     1       6.966  10.588  18.306  0.00  0.00    +0.000 HD
ATOM      9  H   UNL     1       6.370   9.221  17.487  0.00  0.00    +0.000 HD
ENDBRANCH   6   7
BRANCH   6  10
ATOM     10  C   UNL     1       9.094   9.780  19.108  0.00  0.00    +0.000 C 
BRANCH  10  11
ATOM     11  C   UNL     1       9.667  11.161  18.851  0.00  0.00    +0.000 A 
ATOM     12  C   UNL     1      10.492  11.399  17.738  0.00  0.00    +0.000 A 
ATOM     13  C   UNL     1      11.042  12.667  17.525  0.00  0.00    +0.000 A 
ATOM     14  C   UNL     1      10.775  13.712  18.421  0.00  0.00    +0.000 A 
ATOM     15  C   UNL     1       9.950  13.483  19.527  0.00  0.00    +0.000 A 
ATOM     16  C   UNL     1       9.396  12.217  19.740  0.00  0.00    +0.000 A 
BRANCH  14  17
ATOM     17  O   UNL     1      11.306  14.937  18.231  0.00  0.00    +0.000 OA
ATOM     18  H   UNL     1      12.147  15.201  18.632  0.00  0.00    +0.000 HD
ENDBRANCH  14  17
ENDBRANCH  10  11
ENDBRANCH   6  10
ENDBRANCH   1   6
BRANCH   4  19
ATOM     19  CA  UNL     1       6.611   4.687  17.030  0.00  0.00    +0.000 C 
BRANCH  19  20
ATOM     20  N   UNL     1       5.197   4.802  17.349  0.00  0.00    +0.000 N 
ATOM     21  C   UNL     1       4.632   4.342  18.508  0.00  0.00    +0.000 C 
ATOM     22  O   UNL     1       5.322   3.801  19.359  0.00  0.00    +0.000 OA
ATOM     23  H   UNL     1       4.592   5.254  16.647  0.00  0.00    +0.000 HD
BRANCH  21  24
ATOM     24  C   UNL     1       3.124   4.486  18.717  0.00  0.00    +0.000 C 
ATOM     25  C   UNL     1       2.679   3.874  20.060  0.00  0.00    +0.000 C 
ATOM     26  C   UNL     1       2.788   2.343  20.011  0.00  0.00    +0.000 C 
ATOM     27  N   UNL     1       1.919   1.799  18.955  0.00  0.00    +0.000 NA
ATOM     28  C   UNL     1       2.298   2.317  17.631  0.00  0.00    +0.000 C 
ATOM     29  C   UNL     1       2.254   3.859  17.597  0.00  0.00    +0.000 C 
ATOM     30  H   UNL     1       0.924   2.054  19.160  0.00  0.00    +0.000 HD
ENDBRANCH  21  24
ENDBRANCH  19  20
BRANCH  19  31
ATOM     31  C   UNL     1       6.799   4.666  15.500  0.00  0.00    +0.000 C 
BRANCH  31  32
ATOM     32  O   UNL     1       6.173   5.763  14.883  0.00  0.00    +0.000 OA
ATOM     33  H   UNL     1       6.884   6.347  14.510  0.00  0.00    +0.000 HD
ENDBRANCH  31  32
ENDBRANCH  19  31
ENDBRANCH   4  19
TORSDOF 10
ENDMDL
MODEL 7
REMARK VINA RESULT:      -7.1      4.805      8.801
REMARK  Name = 
REMARK  10 active torsions:
REMARK  status: ('A' for Active; 'I' for Inactive)
REMARK    1  A    between atoms: N_1  and  C_2
REMARK    2  A    between atoms: C_2  and  C_3
REMARK    3  A    between atoms: C_2  and  C_11
REMARK    4  A    between atoms: C_3  and  C_4
REMARK    5  A    between atoms: C_7  and  O_8
REMARK    6  A    between atoms: C_14  and  CA_15
REMARK    7  A    between atoms: CA_15  and  C_16
REMARK    8  A    between atoms: CA_15  and  N_18
REMARK    9  A    between atoms: C_16  and  O_17
REMARK   10  A    between atoms: C_19  and  C_21
REMARK                            x       y       z     vdW  Elec       q    Type
REMARK                         _______ _______ _______ _____ _____    ______ ____
ROOT
ATOM      1  C   UNL     1       1.551   8.701  19.223  0.00  0.00    +0.000 A 
ATOM      2  N   UNL     1       1.383   8.544  20.548  0.00  0.00    +0.000 NA
ATOM      3  N   UNL     1       1.896   7.361  20.850  0.00  0.00    +0.000 NA
ATOM      4  C   UNL     1       2.366   6.845  19.694  0.00  0.00    +0.000 A 
ATOM      5  O   UNL     1       2.166   7.667  18.700  0.00  0.00    +0.000 OA
ENDROOT
BRANCH   1   6
ATOM      6  C   UNL     1       1.013   9.860  18.429  0.00  0.00    +0.000 C 
BRANCH   6   7
ATOM      7  N   UNL     1       2.073  10.423  17.593  0.00  0.00    +0.000 NA
ATOM      8  H   UNL     1       1.696  10.612  16.636  0.00  0.00    +0.000 HD
ATOM      9  H   UNL     1       2.868   9.748  17.515  0.00  0.00    +0.000 HD
ENDBRANCH   6   7
BRANCH   6  10
ATOM     10  C   UNL     1      -0.209   9.442  17.571  0.00  0.00    +0.000 C 
BRANCH  10  11
ATOM     11  C   UNL     1      -1.449  10.245  17.917  0.00  0.00    +0.000 A 
ATOM     12  C   UNL     1      -2.662  10.015  17.246  0.00  0.00    +0.000 A 
ATOM     13  C   UNL     1      -3.793  10.781  17.548  0.00  0.00    +0.000 A 
ATOM     14  C   UNL     1      -3.724  11.787  18.522  0.00  0.00    +0.000 A 
ATOM     15  C   UNL     1      -2.521  12.018  19.196  0.00  0.00    +0.000 A 
ATOM     16  C   UNL     1      -1.391  11.251  18.899  0.00  0.00    +0.000 A 
BRANCH  14  17
ATOM     17  O   UNL     1      -4.805  12.538  18.817  0.00  0.00    +0.000 OA
ATOM     18  H   UNL     1      -5.402  12.871  18.131  0.00  0.00    +0.000 HD
ENDBRANCH  14  17
ENDBRANCH  10  11
ENDBRANCH   6  10
ENDBRANCH   1   6
BRANCH   4  19
ATOM     19  CA  UNL     1       2.944   5.468  19.510  0.00  0.00    +0.000 C 
BRANCH  19  20
ATOM     20  N   UNL     1       4.391   5.547  19.398  0.00  0.00    +0.000 N 
ATOM     21  C   UNL     1       5.142   4.754  18.573  0.00  0.00    +0.000 C 
ATOM     22  O   UNL     1       4.603   3.919  17.861  0.00  0.00    +0.000 OA
ATOM     23  H   UNL     1       4.871   6.243  19.989  0.00  0.00    +0.000 HD
BRANCH  21  24
ATOM     24  C   UNL     1       6.664   4.903  18.568  0.00  0.00    +0.000 C 
ATOM     25  C   UNL     1       7.086   6.383  18.634  0.00  0.00    +0.000 C 
ATOM     26  C   UNL     1       6.754   7.092  17.313  0.00  0.00    +0.000 C 
ATOM     27  N   UNL     1       7.475   6.463  16.195  0.00  0.00    +0.000 NA
ATOM     28  C   UNL     1       7.105   5.046  16.048  0.00  0.00    +0.000 C 
ATOM     29  C   UNL     1       7.371   4.259  17.348  0.00  0.00    +0.000 C 
ATOM     30  H   UNL     1       8.507   6.541  16.362  0.00  0.00    +0.000 HD
ENDBRANCH  21  24
ENDBRANCH  19  20
BRANCH  19  31
ATOM     31  C   UNL     1       2.562   4.525  20.669  0.00  0.00    +0.000 C 
BRANCH  31  32
ATOM     32  O   UNL     1       2.813   3.179  20.349  0.00  0.00    +0.000 OA
ATOM     33  H   UNL     1       2.719   3.079  19.366  0.00  0.00    +0.000 HD
ENDBRANCH  31  32
ENDBRANCH  19  31
ENDBRANCH   4  19
TORSDOF 10
ENDMDL
MODEL 8
REMARK VINA RESULT:      -7.1      6.241      9.436
REMARK  Name = 
REMARK  10 active torsions:
REMARK  status: ('A' for Active; 'I' for Inactive)
REMARK    1  A    between atoms: N_1  and  C_2
REMARK    2  A    between atoms: C_2  and  C_3
REMARK    3  A    between atoms: C_2  and  C_11
REMARK    4  A    between atoms: C_3  and  C_4
REMARK    5  A    between atoms: C_7  and  O_8
REMARK    6  A    between atoms: C_14  and  CA_15
REMARK    7  A    between atoms: CA_15  and  C_16
REMARK    8  A    between atoms: CA_15  and  N_18
REMARK    9  A    between atoms: C_16  and  O_17
REMARK   10  A    between atoms: C_19  and  C_21
REMARK                            x       y       z     vdW  Elec       q    Type
REMARK                         _______ _______ _______ _____ _____    ______ ____
ROOT
ATOM      1  C   UNL     1       0.227   9.884  20.125  0.00  0.00    +0.000 A 
ATOM      2  N   UNL     1       0.229   9.406  21.383  0.00  0.00    +0.000 NA
ATOM      3  N   UNL     1       1.097   8.407  21.399  0.00  0.00    +0.000 NA
ATOM      4  C   UNL     1       1.599   8.320  20.148  0.00  0.00    +0.000 A 
ATOM      5  O   UNL     1       1.076   9.229  19.371  0.00  0.00    +0.000 OA
ENDROOT
BRANCH   1   6
ATOM      6  C   UNL     1      -0.702  10.956  19.625  0.00  0.00    +0.000 C 
BRANCH   6   7
ATOM      7  N   UNL     1      -0.101  12.272  19.841  0.00  0.00    +0.000 NA
ATOM      8  H   UNL     1       0.858  12.154  20.239  0.00  0.00    +0.000 HD
ATOM      9  H   UNL     1      -0.679  12.827  20.514  0.00  0.00    +0.000 HD
ENDBRANCH   6   7
BRANCH   6  10
ATOM     10  C   UNL     1      -1.059  10.746  18.131  0.00  0.00    +0.000 C 
BRANCH  10  11
ATOM     11  C   UNL     1      -2.500  11.117  17.833  0.00  0.00    +0.000 A 
ATOM     12  C   UNL     1      -3.311  11.695  18.824  0.00  0.00    +0.000 A 
ATOM     13  C   UNL     1      -4.647  12.005  18.552  0.00  0.00    +0.000 A 
ATOM     14  C   UNL     1      -5.189  11.741  17.286  0.00  0.00    +0.000 A 
ATOM     15  C   UNL     1      -4.386  11.170  16.294  0.00  0.00    +0.000 A 
ATOM     16  C   UNL     1      -3.049  10.863  16.562  0.00  0.00    +0.000 A 
BRANCH  14  17
ATOM     17  O   UNL     1      -6.478  12.028  17.013  0.00  0.00    +0.000 OA
ATOM     18  H   UNL     1      -7.196  11.797  17.620  0.00  0.00    +0.000 HD
ENDBRANCH  14  17
ENDBRANCH  10  11
ENDBRANCH   6  10
ENDBRANCH   1   6
BRANCH   4  19
ATOM     19  CA  UNL     1       2.547   7.265  19.647  0.00  0.00    +0.000 C 
BRANCH  19  20
ATOM     20  N   UNL     1       2.190   5.970  20.203  0.00  0.00    +0.000 N 
ATOM     21  C   UNL     1       3.019   4.881  20.206  0.00  0.00    +0.000 C 
ATOM     22  O   UNL     1       4.142   4.958  19.730  0.00  0.00    +0.000 OA
ATOM     23  H   UNL     1       1.248   5.878  20.611  0.00  0.00    +0.000 HD
BRANCH  21  24
ATOM     24  C   UNL     1       2.519   3.558  20.788  0.00  0.00    +0.000 C 
ATOM     25  C   UNL     1       3.412   2.378  20.355  0.00  0.00    +0.000 C 
ATOM     26  C   UNL     1       3.226   2.089  18.859  0.00  0.00    +0.000 C 
ATOM     27  N   UNL     1       1.828   1.728  18.574  0.00  0.00    +0.000 NA
ATOM     28  C   UNL     1       0.909   2.819  18.936  0.00  0.00    +0.000 C 
ATOM     29  C   UNL     1       1.055   3.205  20.423  0.00  0.00    +0.000 C 
ATOM     30  H   UNL     1       1.578   0.865  19.111  0.00  0.00    +0.000 HD
ENDBRANCH  21  24
ENDBRANCH  19  20
BRANCH  19  31
ATOM     31  C   UNL     1       2.555   7.184  18.107  0.00  0.00    +0.000 C 
BRANCH  31  32
ATOM     32  O   UNL     1       3.863   7.121  17.595  0.00  0.00    +0.000 OA
ATOM     33  H   UNL     1       4.145   6.169  17.601  0.00  0.00    +0.000 HD
ENDBRANCH  31  32
ENDBRANCH  19  31
ENDBRANCH   4  19
TORSDOF 10
ENDMDL
MODEL 9
REMARK VINA RESULT:      -7.0      5.678      9.101
REMARK  Name = 
REMARK  10 active torsions:
REMARK  status: ('A' for Active; 'I' for Inactive)
REMARK    1  A    between atoms: N_1  and  C_2
REMARK    2  A    between atoms: C_2  and  C_3
REMARK    3  A    between atoms: C_2  and  C_11
REMARK    4  A    between atoms: C_3  and  C_4
REMARK    5  A    between atoms: C_7  and  O_8
REMARK    6  A    between atoms: C_14  and  CA_15
REMARK    7  A    between atoms: CA_15  and  C_16
REMARK    8  A    between atoms: CA_15  and  N_18
REMARK    9  A    between atoms: C_16  and  O_17
REMARK   10  A    between atoms: C_19  and  C_21
REMARK                            x       y       z     vdW  Elec       q    Type
REMARK                         _______ _______ _______ _____ _____    ______ ____
ROOT
ATOM      1  C   UNL     1       2.021   6.903  19.916  0.00  0.00    +0.000 A 
ATOM      2  N   UNL     1       2.133   7.764  18.889  0.00  0.00    +0.000 NA
ATOM      3  N   UNL     1       1.619   8.910  19.308  0.00  0.00    +0.000 NA
ATOM      4  C   UNL     1       1.221   8.704  20.582  0.00  0.00    +0.000 A 
ATOM      5  O   UNL     1       1.476   7.481  20.959  0.00  0.00    +0.000 OA
ENDROOT
BRANCH   1   6
ATOM      6  C   UNL     1       2.378   5.443  19.844  0.00  0.00    +0.000 C 
BRANCH   6   7
ATOM      7  N   UNL     1       1.360   4.650  20.534  0.00  0.00    +0.000 NA
ATOM      8  H   UNL     1       0.622   5.287  20.911  0.00  0.00    +0.000 HD
ATOM      9  H   UNL     1       1.790   4.124  21.329  0.00  0.00    +0.000 HD
ENDBRANCH   6   7
BRANCH   6  10
ATOM     10  C   UNL     1       2.550   4.972  18.377  0.00  0.00    +0.000 C 
BRANCH  10  11
ATOM     11  C   UNL     1       4.011   4.812  17.999  0.00  0.00    +0.000 A 
ATOM     12  C   UNL     1       5.028   5.146  18.910  0.00  0.00    +0.000 A 
ATOM     13  C   UNL     1       6.372   5.025  18.544  0.00  0.00    +0.000 A 
ATOM     14  C   UNL     1       6.717   4.570  17.264  0.00  0.00    +0.000 A 
ATOM     15  C   UNL     1       5.709   4.231  16.354  0.00  0.00    +0.000 A 
ATOM     16  C   UNL     1       4.365   4.347  16.719  0.00  0.00    +0.000 A 
BRANCH  14  17
ATOM     17  O   UNL     1       8.009   4.457  16.896  0.00  0.00    +0.000 OA
ATOM     18  H   UNL     1       8.517   3.646  17.045  0.00  0.00    +0.000 HD
ENDBRANCH  14  17
ENDBRANCH  10  11
ENDBRANCH   6  10
ENDBRANCH   1   6
BRANCH   4  19
ATOM     19  CA  UNL     1       0.479   9.687  21.446  0.00  0.00    +0.000 C 
BRANCH  19  20
ATOM     20  N   UNL     1      -0.450  10.458  20.637  0.00  0.00    +0.000 N 
ATOM     21  C   UNL     1      -0.873  11.722  20.949  0.00  0.00    +0.000 C 
ATOM     22  O   UNL     1      -0.463  12.280  21.956  0.00  0.00    +0.000 OA
ATOM     23  H   UNL     1      -0.813  10.011  19.782  0.00  0.00    +0.000 HD
BRANCH  21  24
ATOM     24  C   UNL     1      -1.884  12.423  20.039  0.00  0.00    +0.000 C 
ATOM     25  C   UNL     1      -1.416  12.424  18.571  0.00  0.00    +0.000 C 
ATOM     26  C   UNL     1      -0.215  13.365  18.395  0.00  0.00    +0.000 C 
ATOM     27  N   UNL     1      -0.583  14.743  18.755  0.00  0.00    +0.000 NA
ATOM     28  C   UNL     1      -1.019  14.832  20.158  0.00  0.00    +0.000 C 
ATOM     29  C   UNL     1      -2.205  13.886  20.438  0.00  0.00    +0.000 C 
ATOM     30  H   UNL     1      -1.355  15.070  18.126  0.00  0.00    +0.000 HD
ENDBRANCH  21  24
ENDBRANCH  19  20
BRANCH  19  31
ATOM     31  C   UNL     1      -0.284   8.986  22.588  0.00  0.00    +0.000 C 
BRANCH  31  32
ATOM     32  O   UNL     1      -0.267   9.747  23.770  0.00  0.00    +0.000 OA
ATOM     33  H   UNL     1      -0.806   9.263  24.450  0.00  0.00    +0.000 HD
ENDBRANCH  31  32
ENDBRANCH  19  31
ENDBRANCH   4  19
TORSDOF 10
ENDMDL
