MODEL 1
REMARK VINA RESULT:      -7.7      0.000      0.000
REMARK  Name = 
REMARK  8 active torsions:
REMARK  status: ('A' for Active; 'I' for Inactive)
REMARK    1  A    between atoms: C_2  and  C_3
REMARK    2  A    between atoms: N_5  and  C_6
REMARK    3  A    between atoms: N_5  and  C_16
REMARK    4  A    between atoms: C_10  and  C_11
REMARK    5  A    between atoms: C_16  and  C_17
REMARK    6  A    between atoms: C_16  and  C_27
REMARK    7  A    between atoms: N_19  and  C_20
REMARK    8  A    between atoms: C_20  and  C_21
REMARK                            x       y       z     vdW  Elec       q    Type
REMARK                         _______ _______ _______ _____ _____    ______ ____
ROOT
ATOM      1  C   UNL     1       4.739   5.015  16.631  0.00  0.00    +0.000 C 
ENDROOT
BRANCH   1   2
ATOM      2  C   UNL     1       3.914   6.214  17.101  0.00  0.00    +0.000 A 
ATOM      3  C   UNL     1       3.938   7.550  16.733  0.00  0.00    +0.000 A 
ATOM      4  C   UNL     1       3.145   8.371  17.592  0.00  0.00    +0.000 A 
ATOM      5  C   UNL     1       2.450   7.633  18.518  0.00  0.00    +0.000 A 
ATOM      6  S   UNL     1       2.653   5.959  18.266  0.00  0.00    +0.000 S 
ENDBRANCH   1   2
BRANCH   1   7
ATOM      7  C   UNL     1       4.651   3.814  17.630  0.00  0.00    +0.000 C 
ATOM      8  O   UNL     1       5.250   3.762  18.704  0.00  0.00    +0.000 OA
ATOM      9  N   UNL     1       3.784   2.803  17.252  0.00  0.00    +0.000 N 
ATOM     10  H   UNL     1       3.374   2.798  16.327  0.00  0.00    +0.000 HD
BRANCH   9  11
ATOM     11  C   UNL     1       3.527   1.686  18.138  0.00  0.00    +0.000 C 
BRANCH  11  12
ATOM     12  C   UNL     1       2.711   2.081  19.341  0.00  0.00    +0.000 A 
ATOM     13  C   UNL     1       1.350   2.403  19.208  0.00  0.00    +0.000 A 
ATOM     14  C   UNL     1       0.606   2.816  20.314  0.00  0.00    +0.000 A 
ATOM     15  C   UNL     1       1.211   2.910  21.565  0.00  0.00    +0.000 A 
ATOM     16  C   UNL     1       2.555   2.573  21.714  0.00  0.00    +0.000 A 
ATOM     17  C   UNL     1       3.302   2.160  20.609  0.00  0.00    +0.000 A 
ENDBRANCH  11  12
ENDBRANCH   9  11
ENDBRANCH   1   7
BRANCH   1  20
ATOM     18  C   UNL     1       6.709   5.013  15.051  0.00  0.00    +0.000 C 
ATOM     19  O   UNL     1       7.874   5.214  14.705  0.00  0.00    +0.000 OA
ATOM     20  N   UNL     1       6.168   5.301  16.326  0.00  0.00    +0.000 N 
BRANCH  20  21
ATOM     21  C   UNL     1       6.977   5.994  17.321  0.00  0.00    +0.000 A 
ATOM     22  C   UNL     1       7.591   5.290  18.371  0.00  0.00    +0.000 A 
ATOM     23  C   UNL     1       8.339   5.929  19.365  0.00  0.00    +0.000 A 
ATOM     24  C   UNL     1       8.559   7.295  19.296  0.00  0.00    +0.000 A 
ATOM     25  C   UNL     1       8.029   8.029  18.229  0.00  0.00    +0.000 A 
ATOM     26  C   UNL     1       7.207   7.380  17.277  0.00  0.00    +0.000 A 
BRANCH  25  27
ATOM     27  C   UNL     1       8.383   9.488  18.065  0.00  0.00    +0.000 C 
ATOM     28  F   UNL     1       7.388  10.233  17.510  0.00  0.00    +0.000 F 
ATOM     29  F   UNL     1       8.654  10.074  19.267  0.00  0.00    +0.000 F 
ATOM     30  F   UNL     1       9.483   9.688  17.294  0.00  0.00    +0.000 F 
ENDBRANCH  25  27
ENDBRANCH  20  21
BRANCH  18  32
ATOM     31  C   UNL     1       5.256   3.837  13.183  0.00  0.00    +0.000 C 
ATOM     32  C   UNL     1       5.889   4.385  14.046  0.00  0.00    +0.000 C 
ENDBRANCH  18  32
ENDBRANCH   1  20
TORSDOF 8
ENDMDL
MODEL 2
REMARK VINA RESULT:      -7.6      0.079      1.103
REMARK  Name = 
REMARK  8 active torsions:
REMARK  status: ('A' for Active; 'I' for Inactive)
REMARK    1  A    between atoms: C_2  and  C_3
REMARK    2  A    between atoms: N_5  and  C_6
REMARK    3  A    between atoms: N_5  and  C_16
REMARK    4  A    between atoms: C_10  and  C_11
REMARK    5  A    between atoms: C_16  and  C_17
REMARK    6  A    between atoms: C_16  and  C_27
REMARK    7  A    between atoms: N_19  and  C_20
REMARK    8  A    between atoms: C_20  and  C_21
REMARK                            x       y       z     vdW  Elec       q    Type
REMARK                         _______ _______ _______ _____ _____    ______ ____
ROOT
ATOM      1  C   UNL     1       4.714   5.033  16.603  0.00  0.00    +0.000 C 
ENDROOT
BRANCH   1   2
ATOM      2  C   UNL     1       3.907   6.235  17.096  0.00  0.00    +0.000 A 
ATOM      3  C   UNL     1       3.938   7.574  16.739  0.00  0.00    +0.000 A 
ATOM      4  C   UNL     1       3.165   8.395  17.617  0.00  0.00    +0.000 A 
ATOM      5  C   UNL     1       2.478   7.654  18.548  0.00  0.00    +0.000 A 
ATOM      6  S   UNL     1       2.662   5.981  18.278  0.00  0.00    +0.000 S 
ENDBRANCH   1   2
BRANCH   1   7
ATOM      7  C   UNL     1       4.608   3.814  17.577  0.00  0.00    +0.000 C 
ATOM      8  O   UNL     1       5.273   3.690  18.606  0.00  0.00    +0.000 OA
ATOM      9  N   UNL     1       3.645   2.878  17.238  0.00  0.00    +0.000 N 
ATOM     10  H   UNL     1       3.174   2.929  16.344  0.00  0.00    +0.000 HD
BRANCH   9  11
ATOM     11  C   UNL     1       3.369   1.758  18.113  0.00  0.00    +0.000 C 
BRANCH  11  12
ATOM     12  C   UNL     1       2.615   2.167  19.351  0.00  0.00    +0.000 A 
ATOM     13  C   UNL     1       3.245   2.167  20.606  0.00  0.00    +0.000 A 
ATOM     14  C   UNL     1       2.533   2.499  21.760  0.00  0.00    +0.000 A 
ATOM     15  C   UNL     1       1.184   2.837  21.673  0.00  0.00    +0.000 A 
ATOM     16  C   UNL     1       0.553   2.860  20.431  0.00  0.00    +0.000 A 
ATOM     17  C   UNL     1       1.263   2.529  19.276  0.00  0.00    +0.000 A 
ENDBRANCH  11  12
ENDBRANCH   9  11
ENDBRANCH   1   7
BRANCH   1  20
ATOM     18  C   UNL     1       6.694   5.002  15.034  0.00  0.00    +0.000 C 
ATOM     19  O   UNL     1       7.863   5.189  14.694  0.00  0.00    +0.000 OA
ATOM     20  N   UNL     1       6.149   5.303  16.304  0.00  0.00    +0.000 N 
BRANCH  20  21
ATOM     21  C   UNL     1       6.958   5.996  17.299  0.00  0.00    +0.000 A 
ATOM     22  C   UNL     1       7.573   5.290  18.348  0.00  0.00    +0.000 A 
ATOM     23  C   UNL     1       8.322   5.927  19.342  0.00  0.00    +0.000 A 
ATOM     24  C   UNL     1       8.541   7.293  19.275  0.00  0.00    +0.000 A 
ATOM     25  C   UNL     1       8.010   8.029  18.210  0.00  0.00    +0.000 A 
ATOM     26  C   UNL     1       7.188   7.381  17.257  0.00  0.00    +0.000 A 
BRANCH  25  27
ATOM     27  C   UNL     1       8.363   9.489  18.048  0.00  0.00    +0.000 C 
ATOM     28  F   UNL     1       8.674  10.110  19.219  0.00  0.00    +0.000 F 
ATOM     29  F   UNL     1       9.453   9.652  17.245  0.00  0.00    +0.000 F 
ATOM     30  F   UNL     1       7.367  10.220  17.483  0.00  0.00    +0.000 F 
ENDBRANCH  25  27
ENDBRANCH  20  21
BRANCH  18  32
ATOM     31  C   UNL     1       5.239   3.821  13.170  0.00  0.00    +0.000 C 
ATOM     32  C   UNL     1       5.874   4.375  14.029  0.00  0.00    +0.000 C 
ENDBRANCH  18  32
ENDBRANCH   1  20
TORSDOF 8
ENDMDL
MODEL 3
REMARK VINA RESULT:      -7.4      3.225      6.737
REMARK  Name = 
REMARK  8 active torsions:
REMARK  status: ('A' for Active; 'I' for Inactive)
REMARK    1  A    between atoms: C_2  and  C_3
REMARK    2  A    between atoms: N_5  and  C_6
REMARK    3  A    between atoms: N_5  and  C_16
REMARK    4  A    between atoms: C_10  and  C_11
REMARK    5  A    between atoms: C_16  and  C_17
REMARK    6  A    between atoms: C_16  and  C_27
REMARK    7  A    between atoms: N_19  and  C_20
REMARK    8  A    between atoms: C_20  and  C_21
REMARK                            x       y       z     vdW  Elec       q    Type
REMARK                         _______ _______ _______ _____ _____    ______ ____
ROOT
ATOM      1  C   UNL     1       4.896   4.496  18.555  0.00  0.00    +0.000 C 
ENDROOT
BRANCH   1   2
ATOM      2  C   UNL     1       5.892   5.644  18.390  0.00  0.00    +0.000 A 
ATOM      3  C   UNL     1       5.899   6.743  17.545  0.00  0.00    +0.000 A 
ATOM      4  C   UNL     1       7.143   7.447  17.568  0.00  0.00    +0.000 A 
ATOM      5  C   UNL     1       8.008   6.939  18.506  0.00  0.00    +0.000 A 
ATOM      6  S   UNL     1       7.276   5.712  19.436  0.00  0.00    +0.000 S 
ENDBRANCH   1   2
BRANCH   1   7
ATOM      7  C   UNL     1       4.501   3.858  17.182  0.00  0.00    +0.000 C 
ATOM      8  O   UNL     1       3.350   3.565  16.861  0.00  0.00    +0.000 OA
ATOM      9  N   UNL     1       5.550   3.692  16.292  0.00  0.00    +0.000 N 
ATOM     10  H   UNL     1       6.505   3.837  16.594  0.00  0.00    +0.000 HD
BRANCH   9  11
ATOM     11  C   UNL     1       5.303   3.215  14.948  0.00  0.00    +0.000 C 
BRANCH  11  12
ATOM     12  C   UNL     1       6.203   3.867  13.931  0.00  0.00    +0.000 A 
ATOM     13  C   UNL     1       7.058   4.918  14.300  0.00  0.00    +0.000 A 
ATOM     14  C   UNL     1       7.856   5.555  13.348  0.00  0.00    +0.000 A 
ATOM     15  C   UNL     1       7.811   5.146  12.017  0.00  0.00    +0.000 A 
ATOM     16  C   UNL     1       6.983   4.090  11.642  0.00  0.00    +0.000 A 
ATOM     17  C   UNL     1       6.184   3.452  12.592  0.00  0.00    +0.000 A 
ENDBRANCH  11  12
ENDBRANCH   9  11
ENDBRANCH   1   7
BRANCH   1  20
ATOM     18  C   UNL     1       3.169   3.944  20.313  0.00  0.00    +0.000 C 
ATOM     19  O   UNL     1       2.161   4.127  20.997  0.00  0.00    +0.000 OA
ATOM     20  N   UNL     1       3.662   4.823  19.322  0.00  0.00    +0.000 N 
BRANCH  20  21
ATOM     21  C   UNL     1       3.031   6.122  19.121  0.00  0.00    +0.000 A 
ATOM     22  C   UNL     1       2.935   6.689  17.838  0.00  0.00    +0.000 A 
ATOM     23  C   UNL     1       2.373   7.950  17.616  0.00  0.00    +0.000 A 
ATOM     24  C   UNL     1       1.820   8.657  18.671  0.00  0.00    +0.000 A 
ATOM     25  C   UNL     1       1.826   8.103  19.956  0.00  0.00    +0.000 A 
ATOM     26  C   UNL     1       2.470   6.862  20.176  0.00  0.00    +0.000 A 
BRANCH  25  27
ATOM     27  C   UNL     1       1.098   8.797  21.083  0.00  0.00    +0.000 C 
ATOM     28  F   UNL     1       1.748   8.728  22.278  0.00  0.00    +0.000 F 
ATOM     29  F   UNL     1       0.937  10.127  20.828  0.00  0.00    +0.000 F 
ATOM     30  F   UNL     1      -0.149   8.302  21.299  0.00  0.00    +0.000 F 
ENDBRANCH  25  27
ENDBRANCH  20  21
BRANCH  18  32
ATOM     31  C   UNL     1       4.409   1.641  20.697  0.00  0.00    +0.000 C 
ATOM     32  C   UNL     1       3.832   2.686  20.554  0.00  0.00    +0.000 C 
ENDBRANCH  18  32
ENDBRANCH   1  20
TORSDOF 8
ENDMDL
MODEL 4
REMARK VINA RESULT:      -7.3      8.979     11.623
REMARK  Name = 
REMARK  8 active torsions:
REMARK  status: ('A' for Active; 'I' for Inactive)
REMARK    1  A    between atoms: C_2  and  C_3
REMARK    2  A    between atoms: N_5  and  C_6
REMARK    3  A    between atoms: N_5  and  C_16
REMARK    4  A    between atoms: C_10  and  C_11
REMARK    5  A    between atoms: C_16  and  C_17
REMARK    6  A    between atoms: C_16  and  C_27
REMARK    7  A    between atoms: N_19  and  C_20
REMARK    8  A    between atoms: C_20  and  C_21
REMARK                            x       y       z     vdW  Elec       q    Type
REMARK                         _______ _______ _______ _____ _____    ______ ____
ROOT
ATOM      1  C   UNL     1      -0.489  11.339  20.231  0.00  0.00    +0.000 C 
ENDROOT
BRANCH   1   2
ATOM      2  C   UNL     1       0.811  11.965  19.724  0.00  0.00    +0.000 A 
ATOM      3  C   UNL     1       1.550  13.046  20.177  0.00  0.00    +0.000 A 
ATOM      4  C   UNL     1       2.584  13.426  19.267  0.00  0.00    +0.000 A 
ATOM      5  C   UNL     1       2.680  12.563  18.202  0.00  0.00    +0.000 A 
ATOM      6  S   UNL     1       1.621  11.237  18.372  0.00  0.00    +0.000 S 
ENDBRANCH   1   2
BRANCH   1   7
ATOM      7  C   UNL     1      -1.752  12.098  19.704  0.00  0.00    +0.000 C 
ATOM      8  O   UNL     1      -1.973  13.292  19.902  0.00  0.00    +0.000 OA
ATOM      9  N   UNL     1      -2.606  11.338  18.923  0.00  0.00    +0.000 N 
ATOM     10  H   UNL     1      -2.477  10.337  18.847  0.00  0.00    +0.000 HD
BRANCH   9  11
ATOM     11  C   UNL     1      -3.753  11.947  18.283  0.00  0.00    +0.000 C 
BRANCH  11  12
ATOM     12  C   UNL     1      -5.053  11.557  18.937  0.00  0.00    +0.000 A 
ATOM     13  C   UNL     1      -5.567  12.304  20.009  0.00  0.00    +0.000 A 
ATOM     14  C   UNL     1      -6.746  11.914  20.647  0.00  0.00    +0.000 A 
ATOM     15  C   UNL     1      -7.425  10.775  20.221  0.00  0.00    +0.000 A 
ATOM     16  C   UNL     1      -6.935  10.037  19.145  0.00  0.00    +0.000 A 
ATOM     17  C   UNL     1      -5.757  10.425  18.505  0.00  0.00    +0.000 A 
ENDBRANCH  11  12
ENDBRANCH   9  11
ENDBRANCH   1   7
BRANCH   1  20
ATOM     18  C   UNL     1       0.031  10.088  22.363  0.00  0.00    +0.000 C 
ATOM     19  O   UNL     1       0.004   9.872  23.575  0.00  0.00    +0.000 OA
ATOM     20  N   UNL     1      -0.589  11.178  21.708  0.00  0.00    +0.000 N 
BRANCH  20  21
ATOM     21  C   UNL     1      -1.236  12.225  22.489  0.00  0.00    +0.000 A 
ATOM     22  C   UNL     1      -0.595  13.455  22.720  0.00  0.00    +0.000 A 
ATOM     23  C   UNL     1      -1.169  14.465  23.498  0.00  0.00    +0.000 A 
ATOM     24  C   UNL     1      -2.445  14.302  24.012  0.00  0.00    +0.000 A 
ATOM     25  C   UNL     1      -3.154  13.125  23.749  0.00  0.00    +0.000 A 
ATOM     26  C   UNL     1      -2.526  12.081  23.028  0.00  0.00    +0.000 A 
BRANCH  25  27
ATOM     27  C   UNL     1      -4.596  12.997  24.179  0.00  0.00    +0.000 C 
ATOM     28  F   UNL     1      -4.761  12.296  25.335  0.00  0.00    +0.000 F 
ATOM     29  F   UNL     1      -5.158  14.218  24.406  0.00  0.00    +0.000 F 
ATOM     30  F   UNL     1      -5.379  12.390  23.250  0.00  0.00    +0.000 F 
ENDBRANCH  25  27
ENDBRANCH  20  21
BRANCH  18  32
ATOM     31  C   UNL     1       1.331   8.231  21.004  0.00  0.00    +0.000 C 
ATOM     32  C   UNL     1       0.725   9.086  21.593  0.00  0.00    +0.000 C 
ENDBRANCH  18  32
ENDBRANCH   1  20
TORSDOF 8
ENDMDL
MODEL 5
REMARK VINA RESULT:      -7.2      9.430     12.144
REMARK  Name = 
REMARK  8 active torsions:
REMARK  status: ('A' for Active; 'I' for Inactive)
REMARK    1  A    between atoms: C_2  and  C_3
REMARK    2  A    between atoms: N_5  and  C_6
REMARK    3  A    between atoms: N_5  and  C_16
REMARK    4  A    between atoms: C_10  and  C_11
REMARK    5  A    between atoms: C_16  and  C_17
REMARK    6  A    between atoms: C_16  and  C_27
REMARK    7  A    between atoms: N_19  and  C_20
REMARK    8  A    between atoms: C_20  and  C_21
REMARK                            x       y       z     vdW  Elec       q    Type
REMARK                         _______ _______ _______ _____ _____    ______ ____
ROOT
ATOM      1  C   UNL     1      -4.241  13.639  21.184  0.00  0.00    +0.000 C 
ENDROOT
BRANCH   1   2
ATOM      2  C   UNL     1      -4.516  13.256  22.639  0.00  0.00    +0.000 A 
ATOM      3  C   UNL     1      -3.670  12.853  23.661  0.00  0.00    +0.000 A 
ATOM      4  C   UNL     1      -4.379  12.374  24.805  0.00  0.00    +0.000 A 
ATOM      5  C   UNL     1      -5.738  12.527  24.674  0.00  0.00    +0.000 A 
ATOM      6  S   UNL     1      -6.140  13.360  23.242  0.00  0.00    +0.000 S 
ENDBRANCH   1   2
BRANCH   1   7
ATOM      7  C   UNL     1      -4.813  12.583  20.181  0.00  0.00    +0.000 C 
ATOM      8  O   UNL     1      -5.264  11.487  20.512  0.00  0.00    +0.000 OA
ATOM      9  N   UNL     1      -4.841  12.991  18.858  0.00  0.00    +0.000 N 
ATOM     10  H   UNL     1      -4.379  13.845  18.575  0.00  0.00    +0.000 HD
BRANCH   9  11
ATOM     11  C   UNL     1      -5.447  12.153  17.844  0.00  0.00    +0.000 C 
BRANCH  11  12
ATOM     12  C   UNL     1      -4.436  11.304  17.118  0.00  0.00    +0.000 A 
ATOM     13  C   UNL     1      -4.154  11.529  15.761  0.00  0.00    +0.000 A 
ATOM     14  C   UNL     1      -3.254  10.711  15.076  0.00  0.00    +0.000 A 
ATOM     15  C   UNL     1      -2.623   9.662  15.739  0.00  0.00    +0.000 A 
ATOM     16  C   UNL     1      -2.878   9.441  17.091  0.00  0.00    +0.000 A 
ATOM     17  C   UNL     1      -3.778  10.258  17.779  0.00  0.00    +0.000 A 
ENDBRANCH  11  12
ENDBRANCH   9  11
ENDBRANCH   1   7
BRANCH   1  20
ATOM     18  C   UNL     1      -2.273  15.212  21.005  0.00  0.00    +0.000 C 
ATOM     19  O   UNL     1      -1.112  15.536  20.758  0.00  0.00    +0.000 OA
ATOM     20  N   UNL     1      -2.816  13.915  20.852  0.00  0.00    +0.000 N 
BRANCH  20  21
ATOM     21  C   UNL     1      -1.950  12.803  20.479  0.00  0.00    +0.000 A 
ATOM     22  C   UNL     1      -1.374  12.732  19.199  0.00  0.00    +0.000 A 
ATOM     23  C   UNL     1      -0.573  11.660  18.795  0.00  0.00    +0.000 A 
ATOM     24  C   UNL     1      -0.261  10.652  19.693  0.00  0.00    +0.000 A 
ATOM     25  C   UNL     1      -0.751  10.714  21.002  0.00  0.00    +0.000 A 
ATOM     26  C   UNL     1      -1.626  11.765  21.370  0.00  0.00    +0.000 A 
BRANCH  25  27
ATOM     27  C   UNL     1      -0.300   9.701  22.028  0.00  0.00    +0.000 C 
ATOM     28  F   UNL     1       1.012   9.818  22.372  0.00  0.00    +0.000 F 
ATOM     29  F   UNL     1      -0.998   9.826  23.192  0.00  0.00    +0.000 F 
ATOM     30  F   UNL     1      -0.474   8.416  21.622  0.00  0.00    +0.000 F 
ENDBRANCH  25  27
ENDBRANCH  20  21
BRANCH  18  32
ATOM     31  C   UNL     1      -3.850  17.203  21.739  0.00  0.00    +0.000 C 
ATOM     32  C   UNL     1      -3.118  16.299  21.435  0.00  0.00    +0.000 C 
ENDBRANCH  18  32
ENDBRANCH   1  20
TORSDOF 8
ENDMDL
MODEL 6
REMARK VINA RESULT:      -7.2      8.107     10.957
REMARK  Name = 
REMARK  8 active torsions:
REMARK  status: ('A' for Active; 'I' for Inactive)
REMARK    1  A    between atoms: C_2  and  C_3
REMARK    2  A    between atoms: N_5  and  C_6
REMARK    3  A    between atoms: N_5  and  C_16
REMARK    4  A    between atoms: C_10  and  C_11
REMARK    5  A    between atoms: C_16  and  C_17
REMARK    6  A    between atoms: C_16  and  C_27
REMARK    7  A    between atoms: N_19  and  C_20
REMARK    8  A    between atoms: C_20  and  C_21
REMARK                            x       y       z     vdW  Elec       q    Type
REMARK                         _______ _______ _______ _____ _____    ______ ____
ROOT
ATOM      1  C   UNL     1       0.586  10.922  20.036  0.00  0.00    +0.000 C 
ENDROOT
BRANCH   1   2
ATOM      2  C   UNL     1       1.300   9.708  19.440  0.00  0.00    +0.000 A 
ATOM      3  C   UNL     1       1.770   9.452  18.162  0.00  0.00    +0.000 A 
ATOM      4  C   UNL     1       2.173   8.092  17.986  0.00  0.00    +0.000 A 
ATOM      5  C   UNL     1       2.108   7.377  19.157  0.00  0.00    +0.000 A 
ATOM      6  S   UNL     1       1.690   8.372  20.477  0.00  0.00    +0.000 S 
ENDBRANCH   1   2
BRANCH   1   7
ATOM      7  C   UNL     1      -0.381  10.522  21.199  0.00  0.00    +0.000 C 
ATOM      8  O   UNL     1      -0.713   9.365  21.456  0.00  0.00    +0.000 OA
ATOM      9  N   UNL     1      -0.809  11.575  21.990  0.00  0.00    +0.000 N 
ATOM     10  H   UNL     1      -0.619  12.531  21.718  0.00  0.00    +0.000 HD
BRANCH   9  11
ATOM     11  C   UNL     1      -1.618  11.329  23.166  0.00  0.00    +0.000 C 
BRANCH  11  12
ATOM     12  C   UNL     1      -2.769  12.293  23.285  0.00  0.00    +0.000 A 
ATOM     13  C   UNL     1      -3.806  12.060  24.203  0.00  0.00    +0.000 A 
ATOM     14  C   UNL     1      -4.897  12.928  24.280  0.00  0.00    +0.000 A 
ATOM     15  C   UNL     1      -4.963  14.039  23.443  0.00  0.00    +0.000 A 
ATOM     16  C   UNL     1      -3.930  14.292  22.542  0.00  0.00    +0.000 A 
ATOM     17  C   UNL     1      -2.838  13.426  22.463  0.00  0.00    +0.000 A 
ENDBRANCH  11  12
ENDBRANCH   9  11
ENDBRANCH   1   7
BRANCH   1  20
ATOM     18  C   UNL     1       0.443  12.965  18.558  0.00  0.00    +0.000 C 
ATOM     19  O   UNL     1      -0.078  13.736  17.752  0.00  0.00    +0.000 OA
ATOM     20  N   UNL     1      -0.142  11.780  19.060  0.00  0.00    +0.000 N 
BRANCH  20  21
ATOM     21  C   UNL     1      -1.422  11.320  18.535  0.00  0.00    +0.000 A 
ATOM     22  C   UNL     1      -1.484  10.278  17.594  0.00  0.00    +0.000 A 
ATOM     23  C   UNL     1      -2.691   9.839  17.040  0.00  0.00    +0.000 A 
ATOM     24  C   UNL     1      -3.889  10.387  17.468  0.00  0.00    +0.000 A 
ATOM     25  C   UNL     1      -3.885  11.377  18.456  0.00  0.00    +0.000 A 
ATOM     26  C   UNL     1      -2.650  11.865  18.948  0.00  0.00    +0.000 A 
BRANCH  25  27
ATOM     27  C   UNL     1      -5.188  11.876  19.034  0.00  0.00    +0.000 C 
ATOM     28  F   UNL     1      -5.123  12.161  20.364  0.00  0.00    +0.000 F 
ATOM     29  F   UNL     1      -5.591  13.030  18.430  0.00  0.00    +0.000 F 
ATOM     30  F   UNL     1      -6.211  10.996  18.883  0.00  0.00    +0.000 F 
ENDBRANCH  25  27
ENDBRANCH  20  21
BRANCH  18  32
ATOM     31  C   UNL     1       2.791  13.784  19.456  0.00  0.00    +0.000 C 
ATOM     32  C   UNL     1       1.738  13.385  19.033  0.00  0.00    +0.000 C 
ENDBRANCH  18  32
ENDBRANCH   1  20
TORSDOF 8
ENDMDL
MODEL 7
REMARK VINA RESULT:      -7.2      9.017     11.689
REMARK  Name = 
REMARK  8 active torsions:
REMARK  status: ('A' for Active; 'I' for Inactive)
REMARK    1  A    between atoms: C_2  and  C_3
REMARK    2  A    between atoms: N_5  and  C_6
REMARK    3  A    between atoms: N_5  and  C_16
REMARK    4  A    between atoms: C_10  and  C_11
REMARK    5  A    between atoms: C_16  and  C_17
REMARK    6  A    between atoms: C_16  and  C_27
REMARK    7  A    between atoms: N_19  and  C_20
REMARK    8  A    between atoms: C_20  and  C_21
REMARK                            x       y       z     vdW  Elec       q    Type
REMARK                         _______ _______ _______ _____ _____    ______ ____
ROOT
ATOM      1  C   UNL     1      -0.144  11.611  20.355  0.00  0.00    +0.000 C 
ENDROOT
BRANCH   1   2
ATOM      2  C   UNL     1       1.151  12.395  20.139  0.00  0.00    +0.000 A 
ATOM      3  C   UNL     1       2.038  12.973  21.033  0.00  0.00    +0.000 A 
ATOM      4  C   UNL     1       3.002  13.808  20.390  0.00  0.00    +0.000 A 
ATOM      5  C   UNL     1       2.899  13.758  19.021  0.00  0.00    +0.000 A 
ATOM      6  S   UNL     1       1.738  12.614  18.521  0.00  0.00    +0.000 S 
ENDBRANCH   1   2
BRANCH   1   7
ATOM      7  C   UNL     1      -1.363  12.280  19.638  0.00  0.00    +0.000 C 
ATOM      8  O   UNL     1      -1.575  13.492  19.621  0.00  0.00    +0.000 OA
ATOM      9  N   UNL     1      -2.187  11.406  18.949  0.00  0.00    +0.000 N 
ATOM     10  H   UNL     1      -2.070  10.406  19.050  0.00  0.00    +0.000 HD
BRANCH   9  11
ATOM     11  C   UNL     1      -3.287  11.908  18.153  0.00  0.00    +0.000 C 
BRANCH  11  12
ATOM     12  C   UNL     1      -4.627  11.628  18.780  0.00  0.00    +0.000 A 
ATOM     13  C   UNL     1      -5.442  10.592  18.296  0.00  0.00    +0.000 A 
ATOM     14  C   UNL     1      -6.706  10.364  18.845  0.00  0.00    +0.000 A 
ATOM     15  C   UNL     1      -7.168  11.167  19.886  0.00  0.00    +0.000 A 
ATOM     16  C   UNL     1      -6.359  12.185  20.389  0.00  0.00    +0.000 A 
ATOM     17  C   UNL     1      -5.096  12.414  19.841  0.00  0.00    +0.000 A 
ENDBRANCH  11  12
ENDBRANCH   9  11
ENDBRANCH   1   7
BRANCH   1  20
ATOM     18  C   UNL     1      -0.040  10.161  22.422  0.00  0.00    +0.000 C 
ATOM     19  O   UNL     1      -0.278   9.847  23.588  0.00  0.00    +0.000 OA
ATOM     20  N   UNL     1      -0.496  11.334  21.776  0.00  0.00    +0.000 N 
BRANCH  20  21
ATOM     21  C   UNL     1      -1.220  12.348  22.533  0.00  0.00    +0.000 A 
ATOM     22  C   UNL     1      -0.644  13.604  22.793  0.00  0.00    +0.000 A 
ATOM     23  C   UNL     1      -1.294  14.584  23.550  0.00  0.00    +0.000 A 
ATOM     24  C   UNL     1      -2.581  14.362  24.012  0.00  0.00    +0.000 A 
ATOM     25  C   UNL     1      -3.225  13.156  23.717  0.00  0.00    +0.000 A 
ATOM     26  C   UNL     1      -2.523  12.144  23.019  0.00  0.00    +0.000 A 
BRANCH  25  27
ATOM     27  C   UNL     1      -4.676  12.962  24.088  0.00  0.00    +0.000 C 
ATOM     28  F   UNL     1      -4.859  12.173  25.183  0.00  0.00    +0.000 F 
ATOM     29  F   UNL     1      -5.278  14.149  24.386  0.00  0.00    +0.000 F 
ATOM     30  F   UNL     1      -5.414  12.407  23.091  0.00  0.00    +0.000 F 
ENDBRANCH  25  27
ENDBRANCH  20  21
BRANCH  18  32
ATOM     31  C   UNL     1       1.330   8.380  21.030  0.00  0.00    +0.000 C 
ATOM     32  C   UNL     1       0.730   9.189  21.687  0.00  0.00    +0.000 C 
ENDBRANCH  18  32
ENDBRANCH   1  20
TORSDOF 8
ENDMDL
MODEL 8
REMARK VINA RESULT:      -7.2      8.210     11.034
REMARK  Name = 
REMARK  8 active torsions:
REMARK  status: ('A' for Active; 'I' for Inactive)
REMARK    1  A    between atoms: C_2  and  C_3
REMARK    2  A    between atoms: N_5  and  C_6
REMARK    3  A    between atoms: N_5  and  C_16
REMARK    4  A    between atoms: C_10  and  C_11
REMARK    5  A    between atoms: C_16  and  C_17
REMARK    6  A    between atoms: C_16  and  C_27
REMARK    7  A    between atoms: N_19  and  C_20
REMARK    8  A    between atoms: C_20  and  C_21
REMARK                            x       y       z     vdW  Elec       q    Type
REMARK                         _______ _______ _______ _____ _____    ______ ____
ROOT
ATOM      1  C   UNL     1       0.501  11.018  20.048  0.00  0.00    +0.000 C 
ENDROOT
BRANCH   1   2
ATOM      2  C   UNL     1       1.225   9.813  19.447  0.00  0.00    +0.000 A 
ATOM      3  C   UNL     1       1.686   9.562  18.164  0.00  0.00    +0.000 A 
ATOM      4  C   UNL     1       2.105   8.208  17.986  0.00  0.00    +0.000 A 
ATOM      5  C   UNL     1       2.060   7.493  19.158  0.00  0.00    +0.000 A 
ATOM      6  S   UNL     1       1.643   8.484  20.481  0.00  0.00    +0.000 S 
ENDBRANCH   1   2
BRANCH   1   7
ATOM      7  C   UNL     1      -0.447  10.608  21.223  0.00  0.00    +0.000 C 
ATOM      8  O   UNL     1      -0.769   9.448  21.479  0.00  0.00    +0.000 OA
ATOM      9  N   UNL     1      -0.870  11.655  22.025  0.00  0.00    +0.000 N 
ATOM     10  H   UNL     1      -0.689  12.613  21.754  0.00  0.00    +0.000 HD
BRANCH   9  11
ATOM     11  C   UNL     1      -1.661  11.399  23.211  0.00  0.00    +0.000 C 
BRANCH  11  12
ATOM     12  C   UNL     1      -2.867  12.295  23.303  0.00  0.00    +0.000 A 
ATOM     13  C   UNL     1      -2.976  13.435  22.491  0.00  0.00    +0.000 A 
ATOM     14  C   UNL     1      -4.071  14.294  22.612  0.00  0.00    +0.000 A 
ATOM     15  C   UNL     1      -5.070  14.021  23.543  0.00  0.00    +0.000 A 
ATOM     16  C   UNL     1      -4.983  12.882  24.341  0.00  0.00    +0.000 A 
ATOM     17  C   UNL     1      -3.889  12.022  24.222  0.00  0.00    +0.000 A 
ENDBRANCH  11  12
ENDBRANCH   9  11
ENDBRANCH   1   7
BRANCH   1  20
ATOM     18  C   UNL     1       0.333  13.030  18.529  0.00  0.00    +0.000 C 
ATOM     19  O   UNL     1      -0.207  13.789  17.724  0.00  0.00    +0.000 OA
ATOM     20  N   UNL     1      -0.250  11.865  19.079  0.00  0.00    +0.000 N 
BRANCH  20  21
ATOM     21  C   UNL     1      -1.554  11.411  18.610  0.00  0.00    +0.000 A 
ATOM     22  C   UNL     1      -1.664  10.354  17.690  0.00  0.00    +0.000 A 
ATOM     23  C   UNL     1      -2.895   9.921  17.189  0.00  0.00    +0.000 A 
ATOM     24  C   UNL     1      -4.070  10.490  17.654  0.00  0.00    +0.000 A 
ATOM     25  C   UNL     1      -4.017  11.496  18.624  0.00  0.00    +0.000 A 
ATOM     26  C   UNL     1      -2.759  11.977  19.060  0.00  0.00    +0.000 A 
BRANCH  25  27
ATOM     27  C   UNL     1      -5.292  12.019  19.243  0.00  0.00    +0.000 C 
ATOM     28  F   UNL     1      -6.404  11.329  18.870  0.00  0.00    +0.000 F 
ATOM     29  F   UNL     1      -5.252  11.946  20.604  0.00  0.00    +0.000 F 
ATOM     30  F   UNL     1      -5.535  13.322  18.944  0.00  0.00    +0.000 F 
ENDBRANCH  25  27
ENDBRANCH  20  21
BRANCH  18  32
ATOM     31  C   UNL     1       2.755  13.730  19.323  0.00  0.00    +0.000 C 
ATOM     32  C   UNL     1       1.650  13.442  18.948  0.00  0.00    +0.000 C 
ENDBRANCH  18  32
ENDBRANCH   1  20
TORSDOF 8
ENDMDL
MODEL 9
REMARK VINA RESULT:      -7.1      9.482     12.458
REMARK  Name = 
REMARK  8 active torsions:
REMARK  status: ('A' for Active; 'I' for Inactive)
REMARK    1  A    between atoms: C_2  and  C_3
REMARK    2  A    between atoms: N_5  and  C_6
REMARK    3  A    between atoms: N_5  and  C_16
REMARK    4  A    between atoms: C_10  and  C_11
REMARK    5  A    between atoms: C_16  and  C_17
REMARK    6  A    between atoms: C_16  and  C_27
REMARK    7  A    between atoms: N_19  and  C_20
REMARK    8  A    between atoms: C_20  and  C_21
REMARK                            x       y       z     vdW  Elec       q    Type
REMARK                         _______ _______ _______ _____ _____    ______ ____
ROOT
ATOM      1  C   UNL     1      -1.232  12.697  22.333  0.00  0.00    +0.000 C 
ENDROOT
BRANCH   1   2
ATOM      2  C   UNL     1      -0.578  11.315  22.321  0.00  0.00    +0.000 A 
ATOM      3  C   UNL     1      -0.832  10.170  23.061  0.00  0.00    +0.000 A 
ATOM      4  C   UNL     1       0.172   9.168  22.884  0.00  0.00    +0.000 A 
ATOM      5  C   UNL     1       1.099   9.525  21.936  0.00  0.00    +0.000 A 
ATOM      6  S   UNL     1       0.685  10.994  21.176  0.00  0.00    +0.000 S 
ENDBRANCH   1   2
BRANCH   1   7
ATOM      7  C   UNL     1      -2.563  12.711  23.155  0.00  0.00    +0.000 C 
ATOM      8  O   UNL     1      -3.120  11.702  23.588  0.00  0.00    +0.000 OA
ATOM      9  N   UNL     1      -3.066  13.972  23.430  0.00  0.00    +0.000 N 
ATOM     10  H   UNL     1      -2.667  14.790  22.989  0.00  0.00    +0.000 HD
BRANCH   9  11
ATOM     11  C   UNL     1      -4.232  14.129  24.274  0.00  0.00    +0.000 C 
BRANCH  11  12
ATOM     12  C   UNL     1      -5.521  13.937  23.519  0.00  0.00    +0.000 A 
ATOM     13  C   UNL     1      -6.389  12.882  23.841  0.00  0.00    +0.000 A 
ATOM     14  C   UNL     1      -7.560  12.674  23.109  0.00  0.00    +0.000 A 
ATOM     15  C   UNL     1      -7.877  13.521  22.049  0.00  0.00    +0.000 A 
ATOM     16  C   UNL     1      -7.034  14.584  21.733  0.00  0.00    +0.000 A 
ATOM     17  C   UNL     1      -5.862  14.793  22.464  0.00  0.00    +0.000 A 
ENDBRANCH  11  12
ENDBRANCH   9  11
ENDBRANCH   1   7
BRANCH   1  20
ATOM     18  C   UNL     1      -0.712  14.415  20.556  0.00  0.00    +0.000 C 
ATOM     19  O   UNL     1      -0.836  14.983  19.470  0.00  0.00    +0.000 OA
ATOM     20  N   UNL     1      -1.471  13.305  20.994  0.00  0.00    +0.000 N 
BRANCH  20  21
ATOM     21  C   UNL     1      -2.417  12.665  20.088  0.00  0.00    +0.000 A 
ATOM     22  C   UNL     1      -3.798  12.893  20.207  0.00  0.00    +0.000 A 
ATOM     23  C   UNL     1      -4.736  12.264  19.381  0.00  0.00    +0.000 A 
ATOM     24  C   UNL     1      -4.309  11.437  18.355  0.00  0.00    +0.000 A 
ATOM     25  C   UNL     1      -2.940  11.236  18.149  0.00  0.00    +0.000 A 
ATOM     26  C   UNL     1      -2.009  11.816  19.045  0.00  0.00    +0.000 A 
BRANCH  25  27
ATOM     27  C   UNL     1      -2.461  10.457  16.948  0.00  0.00    +0.000 C 
ATOM     28  F   UNL     1      -1.236   9.888  17.117  0.00  0.00    +0.000 F 
ATOM     29  F   UNL     1      -3.306   9.428  16.652  0.00  0.00    +0.000 F 
ATOM     30  F   UNL     1      -2.378  11.210  15.820  0.00  0.00    +0.000 F 
ENDBRANCH  25  27
ENDBRANCH  20  21
BRANCH  18  32
ATOM     31  C   UNL     1       1.081  15.555  22.128  0.00  0.00    +0.000 C 
ATOM     32  C   UNL     1       0.268  15.008  21.431  0.00  0.00    +0.000 C 
ENDBRANCH  18  32
ENDBRANCH   1  20
TORSDOF 8
ENDMDL
