MODEL 1
REMARK VINA RESULT:      -7.1      0.000      0.000
REMARK  Name = 
REMARK  4 active torsions:
REMARK  status: ('A' for Active; 'I' for Inactive)
REMARK    1  A    between atoms: C_1  and  N_2
REMARK    2  A    between atoms: C_3  and  S_4
REMARK    3  A    between atoms: C_7  and  C_8
REMARK    4  A    between atoms: C_11  and  C_12
REMARK                            x       y       z     vdW  Elec       q    Type
REMARK                         _______ _______ _______ _____ _____    ______ ____
ROOT
ATOM      1  C   UNL     1       5.243   4.317  17.989  0.00  0.00    +0.000 A 
ATOM      2  C   UNL     1       5.837   5.534  18.238  0.00  0.00    +0.000 A 
ATOM      3  S   UNL     1       6.644   6.084  16.839  0.00  0.00    +0.000 S 
ATOM      4  C   UNL     1       6.129   4.672  15.985  0.00  0.00    +0.000 A 
ATOM      5  N   UNL     1       5.416   3.822  16.705  0.00  0.00    +0.000 NA
ENDROOT
BRANCH   1  11
ATOM      6  C   UNL     1       2.228   4.693  18.646  0.00  0.00    +0.000 C 
ATOM      7  N   UNL     1       3.118   3.813  19.356  0.00  0.00    +0.000 N 
ATOM      8  C   UNL     1       2.877   2.996  20.428  0.00  0.00    +0.000 A 
ATOM      9  N   UNL     1       3.958   2.302  20.706  0.00  0.00    +0.000 NA
ATOM     10  N   UNL     1       4.937   2.677  19.824  0.00  0.00    +0.000 NA
ATOM     11  C   UNL     1       4.442   3.611  19.035  0.00  0.00    +0.000 A 
BRANCH   8  12
ATOM     12  S   UNL     1       1.409   2.880  21.331  0.00  0.00    +0.000 S 
ATOM     13  H   UNL     1       0.954   1.683  20.952  0.00  0.00    +0.000 HD
ENDBRANCH   8  12
ENDBRANCH   1  11
BRANCH   4  14
ATOM     14  C   UNL     1       6.413   4.527  14.545  0.00  0.00    +0.000 A 
ATOM     15  C   UNL     1       5.702   3.638  13.719  0.00  0.00    +0.000 A 
ATOM     16  C   UNL     1       6.051   3.470  12.375  0.00  0.00    +0.000 A 
ATOM     17  C   UNL     1       7.107   4.195  11.833  0.00  0.00    +0.000 A 
ATOM     18  C   UNL     1       7.804   5.105  12.626  0.00  0.00    +0.000 A 
ATOM     19  C   UNL     1       7.454   5.273  13.969  0.00  0.00    +0.000 A 
ENDBRANCH   4  14
TORSDOF 3
ENDMDL
MODEL 2
REMARK VINA RESULT:      -7.0      0.221      1.155
REMARK  Name = 
REMARK  4 active torsions:
REMARK  status: ('A' for Active; 'I' for Inactive)
REMARK    1  A    between atoms: C_1  and  N_2
REMARK    2  A    between atoms: C_3  and  S_4
REMARK    3  A    between atoms: C_7  and  C_8
REMARK    4  A    between atoms: C_11  and  C_12
REMARK                            x       y       z     vdW  Elec       q    Type
REMARK                         _______ _______ _______ _____ _____    ______ ____
ROOT
ATOM      1  C   UNL     1       5.376   4.334  17.964  0.00  0.00    +0.000 A 
ATOM      2  C   UNL     1       6.064   5.487  18.270  0.00  0.00    +0.000 A 
ATOM      3  S   UNL     1       6.959   6.007  16.914  0.00  0.00    +0.000 S 
ATOM      4  C   UNL     1       6.353   4.671  15.999  0.00  0.00    +0.000 A 
ATOM      5  N   UNL     1       5.547   3.865  16.670  0.00  0.00    +0.000 NA
ENDROOT
BRANCH   1  11
ATOM      6  C   UNL     1       2.328   4.781  18.383  0.00  0.00    +0.000 C 
ATOM      7  N   UNL     1       3.145   3.903  19.178  0.00  0.00    +0.000 N 
ATOM      8  C   UNL     1       2.808   3.117  20.247  0.00  0.00    +0.000 A 
ATOM      9  N   UNL     1       3.850   2.410  20.622  0.00  0.00    +0.000 NA
ATOM     10  N   UNL     1       4.901   2.745  19.808  0.00  0.00    +0.000 NA
ATOM     11  C   UNL     1       4.485   3.669  18.962  0.00  0.00    +0.000 A 
BRANCH   8  12
ATOM     12  S   UNL     1       1.274   3.050  21.039  0.00  0.00    +0.000 S 
ATOM     13  H   UNL     1       1.531   3.695  22.179  0.00  0.00    +0.000 HD
ENDBRANCH   8  12
ENDBRANCH   1  11
BRANCH   4  14
ATOM     14  C   UNL     1       6.670   4.545  14.565  0.00  0.00    +0.000 A 
ATOM     15  C   UNL     1       7.626   5.354  13.926  0.00  0.00    +0.000 A 
ATOM     16  C   UNL     1       7.843   5.260  12.548  0.00  0.00    +0.000 A 
ATOM     17  C   UNL     1       7.118   4.346  11.788  0.00  0.00    +0.000 A 
ATOM     18  C   UNL     1       6.189   3.512  12.407  0.00  0.00    +0.000 A 
ATOM     19  C   UNL     1       5.973   3.607  13.785  0.00  0.00    +0.000 A 
ENDBRANCH   4  14
TORSDOF 3
ENDMDL
MODEL 3
REMARK VINA RESULT:      -6.9      0.897      1.507
REMARK  Name = 
REMARK  4 active torsions:
REMARK  status: ('A' for Active; 'I' for Inactive)
REMARK    1  A    between atoms: C_1  and  N_2
REMARK    2  A    between atoms: C_3  and  S_4
REMARK    3  A    between atoms: C_7  and  C_8
REMARK    4  A    between atoms: C_11  and  C_12
REMARK                            x       y       z     vdW  Elec       q    Type
REMARK                         _______ _______ _______ _____ _____    ______ ____
ROOT
ATOM      1  C   UNL     1       5.106   4.556  18.103  0.00  0.00    +0.000 A 
ATOM      2  C   UNL     1       6.356   4.946  18.530  0.00  0.00    +0.000 A 
ATOM      3  S   UNL     1       7.438   4.974  17.213  0.00  0.00    +0.000 S 
ATOM      4  C   UNL     1       6.163   4.484  16.152  0.00  0.00    +0.000 A 
ATOM      5  N   UNL     1       4.999   4.285  16.748  0.00  0.00    +0.000 NA
ENDROOT
BRANCH   1  11
ATOM      6  C   UNL     1       4.343   2.180  19.958  0.00  0.00    +0.000 C 
ATOM      7  N   UNL     1       3.587   3.398  19.833  0.00  0.00    +0.000 N 
ATOM      8  C   UNL     1       2.422   3.777  20.443  0.00  0.00    +0.000 A 
ATOM      9  N   UNL     1       2.124   5.010  20.102  0.00  0.00    +0.000 NA
ATOM     10  N   UNL     1       3.090   5.452  19.236  0.00  0.00    +0.000 NA
ATOM     11  C   UNL     1       3.950   4.469  19.047  0.00  0.00    +0.000 A 
BRANCH   8  12
ATOM     12  S   UNL     1       1.438   2.810  21.485  0.00  0.00    +0.000 S 
ATOM     13  H   UNL     1       2.353   2.272  22.295  0.00  0.00    +0.000 HD
ENDBRANCH   8  12
ENDBRANCH   1  11
BRANCH   4  14
ATOM     14  C   UNL     1       6.392   4.402  14.698  0.00  0.00    +0.000 A 
ATOM     15  C   UNL     1       5.635   3.567  13.858  0.00  0.00    +0.000 A 
ATOM     16  C   UNL     1       5.933   3.457  12.496  0.00  0.00    +0.000 A 
ATOM     17  C   UNL     1       6.983   4.188  11.949  0.00  0.00    +0.000 A 
ATOM     18  C   UNL     1       7.725   5.047  12.758  0.00  0.00    +0.000 A 
ATOM     19  C   UNL     1       7.426   5.157  14.120  0.00  0.00    +0.000 A 
ENDBRANCH   4  14
TORSDOF 3
ENDMDL
MODEL 4
REMARK VINA RESULT:      -6.8      0.883      1.906
REMARK  Name = 
REMARK  4 active torsions:
REMARK  status: ('A' for Active; 'I' for Inactive)
REMARK    1  A    between atoms: C_1  and  N_2
REMARK    2  A    between atoms: C_3  and  S_4
REMARK    3  A    between atoms: C_7  and  C_8
REMARK    4  A    between atoms: C_11  and  C_12
REMARK                            x       y       z     vdW  Elec       q    Type
REMARK                         _______ _______ _______ _____ _____    ______ ____
ROOT
ATOM      1  C   UNL     1       4.931   5.043  17.951  0.00  0.00    +0.000 A 
ATOM      2  C   UNL     1       5.982   5.870  18.282  0.00  0.00    +0.000 A 
ATOM      3  S   UNL     1       7.087   5.954  16.986  0.00  0.00    +0.000 S 
ATOM      4  C   UNL     1       6.081   4.898  16.057  0.00  0.00    +0.000 A 
ATOM      5  N   UNL     1       4.992   4.483  16.684  0.00  0.00    +0.000 NA
ENDROOT
BRANCH   1  11
ATOM      6  C   UNL     1       4.408   2.526  19.699  0.00  0.00    +0.000 C 
ATOM      7  N   UNL     1       3.541   3.672  19.631  0.00  0.00    +0.000 N 
ATOM      8  C   UNL     1       2.350   3.913  20.263  0.00  0.00    +0.000 A 
ATOM      9  N   UNL     1       1.935   5.126  19.979  0.00  0.00    +0.000 NA
ATOM     10  N   UNL     1       2.849   5.695  19.130  0.00  0.00    +0.000 NA
ATOM     11  C   UNL     1       3.796   4.807  18.894  0.00  0.00    +0.000 A 
BRANCH   8  12
ATOM     12  S   UNL     1       1.470   2.813  21.264  0.00  0.00    +0.000 S 
ATOM     13  H   UNL     1       0.678   2.212  20.372  0.00  0.00    +0.000 HD
ENDBRANCH   8  12
ENDBRANCH   1  11
BRANCH   4  14
ATOM     14  C   UNL     1       6.414   4.595  14.653  0.00  0.00    +0.000 A 
ATOM     15  C   UNL     1       7.487   5.205  13.981  0.00  0.00    +0.000 A 
ATOM     16  C   UNL     1       7.725   4.952  12.626  0.00  0.00    +0.000 A 
ATOM     17  C   UNL     1       6.901   4.075  11.925  0.00  0.00    +0.000 A 
ATOM     18  C   UNL     1       5.852   3.435  12.581  0.00  0.00    +0.000 A 
ATOM     19  C   UNL     1       5.616   3.689  13.936  0.00  0.00    +0.000 A 
ENDBRANCH   4  14
TORSDOF 3
ENDMDL
MODEL 5
REMARK VINA RESULT:      -6.5      4.670      7.988
REMARK  Name = 
REMARK  4 active torsions:
REMARK  status: ('A' for Active; 'I' for Inactive)
REMARK    1  A    between atoms: C_1  and  N_2
REMARK    2  A    between atoms: C_3  and  S_4
REMARK    3  A    between atoms: C_7  and  C_8
REMARK    4  A    between atoms: C_11  and  C_12
REMARK                            x       y       z     vdW  Elec       q    Type
REMARK                         _______ _______ _______ _____ _____    ______ ____
ROOT
ATOM      1  C   UNL     1       2.608   6.907  19.017  0.00  0.00    +0.000 A 
ATOM      2  C   UNL     1       2.680   7.796  17.967  0.00  0.00    +0.000 A 
ATOM      3  S   UNL     1       1.832   9.224  18.354  0.00  0.00    +0.000 S 
ATOM      4  C   UNL     1       1.441   8.573  19.907  0.00  0.00    +0.000 A 
ATOM      5  N   UNL     1       1.895   7.348  20.121  0.00  0.00    +0.000 NA
ENDROOT
BRANCH   1  11
ATOM      6  C   UNL     1       1.502   4.257  17.824  0.00  0.00    +0.000 C 
ATOM      7  N   UNL     1       2.778   4.393  18.476  0.00  0.00    +0.000 N 
ATOM      8  C   UNL     1       3.742   3.455  18.727  0.00  0.00    +0.000 A 
ATOM      9  N   UNL     1       4.788   4.031  19.274  0.00  0.00    +0.000 NA
ATOM     10  N   UNL     1       4.511   5.366  19.410  0.00  0.00    +0.000 NA
ATOM     11  C   UNL     1       3.288   5.577  18.962  0.00  0.00    +0.000 A 
BRANCH   8  12
ATOM     12  S   UNL     1       3.638   1.757  18.421  0.00  0.00    +0.000 S 
ATOM     13  H   UNL     1       4.810   1.326  18.892  0.00  0.00    +0.000 HD
ENDBRANCH   8  12
ENDBRANCH   1  11
BRANCH   4  14
ATOM     14  C   UNL     1       0.738   9.398  20.907  0.00  0.00    +0.000 A 
ATOM     15  C   UNL     1       0.496   8.955  22.219  0.00  0.00    +0.000 A 
ATOM     16  C   UNL     1      -0.243   9.733  23.116  0.00  0.00    +0.000 A 
ATOM     17  C   UNL     1      -0.741  10.971  22.720  0.00  0.00    +0.000 A 
ATOM     18  C   UNL     1      -0.485  11.442  21.434  0.00  0.00    +0.000 A 
ATOM     19  C   UNL     1       0.255  10.664  20.538  0.00  0.00    +0.000 A 
ENDBRANCH   4  14
TORSDOF 3
ENDMDL
MODEL 6
REMARK VINA RESULT:      -6.4      4.687      8.031
REMARK  Name = 
REMARK  4 active torsions:
REMARK  status: ('A' for Active; 'I' for Inactive)
REMARK    1  A    between atoms: C_1  and  N_2
REMARK    2  A    between atoms: C_3  and  S_4
REMARK    3  A    between atoms: C_7  and  C_8
REMARK    4  A    between atoms: C_11  and  C_12
REMARK                            x       y       z     vdW  Elec       q    Type
REMARK                         _______ _______ _______ _____ _____    ______ ____
ROOT
ATOM      1  C   UNL     1       2.577   6.959  18.984  0.00  0.00    +0.000 A 
ATOM      2  C   UNL     1       2.697   7.850  17.940  0.00  0.00    +0.000 A 
ATOM      3  S   UNL     1       1.830   9.276  18.291  0.00  0.00    +0.000 S 
ATOM      4  C   UNL     1       1.369   8.621  19.824  0.00  0.00    +0.000 A 
ATOM      5  N   UNL     1       1.814   7.397  20.055  0.00  0.00    +0.000 NA
ENDROOT
BRANCH   1  11
ATOM      6  C   UNL     1       1.502   4.294  17.797  0.00  0.00    +0.000 C 
ATOM      7  N   UNL     1       2.763   4.440  18.473  0.00  0.00    +0.000 N 
ATOM      8  C   UNL     1       3.724   3.506  18.754  0.00  0.00    +0.000 A 
ATOM      9  N   UNL     1       4.757   4.090  19.316  0.00  0.00    +0.000 NA
ATOM     10  N   UNL     1       4.475   5.426  19.432  0.00  0.00    +0.000 NA
ATOM     11  C   UNL     1       3.261   5.630  18.957  0.00  0.00    +0.000 A 
BRANCH   8  12
ATOM     12  S   UNL     1       3.629   1.805  18.465  0.00  0.00    +0.000 S 
ATOM     13  H   UNL     1       2.677   1.438  19.326  0.00  0.00    +0.000 HD
ENDBRANCH   8  12
ENDBRANCH   1  11
BRANCH   4  14
ATOM     14  C   UNL     1       0.620   9.443  20.791  0.00  0.00    +0.000 A 
ATOM     15  C   UNL     1       0.246  10.772  20.527  0.00  0.00    +0.000 A 
ATOM     16  C   UNL     1      -0.396  11.546  21.499  0.00  0.00    +0.000 A 
ATOM     17  C   UNL     1      -0.685  11.001  22.746  0.00  0.00    +0.000 A 
ATOM     18  C   UNL     1      -0.352   9.675  23.017  0.00  0.00    +0.000 A 
ATOM     19  C   UNL     1       0.289   8.902  22.044  0.00  0.00    +0.000 A 
ENDBRANCH   4  14
TORSDOF 3
ENDMDL
MODEL 7
REMARK VINA RESULT:      -6.3      1.165      1.642
REMARK  Name = 
REMARK  4 active torsions:
REMARK  status: ('A' for Active; 'I' for Inactive)
REMARK    1  A    between atoms: C_1  and  N_2
REMARK    2  A    between atoms: C_3  and  S_4
REMARK    3  A    between atoms: C_7  and  C_8
REMARK    4  A    between atoms: C_11  and  C_12
REMARK                            x       y       z     vdW  Elec       q    Type
REMARK                         _______ _______ _______ _____ _____    ______ ____
ROOT
ATOM      1  C   UNL     1       4.181   4.349  17.391  0.00  0.00    +0.000 A 
ATOM      2  C   UNL     1       4.336   5.708  17.546  0.00  0.00    +0.000 A 
ATOM      3  S   UNL     1       5.317   6.329  16.297  0.00  0.00    +0.000 S 
ATOM      4  C   UNL     1       5.454   4.746  15.616  0.00  0.00    +0.000 A 
ATOM      5  N   UNL     1       4.825   3.799  16.293  0.00  0.00    +0.000 NA
ENDROOT
BRANCH   1  11
ATOM      6  C   UNL     1       2.948   5.269  20.092  0.00  0.00    +0.000 C 
ATOM      7  N   UNL     1       2.837   3.941  19.551  0.00  0.00    +0.000 N 
ATOM      8  C   UNL     1       2.220   2.831  20.063  0.00  0.00    +0.000 A 
ATOM      9  N   UNL     1       2.292   1.846  19.197  0.00  0.00    +0.000 NA
ATOM     10  N   UNL     1       2.985   2.296  18.103  0.00  0.00    +0.000 NA
ATOM     11  C   UNL     1       3.343   3.546  18.332  0.00  0.00    +0.000 A 
BRANCH   8  12
ATOM     12  S   UNL     1       1.474   2.686  21.615  0.00  0.00    +0.000 S 
ATOM     13  H   UNL     1       0.798   3.834  21.697  0.00  0.00    +0.000 HD
ENDBRANCH   8  12
ENDBRANCH   1  11
BRANCH   4  14
ATOM     14  C   UNL     1       6.151   4.543  14.332  0.00  0.00    +0.000 A 
ATOM     15  C   UNL     1       7.301   5.267  13.972  0.00  0.00    +0.000 A 
ATOM     16  C   UNL     1       7.888   5.105  12.714  0.00  0.00    +0.000 A 
ATOM     17  C   UNL     1       7.344   4.208  11.800  0.00  0.00    +0.000 A 
ATOM     18  C   UNL     1       6.224   3.456  12.149  0.00  0.00    +0.000 A 
ATOM     19  C   UNL     1       5.637   3.619  13.408  0.00  0.00    +0.000 A 
ENDBRANCH   4  14
TORSDOF 3
ENDMDL
MODEL 8
REMARK VINA RESULT:      -6.2      1.205      1.268
REMARK  Name = 
REMARK  4 active torsions:
REMARK  status: ('A' for Active; 'I' for Inactive)
REMARK    1  A    between atoms: C_1  and  N_2
REMARK    2  A    between atoms: C_3  and  S_4
REMARK    3  A    between atoms: C_7  and  C_8
REMARK    4  A    between atoms: C_11  and  C_12
REMARK                            x       y       z     vdW  Elec       q    Type
REMARK                         _______ _______ _______ _____ _____    ______ ____
ROOT
ATOM      1  C   UNL     1       4.086   4.343  17.361  0.00  0.00    +0.000 A 
ATOM      2  C   UNL     1       4.287   5.694  17.536  0.00  0.00    +0.000 A 
ATOM      3  S   UNL     1       5.259   6.306  16.276  0.00  0.00    +0.000 S 
ATOM      4  C   UNL     1       5.331   4.732  15.564  0.00  0.00    +0.000 A 
ATOM      5  N   UNL     1       4.688   3.793  16.239  0.00  0.00    +0.000 NA
ENDROOT
BRANCH   1  11
ATOM      6  C   UNL     1       3.002   5.228  20.136  0.00  0.00    +0.000 C 
ATOM      7  N   UNL     1       2.805   3.926  19.557  0.00  0.00    +0.000 N 
ATOM      8  C   UNL     1       2.153   2.830  20.056  0.00  0.00    +0.000 A 
ATOM      9  N   UNL     1       2.144   1.873  19.156  0.00  0.00    +0.000 NA
ATOM     10  N   UNL     1       2.818   2.327  18.052  0.00  0.00    +0.000 NA
ATOM     11  C   UNL     1       3.245   3.549  18.307  0.00  0.00    +0.000 A 
BRANCH   8  12
ATOM     12  S   UNL     1       1.459   2.668  21.630  0.00  0.00    +0.000 S 
ATOM     13  H   UNL     1       2.261   3.448  22.359  0.00  0.00    +0.000 HD
ENDBRANCH   8  12
ENDBRANCH   1  11
BRANCH   4  14
ATOM     14  C   UNL     1       5.991   4.532  14.261  0.00  0.00    +0.000 A 
ATOM     15  C   UNL     1       5.507   3.630  13.297  0.00  0.00    +0.000 A 
ATOM     16  C   UNL     1       6.203   3.409  12.105  0.00  0.00    +0.000 A 
ATOM     17  C   UNL     1       7.387   4.095  11.851  0.00  0.00    +0.000 A 
ATOM     18  C   UNL     1       7.867   5.017  12.778  0.00  0.00    +0.000 A 
ATOM     19  C   UNL     1       7.170   5.237  13.970  0.00  0.00    +0.000 A 
ENDBRANCH   4  14
TORSDOF 3
ENDMDL
MODEL 9
REMARK VINA RESULT:      -6.1      1.847      2.137
REMARK  Name = 
REMARK  4 active torsions:
REMARK  status: ('A' for Active; 'I' for Inactive)
REMARK    1  A    between atoms: C_1  and  N_2
REMARK    2  A    between atoms: C_3  and  S_4
REMARK    3  A    between atoms: C_7  and  C_8
REMARK    4  A    between atoms: C_11  and  C_12
REMARK                            x       y       z     vdW  Elec       q    Type
REMARK                         _______ _______ _______ _____ _____    ______ ____
ROOT
ATOM      1  C   UNL     1       5.013   5.096  17.993  0.00  0.00    +0.000 A 
ATOM      2  C   UNL     1       6.301   5.003  18.472  0.00  0.00    +0.000 A 
ATOM      3  S   UNL     1       7.369   4.624  17.197  0.00  0.00    +0.000 S 
ATOM      4  C   UNL     1       6.046   4.630  16.084  0.00  0.00    +0.000 A 
ATOM      5  N   UNL     1       4.867   4.876  16.632  0.00  0.00    +0.000 NA
ENDROOT
BRANCH   1  11
ATOM      6  C   UNL     1       3.306   7.694  17.971  0.00  0.00    +0.000 C 
ATOM      7  N   UNL     1       3.146   6.616  18.910  0.00  0.00    +0.000 N 
ATOM      8  C   UNL     1       2.275   6.485  19.959  0.00  0.00    +0.000 A 
ATOM      9  N   UNL     1       2.416   5.299  20.505  0.00  0.00    +0.000 NA
ATOM     10  N   UNL     1       3.408   4.638  19.827  0.00  0.00    +0.000 NA
ATOM     11  C   UNL     1       3.870   5.445  18.891  0.00  0.00    +0.000 A 
BRANCH   8  12
ATOM     12  S   UNL     1       1.165   7.677  20.537  0.00  0.00    +0.000 S 
ATOM     13  H   UNL     1       1.130   8.531  19.512  0.00  0.00    +0.000 HD
ENDBRANCH   8  12
ENDBRANCH   1  11
BRANCH   4  14
ATOM     14  C   UNL     1       6.287   4.461  14.639  0.00  0.00    +0.000 A 
ATOM     15  C   UNL     1       5.486   3.636  13.830  0.00  0.00    +0.000 A 
ATOM     16  C   UNL     1       5.791   3.439  12.480  0.00  0.00    +0.000 A 
ATOM     17  C   UNL     1       6.894   4.073  11.914  0.00  0.00    +0.000 A 
ATOM     18  C   UNL     1       7.681   4.920  12.690  0.00  0.00    +0.000 A 
ATOM     19  C   UNL     1       7.374   5.117  14.041  0.00  0.00    +0.000 A 
ENDBRANCH   4  14
TORSDOF 3
ENDMDL
