MODEL 1
REMARK VINA RESULT:      -8.4      0.000      0.000
REMARK  Name = 
REMARK  5 active torsions:
REMARK  status: ('A' for Active; 'I' for Inactive)
REMARK    1  A    between atoms: C_1  and  C_2
REMARK    2  A    between atoms: C_2  and  O_3
REMARK    3  A    between atoms: O_3  and  C_4
REMARK    4  A    between atoms: C_4  and  C_5
REMARK    5  A    between atoms: C_6  and  C_7
REMARK                            x       y       z     vdW  Elec       q    Type
REMARK                         _______ _______ _______ _____ _____    ______ ____
ROOT
ATOM      1  C   UNL     1       6.938   4.931  15.641  0.00  0.00    +0.000 C 
ATOM      2  C   UNL     1       6.337   5.633  16.861  0.00  0.00    +0.000 C 
ATOM      3  C   UNL     1       6.888   5.014  18.145  0.00  0.00    +0.000 C 
ATOM      4  C   UNL     1       5.694   4.891  19.067  0.00  0.00    +0.000 C 
ATOM      5  O   UNL     1       5.571   3.517  19.494  0.00  0.00    +0.000 OA
ATOM      6  C   UNL     1       4.407   2.927  18.894  0.00  0.00    +0.000 C 
ATOM      7  C   UNL     1       3.621   4.041  18.320  0.00  0.00    +0.000 C 
ATOM      8  C   UNL     1       2.295   4.071  18.106  0.00  0.00    +0.000 C 
ATOM      9  C   UNL     1       1.570   5.343  17.768  0.00  0.00    +0.000 C 
ATOM     10  C   UNL     1       2.411   6.630  17.879  0.00  0.00    +0.000 C 
ATOM     11  C   UNL     1       3.686   6.465  18.717  0.00  0.00    +0.000 C 
ATOM     12  C   UNL     1       4.484   5.253  18.229  0.00  0.00    +0.000 C 
ATOM     13  O   UNL     1       4.921   5.429  16.875  0.00  0.00    +0.000 OA
ENDROOT
BRANCH   2  14
ATOM     14  O   UNL     1       6.663   7.027  16.874  0.00  0.00    +0.000 OA
BRANCH  14  15
ATOM     15  C   UNL     1       7.543   7.415  17.922  0.00  0.00    +0.000 C 
BRANCH  15  16
ATOM     16  C   UNL     1       8.100   8.790  17.703  0.00  0.00    +0.000 C 
ATOM     17  C   UNL     1       8.898   9.481  18.533  0.00  0.00    +0.000 C 
BRANCH  17  18
ATOM     18  C   UNL     1       9.335  10.860  18.266  0.00  0.00    +0.000 A 
ATOM     19  C   UNL     1      10.692  11.208  18.279  0.00  0.00    +0.000 A 
ATOM     20  C   UNL     1      11.101  12.502  17.953  0.00  0.00    +0.000 A 
ATOM     21  C   UNL     1      10.157  13.461  17.602  0.00  0.00    +0.000 A 
ATOM     22  C   UNL     1       8.802  13.126  17.578  0.00  0.00    +0.000 A 
ATOM     23  C   UNL     1       8.392  11.830  17.904  0.00  0.00    +0.000 A 
ENDBRANCH  17  18
ENDBRANCH  15  16
ENDBRANCH  14  15
ENDBRANCH   2  14
TORSDOF 4
ENDMDL
MODEL 2
REMARK VINA RESULT:      -8.4      0.530      1.036
REMARK  Name = 
REMARK  5 active torsions:
REMARK  status: ('A' for Active; 'I' for Inactive)
REMARK    1  A    between atoms: C_1  and  C_2
REMARK    2  A    between atoms: C_2  and  O_3
REMARK    3  A    between atoms: O_3  and  C_4
REMARK    4  A    between atoms: C_4  and  C_5
REMARK    5  A    between atoms: C_6  and  C_7
REMARK                            x       y       z     vdW  Elec       q    Type
REMARK                         _______ _______ _______ _____ _____    ______ ____
ROOT
ATOM      1  C   UNL     1       6.832   4.839  15.659  0.00  0.00    +0.000 C 
ATOM      2  C   UNL     1       6.271   5.529  16.905  0.00  0.00    +0.000 C 
ATOM      3  C   UNL     1       6.800   4.845  18.165  0.00  0.00    +0.000 C 
ATOM      4  C   UNL     1       5.607   4.748  19.091  0.00  0.00    +0.000 C 
ATOM      5  O   UNL     1       5.422   3.369  19.476  0.00  0.00    +0.000 OA
ATOM      6  C   UNL     1       4.228   2.854  18.867  0.00  0.00    +0.000 C 
ATOM      7  C   UNL     1       3.493   4.020  18.333  0.00  0.00    +0.000 C 
ATOM      8  C   UNL     1       2.168   4.118  18.129  0.00  0.00    +0.000 C 
ATOM      9  C   UNL     1       1.501   5.432  17.836  0.00  0.00    +0.000 C 
ATOM     10  C   UNL     1       2.402   6.675  17.980  0.00  0.00    +0.000 C 
ATOM     11  C   UNL     1       3.673   6.425  18.804  0.00  0.00    +0.000 C 
ATOM     12  C   UNL     1       4.411   5.193  18.273  0.00  0.00    +0.000 C 
ATOM     13  O   UNL     1       4.848   5.391  16.922  0.00  0.00    +0.000 OA
ENDROOT
BRANCH   2  14
ATOM     14  O   UNL     1       6.662   6.906  16.958  0.00  0.00    +0.000 OA
BRANCH  14  15
ATOM     15  C   UNL     1       7.635   7.201  17.953  0.00  0.00    +0.000 C 
BRANCH  15  16
ATOM     16  C   UNL     1       8.091   8.628  17.881  0.00  0.00    +0.000 C 
ATOM     17  C   UNL     1       8.878   9.271  18.759  0.00  0.00    +0.000 C 
BRANCH  17  18
ATOM     18  C   UNL     1       9.212  10.699  18.643  0.00  0.00    +0.000 A 
ATOM     19  C   UNL     1       8.537  11.532  17.741  0.00  0.00    +0.000 A 
ATOM     20  C   UNL     1       8.810  12.899  17.688  0.00  0.00    +0.000 A 
ATOM     21  C   UNL     1       9.756  13.451  18.545  0.00  0.00    +0.000 A 
ATOM     22  C   UNL     1      10.432  12.635  19.454  0.00  0.00    +0.000 A 
ATOM     23  C   UNL     1      10.158  11.265  19.506  0.00  0.00    +0.000 A 
ENDBRANCH  17  18
ENDBRANCH  15  16
ENDBRANCH  14  15
ENDBRANCH   2  14
TORSDOF 4
ENDMDL
MODEL 3
REMARK VINA RESULT:      -8.3      1.056      1.334
REMARK  Name = 
REMARK  5 active torsions:
REMARK  status: ('A' for Active; 'I' for Inactive)
REMARK    1  A    between atoms: C_1  and  C_2
REMARK    2  A    between atoms: C_2  and  O_3
REMARK    3  A    between atoms: O_3  and  C_4
REMARK    4  A    between atoms: C_4  and  C_5
REMARK    5  A    between atoms: C_6  and  C_7
REMARK                            x       y       z     vdW  Elec       q    Type
REMARK                         _______ _______ _______ _____ _____    ______ ____
ROOT
ATOM      1  C   UNL     1       7.005   5.180  16.453  0.00  0.00    +0.000 C 
ATOM      2  C   UNL     1       6.161   5.603  17.658  0.00  0.00    +0.000 C 
ATOM      3  C   UNL     1       6.536   4.765  18.880  0.00  0.00    +0.000 C 
ATOM      4  C   UNL     1       5.218   4.415  19.537  0.00  0.00    +0.000 C 
ATOM      5  O   UNL     1       5.128   2.981  19.671  0.00  0.00    +0.000 OA
ATOM      6  C   UNL     1       4.125   2.475  18.776  0.00  0.00    +0.000 C 
ATOM      7  C   UNL     1       3.366   3.647  18.291  0.00  0.00    +0.000 C 
ATOM      8  C   UNL     1       2.095   3.665  17.855  0.00  0.00    +0.000 C 
ATOM      9  C   UNL     1       1.344   4.949  17.638  0.00  0.00    +0.000 C 
ATOM     10  C   UNL     1       2.058   6.221  18.134  0.00  0.00    +0.000 C 
ATOM     11  C   UNL     1       3.186   5.946  19.139  0.00  0.00    +0.000 C 
ATOM     12  C   UNL     1       4.140   4.887  18.582  0.00  0.00    +0.000 C 
ATOM     13  O   UNL     1       4.781   5.343  17.383  0.00  0.00    +0.000 OA
ENDROOT
BRANCH   2  14
ATOM     14  O   UNL     1       6.377   6.979  17.988  0.00  0.00    +0.000 OA
BRANCH  14  15
ATOM     15  C   UNL     1       7.311   7.645  17.147  0.00  0.00    +0.000 C 
BRANCH  15  16
ATOM     16  C   UNL     1       8.268   8.489  17.935  0.00  0.00    +0.000 C 
ATOM     17  C   UNL     1       8.359   9.829  17.927  0.00  0.00    +0.000 C 
BRANCH  17  18
ATOM     18  C   UNL     1       9.384  10.569  18.679  0.00  0.00    +0.000 A 
ATOM     19  C   UNL     1      10.472  11.168  18.030  0.00  0.00    +0.000 A 
ATOM     20  C   UNL     1      11.400  11.927  18.743  0.00  0.00    +0.000 A 
ATOM     21  C   UNL     1      11.246  12.104  20.114  0.00  0.00    +0.000 A 
ATOM     22  C   UNL     1      10.164  11.519  20.773  0.00  0.00    +0.000 A 
ATOM     23  C   UNL     1       9.234  10.757  20.059  0.00  0.00    +0.000 A 
ENDBRANCH  17  18
ENDBRANCH  15  16
ENDBRANCH  14  15
ENDBRANCH   2  14
TORSDOF 4
ENDMDL
MODEL 4
REMARK VINA RESULT:      -8.2      4.362      6.046
REMARK  Name = 
REMARK  5 active torsions:
REMARK  status: ('A' for Active; 'I' for Inactive)
REMARK    1  A    between atoms: C_1  and  C_2
REMARK    2  A    between atoms: C_2  and  O_3
REMARK    3  A    between atoms: O_3  and  C_4
REMARK    4  A    between atoms: C_4  and  C_5
REMARK    5  A    between atoms: C_6  and  C_7
REMARK                            x       y       z     vdW  Elec       q    Type
REMARK                         _______ _______ _______ _____ _____    ______ ____
ROOT
ATOM      1  C   UNL     1       4.750   6.353  18.245  0.00  0.00    +0.000 C 
ATOM      2  C   UNL     1       4.686   4.837  18.451  0.00  0.00    +0.000 C 
ATOM      3  C   UNL     1       4.208   4.155  17.170  0.00  0.00    +0.000 C 
ATOM      4  C   UNL     1       3.225   3.100  17.629  0.00  0.00    +0.000 C 
ATOM      5  O   UNL     1       1.967   3.305  16.950  0.00  0.00    +0.000 OA
ATOM      6  C   UNL     1       0.982   3.769  17.888  0.00  0.00    +0.000 C 
ATOM      7  C   UNL     1       1.556   3.563  19.235  0.00  0.00    +0.000 C 
ATOM      8  C   UNL     1       0.882   3.381  20.383  0.00  0.00    +0.000 C 
ATOM      9  C   UNL     1       1.560   2.919  21.642  0.00  0.00    +0.000 C 
ATOM     10  C   UNL     1       3.029   2.482  21.475  0.00  0.00    +0.000 C 
ATOM     11  C   UNL     1       3.423   2.174  20.024  0.00  0.00    +0.000 C 
ATOM     12  C   UNL     1       3.024   3.338  19.113  0.00  0.00    +0.000 C 
ATOM     13  O   UNL     1       3.724   4.539  19.466  0.00  0.00    +0.000 OA
ENDROOT
BRANCH   2  14
ATOM     14  O   UNL     1       5.973   4.301  18.779  0.00  0.00    +0.000 OA
BRANCH  14  15
ATOM     15  C   UNL     1       7.059   4.931  18.111  0.00  0.00    +0.000 C 
BRANCH  15  16
ATOM     16  C   UNL     1       7.143   4.519  16.671  0.00  0.00    +0.000 C 
ATOM     17  C   UNL     1       6.879   5.279  15.595  0.00  0.00    +0.000 C 
BRANCH  17  18
ATOM     18  C   UNL     1       6.918   4.762  14.219  0.00  0.00    +0.000 A 
ATOM     19  C   UNL     1       6.049   3.747  13.798  0.00  0.00    +0.000 A 
ATOM     20  C   UNL     1       6.043   3.314  12.472  0.00  0.00    +0.000 A 
ATOM     21  C   UNL     1       6.903   3.897  11.548  0.00  0.00    +0.000 A 
ATOM     22  C   UNL     1       7.770   4.914  11.950  0.00  0.00    +0.000 A 
ATOM     23  C   UNL     1       7.775   5.348  13.279  0.00  0.00    +0.000 A 
ENDBRANCH  17  18
ENDBRANCH  15  16
ENDBRANCH  14  15
ENDBRANCH   2  14
TORSDOF 4
ENDMDL
MODEL 5
REMARK VINA RESULT:      -8.1      4.295      7.065
REMARK  Name = 
REMARK  5 active torsions:
REMARK  status: ('A' for Active; 'I' for Inactive)
REMARK    1  A    between atoms: C_1  and  C_2
REMARK    2  A    between atoms: C_2  and  O_3
REMARK    3  A    between atoms: O_3  and  C_4
REMARK    4  A    between atoms: C_4  and  C_5
REMARK    5  A    between atoms: C_6  and  C_7
REMARK                            x       y       z     vdW  Elec       q    Type
REMARK                         _______ _______ _______ _____ _____    ______ ____
ROOT
ATOM      1  C   UNL     1       6.530   5.516  19.315  0.00  0.00    +0.000 C 
ATOM      2  C   UNL     1       5.314   5.093  18.487  0.00  0.00    +0.000 C 
ATOM      3  C   UNL     1       4.782   6.285  17.693  0.00  0.00    +0.000 C 
ATOM      4  C   UNL     1       3.276   6.205  17.824  0.00  0.00    +0.000 C 
ATOM      5  O   UNL     1       2.784   7.454  18.354  0.00  0.00    +0.000 OA
ATOM      6  C   UNL     1       2.307   7.256  19.695  0.00  0.00    +0.000 C 
ATOM      7  C   UNL     1       2.223   5.795  19.898  0.00  0.00    +0.000 C 
ATOM      8  C   UNL     1       1.414   5.140  20.749  0.00  0.00    +0.000 C 
ATOM      9  C   UNL     1       1.224   3.651  20.683  0.00  0.00    +0.000 C 
ATOM     10  C   UNL     1       1.858   2.960  19.460  0.00  0.00    +0.000 C 
ATOM     11  C   UNL     1       2.191   3.920  18.310  0.00  0.00    +0.000 C 
ATOM     12  C   UNL     1       3.006   5.105  18.833  0.00  0.00    +0.000 C 
ATOM     13  O   UNL     1       4.266   4.676  19.366  0.00  0.00    +0.000 OA
ENDROOT
BRANCH   2  14
ATOM     14  O   UNL     1       5.652   4.061  17.553  0.00  0.00    +0.000 OA
BRANCH  14  15
ATOM     15  C   UNL     1       6.528   4.476  16.512  0.00  0.00    +0.000 C 
BRANCH  15  16
ATOM     16  C   UNL     1       6.232   3.774  15.221  0.00  0.00    +0.000 C 
ATOM     17  C   UNL     1       6.151   4.328  13.999  0.00  0.00    +0.000 C 
BRANCH  17  18
ATOM     18  C   UNL     1       5.780   3.567  12.796  0.00  0.00    +0.000 A 
ATOM     19  C   UNL     1       6.634   2.597  12.257  0.00  0.00    +0.000 A 
ATOM     20  C   UNL     1       6.243   1.830  11.159  0.00  0.00    +0.000 A 
ATOM     21  C   UNL     1       4.987   2.021  10.591  0.00  0.00    +0.000 A 
ATOM     22  C   UNL     1       4.123   2.979  11.122  0.00  0.00    +0.000 A 
ATOM     23  C   UNL     1       4.515   3.747  12.222  0.00  0.00    +0.000 A 
ENDBRANCH  17  18
ENDBRANCH  15  16
ENDBRANCH  14  15
ENDBRANCH   2  14
TORSDOF 4
ENDMDL
MODEL 6
REMARK VINA RESULT:      -8.0      4.579      5.819
REMARK  Name = 
REMARK  5 active torsions:
REMARK  status: ('A' for Active; 'I' for Inactive)
REMARK    1  A    between atoms: C_1  and  C_2
REMARK    2  A    between atoms: C_2  and  O_3
REMARK    3  A    between atoms: O_3  and  C_4
REMARK    4  A    between atoms: C_4  and  C_5
REMARK    5  A    between atoms: C_6  and  C_7
REMARK                            x       y       z     vdW  Elec       q    Type
REMARK                         _______ _______ _______ _____ _____    ______ ____
ROOT
ATOM      1  C   UNL     1       4.789   4.707  16.157  0.00  0.00    +0.000 C 
ATOM      2  C   UNL     1       4.608   5.059  17.636  0.00  0.00    +0.000 C 
ATOM      3  C   UNL     1       5.690   4.377  18.472  0.00  0.00    +0.000 C 
ATOM      4  C   UNL     1       4.970   3.854  19.697  0.00  0.00    +0.000 C 
ATOM      5  O   UNL     1       5.215   2.437  19.815  0.00  0.00    +0.000 OA
ATOM      6  C   UNL     1       4.006   1.712  19.538  0.00  0.00    +0.000 C 
ATOM      7  C   UNL     1       2.912   2.707  19.540  0.00  0.00    +0.000 C 
ATOM      8  C   UNL     1       1.615   2.483  19.810  0.00  0.00    +0.000 C 
ATOM      9  C   UNL     1       0.643   3.605  20.043  0.00  0.00    +0.000 C 
ATOM     10  C   UNL     1       1.271   5.009  20.146  0.00  0.00    +0.000 C 
ATOM     11  C   UNL     1       2.780   4.993  20.431  0.00  0.00    +0.000 C 
ATOM     12  C   UNL     1       3.493   4.075  19.435  0.00  0.00    +0.000 C 
ATOM     13  O   UNL     1       3.350   4.554  18.091  0.00  0.00    +0.000 OA
ENDROOT
BRANCH   2  14
ATOM     14  O   UNL     1       4.713   6.471  17.852  0.00  0.00    +0.000 OA
BRANCH  14  15
ATOM     15  C   UNL     1       3.739   7.244  17.160  0.00  0.00    +0.000 C 
BRANCH  15  16
ATOM     16  C   UNL     1       2.729   7.835  18.097  0.00  0.00    +0.000 C 
ATOM     17  C   UNL     1       1.849   8.814  17.825  0.00  0.00    +0.000 C 
BRANCH  17  18
ATOM     18  C   UNL     1       0.944   9.384  18.835  0.00  0.00    +0.000 A 
ATOM     19  C   UNL     1       1.132   9.138  20.201  0.00  0.00    +0.000 A 
ATOM     20  C   UNL     1       0.312   9.740  21.156  0.00  0.00    +0.000 A 
ATOM     21  C   UNL     1      -0.702  10.603  20.754  0.00  0.00    +0.000 A 
ATOM     22  C   UNL     1      -0.898  10.863  19.397  0.00  0.00    +0.000 A 
ATOM     23  C   UNL     1      -0.076  10.259  18.441  0.00  0.00    +0.000 A 
ENDBRANCH  17  18
ENDBRANCH  15  16
ENDBRANCH  14  15
ENDBRANCH   2  14
TORSDOF 4
ENDMDL
MODEL 7
REMARK VINA RESULT:      -8.0      1.098      1.262
REMARK  Name = 
REMARK  5 active torsions:
REMARK  status: ('A' for Active; 'I' for Inactive)
REMARK    1  A    between atoms: C_1  and  C_2
REMARK    2  A    between atoms: C_2  and  O_3
REMARK    3  A    between atoms: O_3  and  C_4
REMARK    4  A    between atoms: C_4  and  C_5
REMARK    5  A    between atoms: C_6  and  C_7
REMARK                            x       y       z     vdW  Elec       q    Type
REMARK                         _______ _______ _______ _____ _____    ______ ____
ROOT
ATOM      1  C   UNL     1       6.948   5.450  16.150  0.00  0.00    +0.000 C 
ATOM      2  C   UNL     1       6.202   5.878  17.417  0.00  0.00    +0.000 C 
ATOM      3  C   UNL     1       6.678   5.048  18.608  0.00  0.00    +0.000 C 
ATOM      4  C   UNL     1       5.419   4.698  19.372  0.00  0.00    +0.000 C 
ATOM      5  O   UNL     1       5.345   3.263  19.521  0.00  0.00    +0.000 OA
ATOM      6  C   UNL     1       4.275   2.749  18.712  0.00  0.00    +0.000 C 
ATOM      7  C   UNL     1       3.475   3.916  18.283  0.00  0.00    +0.000 C 
ATOM      8  C   UNL     1       2.172   3.928  17.952  0.00  0.00    +0.000 C 
ATOM      9  C   UNL     1       1.402   5.208  17.790  0.00  0.00    +0.000 C 
ATOM     10  C   UNL     1       2.149   6.486  18.220  0.00  0.00    +0.000 C 
ATOM     11  C   UNL     1       3.356   6.220  19.132  0.00  0.00    +0.000 C 
ATOM     12  C   UNL     1       4.266   5.160  18.504  0.00  0.00    +0.000 C 
ATOM     13  O   UNL     1       4.806   5.612  17.256  0.00  0.00    +0.000 OA
ENDROOT
BRANCH   2  14
ATOM     14  O   UNL     1       6.439   7.257  17.721  0.00  0.00    +0.000 OA
BRANCH  14  15
ATOM     15  C   UNL     1       7.698   7.747  17.276  0.00  0.00    +0.000 C 
BRANCH  15  16
ATOM     16  C   UNL     1       8.216   8.839  18.164  0.00  0.00    +0.000 C 
ATOM     17  C   UNL     1       8.668  10.045  17.783  0.00  0.00    +0.000 C 
BRANCH  17  18
ATOM     18  C   UNL     1       9.229  11.027  18.725  0.00  0.00    +0.000 A 
ATOM     19  C   UNL     1       9.413  10.713  20.078  0.00  0.00    +0.000 A 
ATOM     20  C   UNL     1      10.012  11.624  20.948  0.00  0.00    +0.000 A 
ATOM     21  C   UNL     1      10.442  12.859  20.472  0.00  0.00    +0.000 A 
ATOM     22  C   UNL     1      10.272  13.182  19.126  0.00  0.00    +0.000 A 
ATOM     23  C   UNL     1       9.672  12.269  18.254  0.00  0.00    +0.000 A 
ENDBRANCH  17  18
ENDBRANCH  15  16
ENDBRANCH  14  15
ENDBRANCH   2  14
TORSDOF 4
ENDMDL
MODEL 8
REMARK VINA RESULT:      -8.0      4.026      7.015
REMARK  Name = 
REMARK  5 active torsions:
REMARK  status: ('A' for Active; 'I' for Inactive)
REMARK    1  A    between atoms: C_1  and  C_2
REMARK    2  A    between atoms: C_2  and  O_3
REMARK    3  A    between atoms: O_3  and  C_4
REMARK    4  A    between atoms: C_4  and  C_5
REMARK    5  A    between atoms: C_6  and  C_7
REMARK                            x       y       z     vdW  Elec       q    Type
REMARK                         _______ _______ _______ _____ _____    ______ ____
ROOT
ATOM      1  C   UNL     1       6.976   5.515  19.563  0.00  0.00    +0.000 C 
ATOM      2  C   UNL     1       6.146   5.138  18.334  0.00  0.00    +0.000 C 
ATOM      3  C   UNL     1       5.730   6.399  17.577  0.00  0.00    +0.000 C 
ATOM      4  C   UNL     1       4.284   6.171  17.195  0.00  0.00    +0.000 C 
ATOM      5  O   UNL     1       3.488   7.266  17.696  0.00  0.00    +0.000 OA
ATOM      6  C   UNL     1       2.650   6.803  18.767  0.00  0.00    +0.000 C 
ATOM      7  C   UNL     1       2.704   5.326  18.734  0.00  0.00    +0.000 C 
ATOM      8  C   UNL     1       1.767   4.471  19.177  0.00  0.00    +0.000 C 
ATOM      9  C   UNL     1       1.809   3.004  18.853  0.00  0.00    +0.000 C 
ATOM     10  C   UNL     1       2.879   2.587  17.825  0.00  0.00    +0.000 C 
ATOM     11  C   UNL     1       3.420   3.753  16.987  0.00  0.00    +0.000 C 
ATOM     12  C   UNL     1       3.864   4.897  17.902  0.00  0.00    +0.000 C 
ATOM     13  O   UNL     1       4.942   4.491  18.756  0.00  0.00    +0.000 OA
ENDROOT
BRANCH   2  14
ATOM     14  O   UNL     1       6.892   4.313  17.433  0.00  0.00    +0.000 OA
BRANCH  14  15
ATOM     15  C   UNL     1       7.147   4.908  16.166  0.00  0.00    +0.000 C 
BRANCH  15  16
ATOM     16  C   UNL     1       6.613   4.073  15.041  0.00  0.00    +0.000 C 
ATOM     17  C   UNL     1       6.540   4.415  13.744  0.00  0.00    +0.000 C 
BRANCH  17  18
ATOM     18  C   UNL     1       5.929   3.554  12.719  0.00  0.00    +0.000 A 
ATOM     19  C   UNL     1       4.630   3.792  12.252  0.00  0.00    +0.000 A 
ATOM     20  C   UNL     1       4.084   3.015  11.229  0.00  0.00    +0.000 A 
ATOM     21  C   UNL     1       4.837   1.995  10.656  0.00  0.00    +0.000 A 
ATOM     22  C   UNL     1       6.134   1.751  11.107  0.00  0.00    +0.000 A 
ATOM     23  C   UNL     1       6.681   2.530  12.131  0.00  0.00    +0.000 A 
ENDBRANCH  17  18
ENDBRANCH  15  16
ENDBRANCH  14  15
ENDBRANCH   2  14
TORSDOF 4
ENDMDL
MODEL 9
REMARK VINA RESULT:      -8.0      4.733      6.008
REMARK  Name = 
REMARK  5 active torsions:
REMARK  status: ('A' for Active; 'I' for Inactive)
REMARK    1  A    between atoms: C_1  and  C_2
REMARK    2  A    between atoms: C_2  and  O_3
REMARK    3  A    between atoms: O_3  and  C_4
REMARK    4  A    between atoms: C_4  and  C_5
REMARK    5  A    between atoms: C_6  and  C_7
REMARK                            x       y       z     vdW  Elec       q    Type
REMARK                         _______ _______ _______ _____ _____    ______ ____
ROOT
ATOM      1  C   UNL     1       4.707   4.870  16.201  0.00  0.00    +0.000 C 
ATOM      2  C   UNL     1       4.482   5.145  17.690  0.00  0.00    +0.000 C 
ATOM      3  C   UNL     1       5.600   4.511  18.515  0.00  0.00    +0.000 C 
ATOM      4  C   UNL     1       4.907   3.885  19.705  0.00  0.00    +0.000 C 
ATOM      5  O   UNL     1       5.257   2.485  19.769  0.00  0.00    +0.000 OA
ATOM      6  C   UNL     1       4.109   1.685  19.443  0.00  0.00    +0.000 C 
ATOM      7  C   UNL     1       2.943   2.594  19.469  0.00  0.00    +0.000 C 
ATOM      8  C   UNL     1       1.663   2.263  19.709  0.00  0.00    +0.000 C 
ATOM      9  C   UNL     1       0.607   3.299  19.973  0.00  0.00    +0.000 C 
ATOM     10  C   UNL     1       1.126   4.741  20.143  0.00  0.00    +0.000 C 
ATOM     11  C   UNL     1       2.628   4.825  20.451  0.00  0.00    +0.000 C 
ATOM     12  C   UNL     1       3.421   4.006  19.429  0.00  0.00    +0.000 C 
ATOM     13  O   UNL     1       3.259   4.529  18.104  0.00  0.00    +0.000 OA
ENDROOT
BRANCH   2  14
ATOM     14  O   UNL     1       4.477   6.550  17.966  0.00  0.00    +0.000 OA
BRANCH  14  15
ATOM     15  C   UNL     1       3.346   7.245  17.453  0.00  0.00    +0.000 C 
BRANCH  15  16
ATOM     16  C   UNL     1       2.476   7.781  18.550  0.00  0.00    +0.000 C 
ATOM     17  C   UNL     1       1.785   8.932  18.545  0.00  0.00    +0.000 C 
BRANCH  17  18
ATOM     18  C   UNL     1       1.015   9.413  19.703  0.00  0.00    +0.000 A 
ATOM     19  C   UNL     1       0.109  10.474  19.583  0.00  0.00    +0.000 A 
ATOM     20  C   UNL     1      -0.669  10.876  20.670  0.00  0.00    +0.000 A 
ATOM     21  C   UNL     1      -0.555  10.214  21.888  0.00  0.00    +0.000 A 
ATOM     22  C   UNL     1       0.339   9.150  22.020  0.00  0.00    +0.000 A 
ATOM     23  C   UNL     1       1.118   8.748  20.931  0.00  0.00    +0.000 A 
ENDBRANCH  17  18
ENDBRANCH  15  16
ENDBRANCH  14  15
ENDBRANCH   2  14
TORSDOF 4
ENDMDL
