MODEL 1
REMARK VINA RESULT:      -6.1      0.000      0.000
REMARK  Name = 
REMARK  4 active torsions:
REMARK  status: ('A' for Active; 'I' for Inactive)
REMARK    1  A    between atoms: C_2  and  C_3
REMARK    2  A    between atoms: C_2  and  C_11
REMARK    3  A    between atoms: C_3  and  C_4
REMARK    4  A    between atoms: C_11  and  O_13
REMARK                            x       y       z     vdW  Elec       q    Type
REMARK                         _______ _______ _______ _____ _____    ______ ____
ROOT
ATOM      1  C   UNL     1       4.698   4.387  16.846  0.00  0.00    +0.000 C 
ENDROOT
BRANCH   1   2
ATOM      2  C   UNL     1       3.468   3.867  17.563  0.00  0.00    +0.000 A 
ATOM      3  C   UNL     1       3.277   2.478  17.669  0.00  0.00    +0.000 A 
ATOM      4  C   UNL     1       2.206   1.958  18.399  0.00  0.00    +0.000 A 
ATOM      5  C   UNL     1       1.305   2.814  19.027  0.00  0.00    +0.000 A 
ATOM      6  C   UNL     1       1.459   4.194  18.903  0.00  0.00    +0.000 A 
ATOM      7  C   UNL     1       2.528   4.719  18.171  0.00  0.00    +0.000 A 
ATOM      8 CL   UNL     1       2.651   6.439  18.056  0.00  0.00    +0.000 Cl
ENDBRANCH   1   2
BRANCH   1  10
ATOM      9  C   UNL     1       5.962   5.040  18.951  0.00  0.00    +0.000 C 
ATOM     10  C   UNL     1       5.941   4.656  17.661  0.00  0.00    +0.000 C 
BRANCH  10  11
ATOM     11  C   UNL     1       7.277   4.572  16.995  0.00  0.00    +0.000 C 
ATOM     12  O   UNL     1       7.476   4.926  15.843  0.00  0.00    +0.000 OA
BRANCH  11  13
ATOM     13  O   UNL     1       8.268   4.053  17.747  0.00  0.00    +0.000 OA
ATOM     14  H   UNL     1       8.645   3.207  17.462  0.00  0.00    +0.000 HD
ENDBRANCH  11  13
ENDBRANCH  10  11
ENDBRANCH   1  10
TORSDOF 4
ENDMDL
MODEL 2
REMARK VINA RESULT:      -6.1      2.153      2.950
REMARK  Name = 
REMARK  4 active torsions:
REMARK  status: ('A' for Active; 'I' for Inactive)
REMARK    1  A    between atoms: C_2  and  C_3
REMARK    2  A    between atoms: C_2  and  C_11
REMARK    3  A    between atoms: C_3  and  C_4
REMARK    4  A    between atoms: C_11  and  O_13
REMARK                            x       y       z     vdW  Elec       q    Type
REMARK                         _______ _______ _______ _____ _____    ______ ____
ROOT
ATOM      1  C   UNL     1       5.861   6.572  16.805  0.00  0.00    +0.000 C 
ENDROOT
BRANCH   1   2
ATOM      2  C   UNL     1       4.660   5.734  17.194  0.00  0.00    +0.000 A 
ATOM      3  C   UNL     1       3.656   6.311  17.992  0.00  0.00    +0.000 A 
ATOM      4  C   UNL     1       2.491   5.604  18.297  0.00  0.00    +0.000 A 
ATOM      5  C   UNL     1       2.313   4.308  17.819  0.00  0.00    +0.000 A 
ATOM      6  C   UNL     1       3.313   3.708  17.056  0.00  0.00    +0.000 A 
ATOM      7  C   UNL     1       4.482   4.411  16.751  0.00  0.00    +0.000 A 
ATOM      8 CL   UNL     1       5.680   3.600  15.806  0.00  0.00    +0.000 Cl
ENDBRANCH   1   2
BRANCH   1  10
ATOM      9  C   UNL     1       7.878   7.664  17.896  0.00  0.00    +0.000 C 
ATOM     10  C   UNL     1       7.035   6.625  17.753  0.00  0.00    +0.000 C 
BRANCH  10  11
ATOM     11  C   UNL     1       7.366   5.414  18.564  0.00  0.00    +0.000 C 
ATOM     12  O   UNL     1       7.949   4.441  18.110  0.00  0.00    +0.000 OA
BRANCH  11  13
ATOM     13  O   UNL     1       6.957   5.446  19.848  0.00  0.00    +0.000 OA
ATOM     14  H   UNL     1       6.696   4.605  20.253  0.00  0.00    +0.000 HD
ENDBRANCH  11  13
ENDBRANCH  10  11
ENDBRANCH   1  10
TORSDOF 4
ENDMDL
MODEL 3
REMARK VINA RESULT:      -6.0      1.604      2.075
REMARK  Name = 
REMARK  4 active torsions:
REMARK  status: ('A' for Active; 'I' for Inactive)
REMARK    1  A    between atoms: C_2  and  C_3
REMARK    2  A    between atoms: C_2  and  C_11
REMARK    3  A    between atoms: C_3  and  C_4
REMARK    4  A    between atoms: C_11  and  O_13
REMARK                            x       y       z     vdW  Elec       q    Type
REMARK                         _______ _______ _______ _____ _____    ______ ____
ROOT
ATOM      1  C   UNL     1       5.803   5.930  16.504  0.00  0.00    +0.000 C 
ENDROOT
BRANCH   1   2
ATOM      2  C   UNL     1       4.538   5.257  16.997  0.00  0.00    +0.000 A 
ATOM      3  C   UNL     1       4.433   3.858  16.913  0.00  0.00    +0.000 A 
ATOM      4  C   UNL     1       3.324   3.191  17.440  0.00  0.00    +0.000 A 
ATOM      5  C   UNL     1       2.299   3.911  18.049  0.00  0.00    +0.000 A 
ATOM      6  C   UNL     1       2.370   5.301  18.110  0.00  0.00    +0.000 A 
ATOM      7  C   UNL     1       3.477   5.972  17.582  0.00  0.00    +0.000 A 
ATOM      8 CL   UNL     1       3.492   7.697  17.688  0.00  0.00    +0.000 Cl
ENDBRANCH   1   2
BRANCH   1  10
ATOM      9  C   UNL     1       7.491   7.483  17.595  0.00  0.00    +0.000 C 
ATOM     10  C   UNL     1       6.861   6.297  17.518  0.00  0.00    +0.000 C 
BRANCH  10  11
ATOM     11  C   UNL     1       7.329   5.258  18.485  0.00  0.00    +0.000 C 
ATOM     12  O   UNL     1       8.068   4.336  18.175  0.00  0.00    +0.000 OA
BRANCH  11  13
ATOM     13  O   UNL     1       6.861   5.385  19.743  0.00  0.00    +0.000 OA
ATOM     14  H   UNL     1       7.235   4.798  20.418  0.00  0.00    +0.000 HD
ENDBRANCH  11  13
ENDBRANCH  10  11
ENDBRANCH   1  10
TORSDOF 4
ENDMDL
MODEL 4
REMARK VINA RESULT:      -6.0      1.814      2.542
REMARK  Name = 
REMARK  4 active torsions:
REMARK  status: ('A' for Active; 'I' for Inactive)
REMARK    1  A    between atoms: C_2  and  C_3
REMARK    2  A    between atoms: C_2  and  C_11
REMARK    3  A    between atoms: C_3  and  C_4
REMARK    4  A    between atoms: C_11  and  O_13
REMARK                            x       y       z     vdW  Elec       q    Type
REMARK                         _______ _______ _______ _____ _____    ______ ____
ROOT
ATOM      1  C   UNL     1       4.824   5.239  16.413  0.00  0.00    +0.000 C 
ENDROOT
BRANCH   1   2
ATOM      2  C   UNL     1       4.305   4.224  17.411  0.00  0.00    +0.000 A 
ATOM      3  C   UNL     1       3.291   3.334  17.015  0.00  0.00    +0.000 A 
ATOM      4  C   UNL     1       2.850   2.325  17.873  0.00  0.00    +0.000 A 
ATOM      5  C   UNL     1       3.405   2.193  19.143  0.00  0.00    +0.000 A 
ATOM      6  C   UNL     1       4.387   3.088  19.566  0.00  0.00    +0.000 A 
ATOM      7  C   UNL     1       4.830   4.101  18.711  0.00  0.00    +0.000 A 
ATOM      8 CL   UNL     1       6.044   5.176  19.307  0.00  0.00    +0.000 Cl
ENDBRANCH   1   2
BRANCH   1  10
ATOM      9  C   UNL     1       5.403   4.159  14.188  0.00  0.00    +0.000 C 
ATOM     10  C   UNL     1       5.767   4.764  15.334  0.00  0.00    +0.000 C 
BRANCH  10  11
ATOM     11  C   UNL     1       7.241   4.888  15.552  0.00  0.00    +0.000 C 
ATOM     12  O   UNL     1       7.815   4.439  16.533  0.00  0.00    +0.000 OA
BRANCH  11  13
ATOM     13  O   UNL     1       7.914   5.558  14.595  0.00  0.00    +0.000 OA
ATOM     14  H   UNL     1       8.643   5.093  14.156  0.00  0.00    +0.000 HD
ENDBRANCH  11  13
ENDBRANCH  10  11
ENDBRANCH   1  10
TORSDOF 4
ENDMDL
MODEL 5
REMARK VINA RESULT:      -6.0      0.765      1.211
REMARK  Name = 
REMARK  4 active torsions:
REMARK  status: ('A' for Active; 'I' for Inactive)
REMARK    1  A    between atoms: C_2  and  C_3
REMARK    2  A    between atoms: C_2  and  C_11
REMARK    3  A    between atoms: C_3  and  C_4
REMARK    4  A    between atoms: C_11  and  O_13
REMARK                            x       y       z     vdW  Elec       q    Type
REMARK                         _______ _______ _______ _____ _____    ______ ____
ROOT
ATOM      1  C   UNL     1       5.108   4.486  18.101  0.00  0.00    +0.000 C 
ENDROOT
BRANCH   1   2
ATOM      2  C   UNL     1       3.750   3.822  18.202  0.00  0.00    +0.000 A 
ATOM      3  C   UNL     1       3.682   2.422  18.321  0.00  0.00    +0.000 A 
ATOM      4  C   UNL     1       2.457   1.779  18.508  0.00  0.00    +0.000 A 
ATOM      5  C   UNL     1       1.279   2.520  18.570  0.00  0.00    +0.000 A 
ATOM      6  C   UNL     1       1.324   3.905  18.419  0.00  0.00    +0.000 A 
ATOM      7  C   UNL     1       2.548   4.552  18.228  0.00  0.00    +0.000 A 
ATOM      8 CL   UNL     1       2.524   6.270  18.042  0.00  0.00    +0.000 Cl
ENDBRANCH   1   2
BRANCH   1  10
ATOM      9  C   UNL     1       5.165   4.282  15.570  0.00  0.00    +0.000 C 
ATOM     10  C   UNL     1       5.753   4.592  16.740  0.00  0.00    +0.000 C 
BRANCH  10  11
ATOM     11  C   UNL     1       7.189   4.999  16.648  0.00  0.00    +0.000 C 
ATOM     12  O   UNL     1       7.563   6.017  16.086  0.00  0.00    +0.000 OA
BRANCH  11  13
ATOM     13  O   UNL     1       8.069   4.150  17.214  0.00  0.00    +0.000 OA
ATOM     14  H   UNL     1       8.274   4.282  18.152  0.00  0.00    +0.000 HD
ENDBRANCH  11  13
ENDBRANCH  10  11
ENDBRANCH   1  10
TORSDOF 4
ENDMDL
MODEL 6
REMARK VINA RESULT:      -5.9      1.926      3.081
REMARK  Name = 
REMARK  4 active torsions:
REMARK  status: ('A' for Active; 'I' for Inactive)
REMARK    1  A    between atoms: C_2  and  C_3
REMARK    2  A    between atoms: C_2  and  C_11
REMARK    3  A    between atoms: C_3  and  C_4
REMARK    4  A    between atoms: C_11  and  O_13
REMARK                            x       y       z     vdW  Elec       q    Type
REMARK                         _______ _______ _______ _____ _____    ______ ____
ROOT
ATOM      1  C   UNL     1       5.124   3.670  16.437  0.00  0.00    +0.000 C 
ENDROOT
BRANCH   1   2
ATOM      2  C   UNL     1       4.161   4.616  17.125  0.00  0.00    +0.000 A 
ATOM      3  C   UNL     1       4.509   5.973  17.250  0.00  0.00    +0.000 A 
ATOM      4  C   UNL     1       3.613   6.894  17.794  0.00  0.00    +0.000 A 
ATOM      5  C   UNL     1       2.359   6.476  18.232  0.00  0.00    +0.000 A 
ATOM      6  C   UNL     1       2.010   5.129  18.149  0.00  0.00    +0.000 A 
ATOM      7  C   UNL     1       2.906   4.203  17.607  0.00  0.00    +0.000 A 
ATOM      8 CL   UNL     1       2.405   2.550  17.542  0.00  0.00    +0.000 Cl
ENDBRANCH   1   2
BRANCH   1  10
ATOM      9  C   UNL     1       5.528   4.143  13.975  0.00  0.00    +0.000 C 
ATOM     10  C   UNL     1       5.918   4.187  15.262  0.00  0.00    +0.000 C 
BRANCH  10  11
ATOM     11  C   UNL     1       7.290   4.732  15.497  0.00  0.00    +0.000 C 
ATOM     12  O   UNL     1       7.921   4.540  16.525  0.00  0.00    +0.000 OA
BRANCH  11  13
ATOM     13  O   UNL     1       7.795   5.483  14.498  0.00  0.00    +0.000 OA
ATOM     14  H   UNL     1       7.434   5.341  13.610  0.00  0.00    +0.000 HD
ENDBRANCH  11  13
ENDBRANCH  10  11
ENDBRANCH   1  10
TORSDOF 4
ENDMDL
MODEL 7
REMARK VINA RESULT:      -5.9      2.061      2.711
REMARK  Name = 
REMARK  4 active torsions:
REMARK  status: ('A' for Active; 'I' for Inactive)
REMARK    1  A    between atoms: C_2  and  C_3
REMARK    2  A    between atoms: C_2  and  C_11
REMARK    3  A    between atoms: C_3  and  C_4
REMARK    4  A    between atoms: C_11  and  O_13
REMARK                            x       y       z     vdW  Elec       q    Type
REMARK                         _______ _______ _______ _____ _____    ______ ____
ROOT
ATOM      1  C   UNL     1       3.758   4.554  17.505  0.00  0.00    +0.000 C 
ENDROOT
BRANCH   1   2
ATOM      2  C   UNL     1       2.912   4.141  18.692  0.00  0.00    +0.000 A 
ATOM      3  C   UNL     1       2.251   5.133  19.438  0.00  0.00    +0.000 A 
ATOM      4  C   UNL     1       1.390   4.788  20.482  0.00  0.00    +0.000 A 
ATOM      5  C   UNL     1       1.182   3.450  20.804  0.00  0.00    +0.000 A 
ATOM      6  C   UNL     1       1.855   2.454  20.099  0.00  0.00    +0.000 A 
ATOM      7  C   UNL     1       2.721   2.795  19.055  0.00  0.00    +0.000 A 
ATOM      8 CL   UNL     1       3.526   1.507  18.231  0.00  0.00    +0.000 Cl
ENDBRANCH   1   2
BRANCH   1  10
ATOM      9  C   UNL     1       5.166   6.652  17.240  0.00  0.00    +0.000 C 
ATOM     10  C   UNL     1       4.966   5.425  17.756  0.00  0.00    +0.000 C 
BRANCH  10  11
ATOM     11  C   UNL     1       6.090   4.885  18.580  0.00  0.00    +0.000 C 
ATOM     12  O   UNL     1       6.228   5.128  19.769  0.00  0.00    +0.000 OA
BRANCH  11  13
ATOM     13  O   UNL     1       6.977   4.116  17.917  0.00  0.00    +0.000 OA
ATOM     14  H   UNL     1       6.996   3.172  18.136  0.00  0.00    +0.000 HD
ENDBRANCH  11  13
ENDBRANCH  10  11
ENDBRANCH   1  10
TORSDOF 4
ENDMDL
MODEL 8
REMARK VINA RESULT:      -5.9      1.830      2.454
REMARK  Name = 
REMARK  4 active torsions:
REMARK  status: ('A' for Active; 'I' for Inactive)
REMARK    1  A    between atoms: C_2  and  C_3
REMARK    2  A    between atoms: C_2  and  C_11
REMARK    3  A    between atoms: C_3  and  C_4
REMARK    4  A    between atoms: C_11  and  O_13
REMARK                            x       y       z     vdW  Elec       q    Type
REMARK                         _______ _______ _______ _____ _____    ______ ____
ROOT
ATOM      1  C   UNL     1       5.206   3.981  19.004  0.00  0.00    +0.000 C 
ENDROOT
BRANCH   1   2
ATOM      2  C   UNL     1       3.748   3.912  19.411  0.00  0.00    +0.000 A 
ATOM      3  C   UNL     1       3.159   5.029  20.029  0.00  0.00    +0.000 A 
ATOM      4  C   UNL     1       1.797   5.041  20.336  0.00  0.00    +0.000 A 
ATOM      5  C   UNL     1       1.003   3.936  20.040  0.00  0.00    +0.000 A 
ATOM      6  C   UNL     1       1.576   2.807  19.459  0.00  0.00    +0.000 A 
ATOM      7  C   UNL     1       2.940   2.790  19.153  0.00  0.00    +0.000 A 
ATOM      8 CL   UNL     1       3.582   1.352  18.441  0.00  0.00    +0.000 Cl
ENDBRANCH   1   2
BRANCH   1  10
ATOM      9  C   UNL     1       4.645   4.777  16.659  0.00  0.00    +0.000 C 
ATOM     10  C   UNL     1       5.540   4.478  17.618  0.00  0.00    +0.000 C 
BRANCH  10  11
ATOM     11  C   UNL     1       6.975   4.590  17.214  0.00  0.00    +0.000 C 
ATOM     12  O   UNL     1       7.333   4.942  16.101  0.00  0.00    +0.000 OA
BRANCH  11  13
ATOM     13  O   UNL     1       7.872   4.251  18.162  0.00  0.00    +0.000 OA
ATOM     14  H   UNL     1       7.526   4.004  19.033  0.00  0.00    +0.000 HD
ENDBRANCH  11  13
ENDBRANCH  10  11
ENDBRANCH   1  10
TORSDOF 4
ENDMDL
MODEL 9
REMARK VINA RESULT:      -5.9      0.707      1.096
REMARK  Name = 
REMARK  4 active torsions:
REMARK  status: ('A' for Active; 'I' for Inactive)
REMARK    1  A    between atoms: C_2  and  C_3
REMARK    2  A    between atoms: C_2  and  C_11
REMARK    3  A    between atoms: C_3  and  C_4
REMARK    4  A    between atoms: C_11  and  O_13
REMARK                            x       y       z     vdW  Elec       q    Type
REMARK                         _______ _______ _______ _____ _____    ______ ____
ROOT
ATOM      1  C   UNL     1       4.666   5.401  17.182  0.00  0.00    +0.000 C 
ENDROOT
BRANCH   1   2
ATOM      2  C   UNL     1       3.514   4.538  17.654  0.00  0.00    +0.000 A 
ATOM      3  C   UNL     1       3.449   3.197  17.234  0.00  0.00    +0.000 A 
ATOM      4  C   UNL     1       2.455   2.344  17.718  0.00  0.00    +0.000 A 
ATOM      5  C   UNL     1       1.506   2.816  18.621  0.00  0.00    +0.000 A 
ATOM      6  C   UNL     1       1.534   4.150  19.021  0.00  0.00    +0.000 A 
ATOM      7  C   UNL     1       2.525   5.009  18.537  0.00  0.00    +0.000 A 
ATOM      8 CL   UNL     1       2.492   6.651  19.073  0.00  0.00    +0.000 Cl
ENDBRANCH   1   2
BRANCH   1  10
ATOM      9  C   UNL     1       6.225   5.341  19.187  0.00  0.00    +0.000 C 
ATOM     10  C   UNL     1       6.005   5.242  17.863  0.00  0.00    +0.000 C 
BRANCH  10  11
ATOM     11  C   UNL     1       7.224   5.031  17.024  0.00  0.00    +0.000 C 
ATOM     12  O   UNL     1       8.078   4.195  17.279  0.00  0.00    +0.000 OA
BRANCH  11  13
ATOM     13  O   UNL     1       7.344   5.849  15.960  0.00  0.00    +0.000 OA
ATOM     14  H   UNL     1       6.602   6.444  15.770  0.00  0.00    +0.000 HD
ENDBRANCH  11  13
ENDBRANCH  10  11
ENDBRANCH   1  10
TORSDOF 4
ENDMDL
