MODEL 1
REMARK VINA RESULT:      -7.5      0.000      0.000
REMARK  Name = 
REMARK  12 active torsions:
REMARK  status: ('A' for Active; 'I' for Inactive)
REMARK    1  A    between atoms: C_1  and  C_2
REMARK    2  A    between atoms: C_2  and  C_3
REMARK    3  A    between atoms: C_2  and  C_4
REMARK    4  A    between atoms: C_2  and  C_6
REMARK    5  A    between atoms: C_4  and  O_5
REMARK    6  A    between atoms: C_6  and  O_7
REMARK    7  A    between atoms: C_6  and  C_8
REMARK    8  A    between atoms: N_10  and  C_11
REMARK    9  A    between atoms: C_11  and  C_12
REMARK   10  A    between atoms: C_12  and  C_13
REMARK   11  A    between atoms: N_15  and  C_16
REMARK   12  A    between atoms: C_16  and  C_17
REMARK                            x       y       z     vdW  Elec       q    Type
REMARK                         _______ _______ _______ _____ _____    ______ ____
ROOT
ATOM      1  C   UNL     1       5.082   4.526  18.896  0.00  0.00    +0.000 C 
ATOM      2  O   UNL     1       4.683   5.664  18.645  0.00  0.00    +0.000 OA
ATOM      3  N   UNL     1       6.356   4.089  18.613  0.00  0.00    +0.000 N 
ATOM      4  H   UNL     1       6.615   3.138  18.861  0.00  0.00    +0.000 HD
ENDROOT
BRANCH   1   5
ATOM      5  C   UNL     1       4.155   3.488  19.566  0.00  0.00    +0.000 C 
BRANCH   5   7
ATOM      6  C   UNL     1       2.289   1.867  19.074  0.00  0.00    +0.000 C 
ATOM      7  C   UNL     1       2.803   3.303  18.820  0.00  0.00    +0.000 C 
ATOM      8  C   UNL     1       2.972   3.470  17.296  0.00  0.00    +0.000 C 
BRANCH   7   9
ATOM      9  C   UNL     1       1.752   4.315  19.314  0.00  0.00    +0.000 C 
BRANCH   9  10
ATOM     10  O   UNL     1       0.737   3.671  20.077  0.00  0.00    +0.000 OA
ATOM     11  H   UNL     1       0.362   2.965  19.519  0.00  0.00    +0.000 HD
ENDBRANCH   9  10
ENDBRANCH   7   9
ENDBRANCH   5   7
BRANCH   5  12
ATOM     12  O   UNL     1       4.842   2.233  19.647  0.00  0.00    +0.000 OA
ATOM     13  H   UNL     1       5.781   2.452  19.817  0.00  0.00    +0.000 HD
ENDBRANCH   5  12
ENDBRANCH   1   5
BRANCH   3  14
ATOM     14  C   UNL     1       7.326   4.925  17.925  0.00  0.00    +0.000 C 
BRANCH  14  15
ATOM     15  C   UNL     1       7.860   6.056  18.801  0.00  0.00    +0.000 C 
BRANCH  15  16
ATOM     16  C   UNL     1       7.830   7.369  18.046  0.00  0.00    +0.000 C 
ATOM     17  O   UNL     1       7.279   7.505  16.958  0.00  0.00    +0.000 OA
ATOM     18  N   UNL     1       8.503   8.393  18.671  0.00  0.00    +0.000 N 
ATOM     19  H   UNL     1       8.807   8.289  19.630  0.00  0.00    +0.000 HD
BRANCH  18  20
ATOM     20  C   UNL     1       8.520   9.734  18.113  0.00  0.00    +0.000 C 
BRANCH  20  21
ATOM     21  C   UNL     1       9.507  10.644  18.809  0.00  0.00    +0.000 A 
ATOM     22  C   UNL     1      10.519  11.274  18.078  0.00  0.00    +0.000 A 
ATOM     23  C   UNL     1      11.427  12.088  18.749  0.00  0.00    +0.000 A 
ATOM     24  C   UNL     1      11.306  12.255  20.122  0.00  0.00    +0.000 A 
ATOM     25  C   UNL     1      10.266  11.609  20.770  0.00  0.00    +0.000 A 
ATOM     26  N   UNL     1       9.363  10.819  20.148  0.00  0.00    +0.000 NA
ENDBRANCH  20  21
ENDBRANCH  18  20
ENDBRANCH  15  16
ENDBRANCH  14  15
ENDBRANCH   3  14
TORSDOF 10
ENDMDL
MODEL 2
REMARK VINA RESULT:      -7.2      1.167      1.540
REMARK  Name = 
REMARK  12 active torsions:
REMARK  status: ('A' for Active; 'I' for Inactive)
REMARK    1  A    between atoms: C_1  and  C_2
REMARK    2  A    between atoms: C_2  and  C_3
REMARK    3  A    between atoms: C_2  and  C_4
REMARK    4  A    between atoms: C_2  and  C_6
REMARK    5  A    between atoms: C_4  and  O_5
REMARK    6  A    between atoms: C_6  and  O_7
REMARK    7  A    between atoms: C_6  and  C_8
REMARK    8  A    between atoms: N_10  and  C_11
REMARK    9  A    between atoms: C_11  and  C_12
REMARK   10  A    between atoms: C_12  and  C_13
REMARK   11  A    between atoms: N_15  and  C_16
REMARK   12  A    between atoms: C_16  and  C_17
REMARK                            x       y       z     vdW  Elec       q    Type
REMARK                         _______ _______ _______ _____ _____    ______ ____
ROOT
ATOM      1  C   UNL     1       4.503   3.776  18.723  0.00  0.00    +0.000 C 
ATOM      2  O   UNL     1       4.458   3.029  17.745  0.00  0.00    +0.000 OA
ATOM      3  N   UNL     1       5.452   4.760  18.884  0.00  0.00    +0.000 N 
ATOM      4  H   UNL     1       5.417   5.344  19.714  0.00  0.00    +0.000 HD
ENDROOT
BRANCH   1   5
ATOM      5  C   UNL     1       3.469   3.656  19.864  0.00  0.00    +0.000 C 
BRANCH   5   7
ATOM      6  C   UNL     1       2.007   4.641  18.062  0.00  0.00    +0.000 C 
ATOM      7  C   UNL     1       2.002   3.833  19.381  0.00  0.00    +0.000 C 
ATOM      8  C   UNL     1       1.162   4.625  20.404  0.00  0.00    +0.000 C 
BRANCH   7   9
ATOM      9  C   UNL     1       1.327   2.469  19.139  0.00  0.00    +0.000 C 
BRANCH   9  10
ATOM     10  O   UNL     1       1.936   1.780  18.051  0.00  0.00    +0.000 OA
ATOM     11  H   UNL     1       2.357   2.452  17.485  0.00  0.00    +0.000 HD
ENDBRANCH   9  10
ENDBRANCH   7   9
ENDBRANCH   5   7
BRANCH   5  12
ATOM     12  O   UNL     1       3.622   2.382  20.500  0.00  0.00    +0.000 OA
ATOM     13  H   UNL     1       4.439   1.993  20.129  0.00  0.00    +0.000 HD
ENDBRANCH   5  12
ENDBRANCH   1   5
BRANCH   3  14
ATOM     14  C   UNL     1       6.532   4.957  17.930  0.00  0.00    +0.000 C 
BRANCH  14  15
ATOM     15  C   UNL     1       7.623   5.886  18.456  0.00  0.00    +0.000 C 
BRANCH  15  16
ATOM     16  C   UNL     1       7.524   7.245  17.794  0.00  0.00    +0.000 C 
ATOM     17  O   UNL     1       6.823   7.463  16.809  0.00  0.00    +0.000 OA
ATOM     18  N   UNL     1       8.311   8.212  18.374  0.00  0.00    +0.000 N 
ATOM     19  H   UNL     1       8.749   8.040  19.269  0.00  0.00    +0.000 HD
BRANCH  18  20
ATOM     20  C   UNL     1       8.288   9.586  17.902  0.00  0.00    +0.000 C 
BRANCH  20  21
ATOM     21  C   UNL     1       9.304  10.461  18.599  0.00  0.00    +0.000 A 
ATOM     22  C   UNL     1      10.334  11.063  17.869  0.00  0.00    +0.000 A 
ATOM     23  C   UNL     1      11.269  11.844  18.542  0.00  0.00    +0.000 A 
ATOM     24  C   UNL     1      11.155  12.009  19.916  0.00  0.00    +0.000 A 
ATOM     25  C   UNL     1      10.097  11.393  20.563  0.00  0.00    +0.000 A 
ATOM     26  N   UNL     1       9.168  10.634  19.939  0.00  0.00    +0.000 NA
ENDBRANCH  20  21
ENDBRANCH  18  20
ENDBRANCH  15  16
ENDBRANCH  14  15
ENDBRANCH   3  14
TORSDOF 10
ENDMDL
MODEL 3
REMARK VINA RESULT:      -7.1      4.210      6.857
REMARK  Name = 
REMARK  12 active torsions:
REMARK  status: ('A' for Active; 'I' for Inactive)
REMARK    1  A    between atoms: C_1  and  C_2
REMARK    2  A    between atoms: C_2  and  C_3
REMARK    3  A    between atoms: C_2  and  C_4
REMARK    4  A    between atoms: C_2  and  C_6
REMARK    5  A    between atoms: C_4  and  O_5
REMARK    6  A    between atoms: C_6  and  O_7
REMARK    7  A    between atoms: C_6  and  C_8
REMARK    8  A    between atoms: N_10  and  C_11
REMARK    9  A    between atoms: C_11  and  C_12
REMARK   10  A    between atoms: C_12  and  C_13
REMARK   11  A    between atoms: N_15  and  C_16
REMARK   12  A    between atoms: C_16  and  C_17
REMARK                            x       y       z     vdW  Elec       q    Type
REMARK                         _______ _______ _______ _____ _____    ______ ____
ROOT
ATOM      1  C   UNL     1       5.722   4.330  18.687  0.00  0.00    +0.000 C 
ATOM      2  O   UNL     1       5.548   5.363  19.332  0.00  0.00    +0.000 OA
ATOM      3  N   UNL     1       5.098   3.139  18.979  0.00  0.00    +0.000 N 
ATOM      4  H   UNL     1       5.284   2.330  18.392  0.00  0.00    +0.000 HD
ENDROOT
BRANCH   1   5
ATOM      5  C   UNL     1       6.675   4.302  17.471  0.00  0.00    +0.000 C 
BRANCH   5   7
ATOM      6  C   UNL     1       7.099   6.682  16.760  0.00  0.00    +0.000 C 
ATOM      7  C   UNL     1       6.339   5.383  16.405  0.00  0.00    +0.000 C 
ATOM      8  C   UNL     1       4.833   5.717  16.394  0.00  0.00    +0.000 C 
BRANCH   7   9
ATOM      9  C   UNL     1       6.752   4.921  14.995  0.00  0.00    +0.000 C 
BRANCH   9  10
ATOM     10  O   UNL     1       7.940   5.580  14.565  0.00  0.00    +0.000 OA
ATOM     11  H   UNL     1       8.664   4.930  14.619  0.00  0.00    +0.000 HD
ENDBRANCH   9  10
ENDBRANCH   7   9
ENDBRANCH   5   7
BRANCH   5  12
ATOM     12  O   UNL     1       8.021   4.471  17.930  0.00  0.00    +0.000 OA
ATOM     13  H   UNL     1       8.127   3.859  18.685  0.00  0.00    +0.000 HD
ENDBRANCH   5  12
ENDBRANCH   1   5
BRANCH   3  14
ATOM     14  C   UNL     1       4.223   2.985  20.130  0.00  0.00    +0.000 C 
BRANCH  14  15
ATOM     15  C   UNL     1       2.757   2.815  19.740  0.00  0.00    +0.000 C 
BRANCH  15  16
ATOM     16  C   UNL     1       1.946   4.010  20.199  0.00  0.00    +0.000 C 
ATOM     17  O   UNL     1       0.725   3.986  20.322  0.00  0.00    +0.000 OA
ATOM     18  N   UNL     1       2.694   5.139  20.439  0.00  0.00    +0.000 N 
ATOM     19  H   UNL     1       3.703   5.080  20.480  0.00  0.00    +0.000 HD
BRANCH  18  20
ATOM     20  C   UNL     1       2.082   6.355  20.944  0.00  0.00    +0.000 C 
BRANCH  20  21
ATOM     21  C   UNL     1       1.971   7.436  19.893  0.00  0.00    +0.000 A 
ATOM     22  C   UNL     1       2.575   7.266  18.643  0.00  0.00    +0.000 A 
ATOM     23  C   UNL     1       2.477   8.288  17.703  0.00  0.00    +0.000 A 
ATOM     24  C   UNL     1       1.783   9.447  18.028  0.00  0.00    +0.000 A 
ATOM     25  C   UNL     1       1.200   9.531  19.282  0.00  0.00    +0.000 A 
ATOM     26  N   UNL     1       1.271   8.554  20.214  0.00  0.00    +0.000 NA
ENDBRANCH  20  21
ENDBRANCH  18  20
ENDBRANCH  15  16
ENDBRANCH  14  15
ENDBRANCH   3  14
TORSDOF 10
ENDMDL
MODEL 4
REMARK VINA RESULT:      -7.0      1.383      2.319
REMARK  Name = 
REMARK  12 active torsions:
REMARK  status: ('A' for Active; 'I' for Inactive)
REMARK    1  A    between atoms: C_1  and  C_2
REMARK    2  A    between atoms: C_2  and  C_3
REMARK    3  A    between atoms: C_2  and  C_4
REMARK    4  A    between atoms: C_2  and  C_6
REMARK    5  A    between atoms: C_4  and  O_5
REMARK    6  A    between atoms: C_6  and  O_7
REMARK    7  A    between atoms: C_6  and  C_8
REMARK    8  A    between atoms: N_10  and  C_11
REMARK    9  A    between atoms: C_11  and  C_12
REMARK   10  A    between atoms: C_12  and  C_13
REMARK   11  A    between atoms: N_15  and  C_16
REMARK   12  A    between atoms: C_16  and  C_17
REMARK                            x       y       z     vdW  Elec       q    Type
REMARK                         _______ _______ _______ _____ _____    ______ ____
ROOT
ATOM      1  C   UNL     1       4.940   4.465  19.457  0.00  0.00    +0.000 C 
ATOM      2  O   UNL     1       5.411   3.329  19.497  0.00  0.00    +0.000 OA
ATOM      3  N   UNL     1       5.709   5.605  19.424  0.00  0.00    +0.000 N 
ATOM      4  H   UNL     1       5.246   6.509  19.381  0.00  0.00    +0.000 HD
ENDROOT
BRANCH   1   5
ATOM      5  C   UNL     1       3.412   4.692  19.438  0.00  0.00    +0.000 C 
BRANCH   5   7
ATOM      6  C   UNL     1       2.582   6.527  17.922  0.00  0.00    +0.000 C 
ATOM      7  C   UNL     1       2.857   5.008  18.020  0.00  0.00    +0.000 C 
ATOM      8  C   UNL     1       1.523   4.279  17.760  0.00  0.00    +0.000 C 
BRANCH   7   9
ATOM      9  C   UNL     1       3.862   4.601  16.926  0.00  0.00    +0.000 C 
BRANCH   9  10
ATOM     10  O   UNL     1       4.612   5.725  16.473  0.00  0.00    +0.000 OA
ATOM     11  H   UNL     1       5.033   5.469  15.632  0.00  0.00    +0.000 HD
ENDBRANCH   9  10
ENDBRANCH   7   9
ENDBRANCH   5   7
BRANCH   5  12
ATOM     12  O   UNL     1       2.762   3.530  19.968  0.00  0.00    +0.000 OA
ATOM     13  H   UNL     1       1.889   3.833  20.288  0.00  0.00    +0.000 HD
ENDBRANCH   5  12
ENDBRANCH   1   5
BRANCH   3  14
ATOM     14  C   UNL     1       7.160   5.563  19.502  0.00  0.00    +0.000 C 
BRANCH  14  15
ATOM     15  C   UNL     1       7.834   5.891  18.172  0.00  0.00    +0.000 C 
BRANCH  15  16
ATOM     16  C   UNL     1       7.539   7.322  17.769  0.00  0.00    +0.000 C 
ATOM     17  O   UNL     1       6.618   7.631  17.019  0.00  0.00    +0.000 OA
ATOM     18  N   UNL     1       8.413   8.245  18.292  0.00  0.00    +0.000 N 
ATOM     19  H   UNL     1       9.057   7.976  19.024  0.00  0.00    +0.000 HD
BRANCH  18  20
ATOM     20  C   UNL     1       8.237   9.667  18.055  0.00  0.00    +0.000 C 
BRANCH  20  21
ATOM     21  C   UNL     1       9.333  10.504  18.675  0.00  0.00    +0.000 A 
ATOM     22  C   UNL     1       9.338  10.751  20.051  0.00  0.00    +0.000 A 
ATOM     23  C   UNL     1      10.345  11.545  20.590  0.00  0.00    +0.000 A 
ATOM     24  C   UNL     1      11.321  12.069  19.752  0.00  0.00    +0.000 A 
ATOM     25  C   UNL     1      11.255  11.765  18.402  0.00  0.00    +0.000 A 
ATOM     26  N   UNL     1      10.294  10.991  17.848  0.00  0.00    +0.000 NA
ENDBRANCH  20  21
ENDBRANCH  18  20
ENDBRANCH  15  16
ENDBRANCH  14  15
ENDBRANCH   3  14
TORSDOF 10
ENDMDL
MODEL 5
REMARK VINA RESULT:      -6.9      4.367      6.091
REMARK  Name = 
REMARK  12 active torsions:
REMARK  status: ('A' for Active; 'I' for Inactive)
REMARK    1  A    between atoms: C_1  and  C_2
REMARK    2  A    between atoms: C_2  and  C_3
REMARK    3  A    between atoms: C_2  and  C_4
REMARK    4  A    between atoms: C_2  and  C_6
REMARK    5  A    between atoms: C_4  and  O_5
REMARK    6  A    between atoms: C_6  and  O_7
REMARK    7  A    between atoms: C_6  and  C_8
REMARK    8  A    between atoms: N_10  and  C_11
REMARK    9  A    between atoms: C_11  and  C_12
REMARK   10  A    between atoms: C_12  and  C_13
REMARK   11  A    between atoms: N_15  and  C_16
REMARK   12  A    between atoms: C_16  and  C_17
REMARK                            x       y       z     vdW  Elec       q    Type
REMARK                         _______ _______ _______ _____ _____    ______ ____
ROOT
ATOM      1  C   UNL     1       2.965   5.006  18.577  0.00  0.00    +0.000 C 
ATOM      2  O   UNL     1       2.955   4.432  17.488  0.00  0.00    +0.000 OA
ATOM      3  N   UNL     1       3.839   6.021  18.891  0.00  0.00    +0.000 N 
ATOM      4  H   UNL     1       3.778   6.455  19.807  0.00  0.00    +0.000 HD
ENDROOT
BRANCH   1   5
ATOM      5  C   UNL     1       1.968   4.617  19.691  0.00  0.00    +0.000 C 
BRANCH   5   7
ATOM      6  C   UNL     1       0.695   2.575  18.942  0.00  0.00    +0.000 C 
ATOM      7  C   UNL     1       1.822   3.080  19.872  0.00  0.00    +0.000 C 
ATOM      8  C   UNL     1       1.424   2.718  21.318  0.00  0.00    +0.000 C 
BRANCH   7   9
ATOM      9  C   UNL     1       3.134   2.352  19.524  0.00  0.00    +0.000 C 
BRANCH   9  10
ATOM     10  O   UNL     1       2.952   1.461  18.427  0.00  0.00    +0.000 OA
ATOM     11  H   UNL     1       3.663   1.645  17.787  0.00  0.00    +0.000 HD
ENDBRANCH   9  10
ENDBRANCH   7   9
ENDBRANCH   5   7
BRANCH   5  12
ATOM     12  O   UNL     1       2.388   5.216  20.922  0.00  0.00    +0.000 OA
ATOM     13  H   UNL     1       3.181   5.747  20.706  0.00  0.00    +0.000 HD
ENDBRANCH   5  12
ENDBRANCH   1   5
BRANCH   3  14
ATOM     14  C   UNL     1       4.879   6.458  17.974  0.00  0.00    +0.000 C 
BRANCH  14  15
ATOM     15  C   UNL     1       6.268   5.968  18.377  0.00  0.00    +0.000 C 
BRANCH  15  16
ATOM     16  C   UNL     1       6.751   4.901  17.415  0.00  0.00    +0.000 C 
ATOM     17  O   UNL     1       7.861   4.383  17.489  0.00  0.00    +0.000 OA
ATOM     18  N   UNL     1       5.847   4.582  16.429  0.00  0.00    +0.000 N 
ATOM     19  H   UNL     1       4.893   4.910  16.490  0.00  0.00    +0.000 HD
BRANCH  18  20
ATOM     20  C   UNL     1       6.126   3.535  15.461  0.00  0.00    +0.000 C 
BRANCH  20  21
ATOM     21  C   UNL     1       6.637   4.075  14.145  0.00  0.00    +0.000 A 
ATOM     22  C   UNL     1       6.214   3.507  12.939  0.00  0.00    +0.000 A 
ATOM     23  C   UNL     1       6.719   4.009  11.743  0.00  0.00    +0.000 A 
ATOM     24  C   UNL     1       7.626   5.060  11.776  0.00  0.00    +0.000 A 
ATOM     25  C   UNL     1       7.983   5.578  13.010  0.00  0.00    +0.000 A 
ATOM     26  N   UNL     1       7.505   5.118  14.189  0.00  0.00    +0.000 NA
ENDBRANCH  20  21
ENDBRANCH  18  20
ENDBRANCH  15  16
ENDBRANCH  14  15
ENDBRANCH   3  14
TORSDOF 10
ENDMDL
MODEL 6
REMARK VINA RESULT:      -6.9      4.683      5.755
REMARK  Name = 
REMARK  12 active torsions:
REMARK  status: ('A' for Active; 'I' for Inactive)
REMARK    1  A    between atoms: C_1  and  C_2
REMARK    2  A    between atoms: C_2  and  C_3
REMARK    3  A    between atoms: C_2  and  C_4
REMARK    4  A    between atoms: C_2  and  C_6
REMARK    5  A    between atoms: C_4  and  O_5
REMARK    6  A    between atoms: C_6  and  O_7
REMARK    7  A    between atoms: C_6  and  C_8
REMARK    8  A    between atoms: N_10  and  C_11
REMARK    9  A    between atoms: C_11  and  C_12
REMARK   10  A    between atoms: C_12  and  C_13
REMARK   11  A    between atoms: N_15  and  C_16
REMARK   12  A    between atoms: C_16  and  C_17
REMARK                            x       y       z     vdW  Elec       q    Type
REMARK                         _______ _______ _______ _____ _____    ______ ____
ROOT
ATOM      1  C   UNL     1       4.192   2.869  18.907  0.00  0.00    +0.000 C 
ATOM      2  O   UNL     1       4.993   2.964  19.836  0.00  0.00    +0.000 OA
ATOM      3  N   UNL     1       4.401   3.423  17.665  0.00  0.00    +0.000 N 
ATOM      4  H   UNL     1       3.697   3.292  16.944  0.00  0.00    +0.000 HD
ENDROOT
BRANCH   1   5
ATOM      5  C   UNL     1       2.864   2.098  19.077  0.00  0.00    +0.000 C 
BRANCH   5   7
ATOM      6  C   UNL     1       0.423   2.723  19.039  0.00  0.00    +0.000 C 
ATOM      7  C   UNL     1       1.760   2.930  19.788  0.00  0.00    +0.000 C 
ATOM      8  C   UNL     1       2.080   4.439  19.754  0.00  0.00    +0.000 C 
BRANCH   7   9
ATOM      9  C   UNL     1       1.593   2.494  21.256  0.00  0.00    +0.000 C 
BRANCH   9  10
ATOM     10  O   UNL     1       2.834   2.545  21.953  0.00  0.00    +0.000 OA
ATOM     11  H   UNL     1       2.806   1.856  22.641  0.00  0.00    +0.000 HD
ENDBRANCH   9  10
ENDBRANCH   7   9
ENDBRANCH   5   7
BRANCH   5  12
ATOM     12  O   UNL     1       2.402   1.675  17.789  0.00  0.00    +0.000 OA
ATOM     13  H   UNL     1       2.378   2.480  17.234  0.00  0.00    +0.000 HD
ENDBRANCH   5  12
ENDBRANCH   1   5
BRANCH   3  14
ATOM     14  C   UNL     1       5.570   4.233  17.366  0.00  0.00    +0.000 C 
BRANCH  14  15
ATOM     15  C   UNL     1       5.552   5.584  18.076  0.00  0.00    +0.000 C 
BRANCH  15  16
ATOM     16  C   UNL     1       4.649   6.555  17.343  0.00  0.00    +0.000 C 
ATOM     17  O   UNL     1       4.800   6.852  16.162  0.00  0.00    +0.000 OA
ATOM     18  N   UNL     1       3.659   7.102  18.125  0.00  0.00    +0.000 N 
ATOM     19  H   UNL     1       3.467   6.720  19.042  0.00  0.00    +0.000 HD
BRANCH  18  20
ATOM     20  C   UNL     1       2.668   8.004  17.565  0.00  0.00    +0.000 C 
BRANCH  20  21
ATOM     21  C   UNL     1       1.780   8.626  18.618  0.00  0.00    +0.000 A 
ATOM     22  C   UNL     1       0.930   9.686  18.287  0.00  0.00    +0.000 A 
ATOM     23  C   UNL     1       0.142  10.255  19.282  0.00  0.00    +0.000 A 
ATOM     24  C   UNL     1       0.217   9.757  20.577  0.00  0.00    +0.000 A 
ATOM     25  C   UNL     1       1.071   8.695  20.821  0.00  0.00    +0.000 A 
ATOM     26  N   UNL     1       1.845   8.115  19.875  0.00  0.00    +0.000 NA
ENDBRANCH  20  21
ENDBRANCH  18  20
ENDBRANCH  15  16
ENDBRANCH  14  15
ENDBRANCH   3  14
TORSDOF 10
ENDMDL
MODEL 7
REMARK VINA RESULT:      -6.9      4.650      6.170
REMARK  Name = 
REMARK  12 active torsions:
REMARK  status: ('A' for Active; 'I' for Inactive)
REMARK    1  A    between atoms: C_1  and  C_2
REMARK    2  A    between atoms: C_2  and  C_3
REMARK    3  A    between atoms: C_2  and  C_4
REMARK    4  A    between atoms: C_2  and  C_6
REMARK    5  A    between atoms: C_4  and  O_5
REMARK    6  A    between atoms: C_6  and  O_7
REMARK    7  A    between atoms: C_6  and  C_8
REMARK    8  A    between atoms: N_10  and  C_11
REMARK    9  A    between atoms: C_11  and  C_12
REMARK   10  A    between atoms: C_12  and  C_13
REMARK   11  A    between atoms: N_15  and  C_16
REMARK   12  A    between atoms: C_16  and  C_17
REMARK                            x       y       z     vdW  Elec       q    Type
REMARK                         _______ _______ _______ _____ _____    ______ ____
ROOT
ATOM      1  C   UNL     1       1.986   5.255  19.548  0.00  0.00    +0.000 C 
ATOM      2  O   UNL     1       2.034   5.768  20.666  0.00  0.00    +0.000 OA
ATOM      3  N   UNL     1       2.337   5.917  18.394  0.00  0.00    +0.000 N 
ATOM      4  H   UNL     1       2.281   5.422  17.508  0.00  0.00    +0.000 HD
ENDROOT
BRANCH   1   5
ATOM      5  C   UNL     1       1.518   3.794  19.362  0.00  0.00    +0.000 C 
BRANCH   5   7
ATOM      6  C   UNL     1       3.962   3.434  19.862  0.00  0.00    +0.000 C 
ATOM      7  C   UNL     1       2.575   2.750  19.819  0.00  0.00    +0.000 C 
ATOM      8  C   UNL     1       2.671   1.573  18.828  0.00  0.00    +0.000 C 
BRANCH   7   9
ATOM      9  C   UNL     1       2.240   2.193  21.216  0.00  0.00    +0.000 C 
BRANCH   9  10
ATOM     10  O   UNL     1       2.308   3.214  22.207  0.00  0.00    +0.000 OA
ATOM     11  H   UNL     1       1.404   3.346  22.547  0.00  0.00    +0.000 HD
ENDBRANCH   9  10
ENDBRANCH   7   9
ENDBRANCH   5   7
BRANCH   5  12
ATOM     12  O   UNL     1       0.297   3.601  20.086  0.00  0.00    +0.000 OA
ATOM     13  H   UNL     1      -0.184   2.889  19.616  0.00  0.00    +0.000 HD
ENDBRANCH   5  12
ENDBRANCH   1   5
BRANCH   3  14
ATOM     14  C   UNL     1       2.735   7.315  18.394  0.00  0.00    +0.000 C 
BRANCH  14  15
ATOM     15  C   UNL     1       3.768   7.636  17.317  0.00  0.00    +0.000 C 
BRANCH  15  16
ATOM     16  C   UNL     1       4.907   6.637  17.361  0.00  0.00    +0.000 C 
ATOM     17  O   UNL     1       5.285   6.096  18.396  0.00  0.00    +0.000 OA
ATOM     18  N   UNL     1       5.503   6.410  16.143  0.00  0.00    +0.000 N 
ATOM     19  H   UNL     1       5.069   6.749  15.295  0.00  0.00    +0.000 HD
BRANCH  18  20
ATOM     20  C   UNL     1       6.569   5.435  15.997  0.00  0.00    +0.000 C 
BRANCH  20  21
ATOM     21  C   UNL     1       6.727   4.948  14.574  0.00  0.00    +0.000 A 
ATOM     22  C   UNL     1       5.877   3.959  14.070  0.00  0.00    +0.000 A 
ATOM     23  C   UNL     1       6.061   3.513  12.765  0.00  0.00    +0.000 A 
ATOM     24  C   UNL     1       7.079   4.061  11.996  0.00  0.00    +0.000 A 
ATOM     25  C   UNL     1       7.868   5.048  12.563  0.00  0.00    +0.000 A 
ATOM     26  N   UNL     1       7.711   5.509  13.825  0.00  0.00    +0.000 NA
ENDBRANCH  20  21
ENDBRANCH  18  20
ENDBRANCH  15  16
ENDBRANCH  14  15
ENDBRANCH   3  14
TORSDOF 10
ENDMDL
MODEL 8
REMARK VINA RESULT:      -6.9      3.788      6.973
REMARK  Name = 
REMARK  12 active torsions:
REMARK  status: ('A' for Active; 'I' for Inactive)
REMARK    1  A    between atoms: C_1  and  C_2
REMARK    2  A    between atoms: C_2  and  C_3
REMARK    3  A    between atoms: C_2  and  C_4
REMARK    4  A    between atoms: C_2  and  C_6
REMARK    5  A    between atoms: C_4  and  O_5
REMARK    6  A    between atoms: C_6  and  O_7
REMARK    7  A    between atoms: C_6  and  C_8
REMARK    8  A    between atoms: N_10  and  C_11
REMARK    9  A    between atoms: C_11  and  C_12
REMARK   10  A    between atoms: C_12  and  C_13
REMARK   11  A    between atoms: N_15  and  C_16
REMARK   12  A    between atoms: C_16  and  C_17
REMARK                            x       y       z     vdW  Elec       q    Type
REMARK                         _______ _______ _______ _____ _____    ______ ____
ROOT
ATOM      1  C   UNL     1       5.734   4.322  16.694  0.00  0.00    +0.000 C 
ATOM      2  O   UNL     1       5.066   4.412  15.664  0.00  0.00    +0.000 OA
ATOM      3  N   UNL     1       5.344   3.589  17.791  0.00  0.00    +0.000 N 
ATOM      4  H   UNL     1       5.956   3.553  18.601  0.00  0.00    +0.000 HD
ENDROOT
BRANCH   1   5
ATOM      5  C   UNL     1       7.095   5.042  16.824  0.00  0.00    +0.000 C 
BRANCH   5   7
ATOM      6  C   UNL     1       5.579   6.621  18.074  0.00  0.00    +0.000 C 
ATOM      7  C   UNL     1       7.056   6.252  17.800  0.00  0.00    +0.000 C 
ATOM      8  C   UNL     1       7.735   7.494  17.187  0.00  0.00    +0.000 C 
BRANCH   7   9
ATOM      9  C   UNL     1       7.752   5.916  19.132  0.00  0.00    +0.000 C 
BRANCH   9  10
ATOM     10  O   UNL     1       6.926   5.093  19.951  0.00  0.00    +0.000 OA
ATOM     11  H   UNL     1       6.195   5.651  20.274  0.00  0.00    +0.000 HD
ENDBRANCH   9  10
ENDBRANCH   7   9
ENDBRANCH   5   7
BRANCH   5  12
ATOM     12  O   UNL     1       8.082   4.099  17.258  0.00  0.00    +0.000 OA
ATOM     13  H   UNL     1       8.290   3.549  16.476  0.00  0.00    +0.000 HD
ENDBRANCH   5  12
ENDBRANCH   1   5
BRANCH   3  14
ATOM     14  C   UNL     1       4.061   2.907  17.849  0.00  0.00    +0.000 C 
BRANCH  14  15
ATOM     15  C   UNL     1       3.818   2.217  19.189  0.00  0.00    +0.000 C 
BRANCH  15  16
ATOM     16  C   UNL     1       2.798   2.987  20.003  0.00  0.00    +0.000 C 
ATOM     17  O   UNL     1       1.908   2.444  20.652  0.00  0.00    +0.000 OA
ATOM     18  N   UNL     1       2.935   4.353  19.929  0.00  0.00    +0.000 N 
ATOM     19  H   UNL     1       3.765   4.758  19.517  0.00  0.00    +0.000 HD
BRANCH  18  20
ATOM     20  C   UNL     1       2.078   5.239  20.697  0.00  0.00    +0.000 C 
BRANCH  20  21
ATOM     21  C   UNL     1       1.929   6.604  20.064  0.00  0.00    +0.000 A 
ATOM     22  C   UNL     1       1.388   7.665  20.798  0.00  0.00    +0.000 A 
ATOM     23  C   UNL     1       1.241   8.903  20.181  0.00  0.00    +0.000 A 
ATOM     24  C   UNL     1       1.633   9.057  18.858  0.00  0.00    +0.000 A 
ATOM     25  C   UNL     1       2.174   7.961  18.206  0.00  0.00    +0.000 A 
ATOM     26  N   UNL     1       2.338   6.746  18.777  0.00  0.00    +0.000 NA
ENDBRANCH  20  21
ENDBRANCH  18  20
ENDBRANCH  15  16
ENDBRANCH  14  15
ENDBRANCH   3  14
TORSDOF 10
ENDMDL
MODEL 9
REMARK VINA RESULT:      -6.8      4.758      6.729
REMARK  Name = 
REMARK  12 active torsions:
REMARK  status: ('A' for Active; 'I' for Inactive)
REMARK    1  A    between atoms: C_1  and  C_2
REMARK    2  A    between atoms: C_2  and  C_3
REMARK    3  A    between atoms: C_2  and  C_4
REMARK    4  A    between atoms: C_2  and  C_6
REMARK    5  A    between atoms: C_4  and  O_5
REMARK    6  A    between atoms: C_6  and  O_7
REMARK    7  A    between atoms: C_6  and  C_8
REMARK    8  A    between atoms: N_10  and  C_11
REMARK    9  A    between atoms: C_11  and  C_12
REMARK   10  A    between atoms: C_12  and  C_13
REMARK   11  A    between atoms: N_15  and  C_16
REMARK   12  A    between atoms: C_16  and  C_17
REMARK                            x       y       z     vdW  Elec       q    Type
REMARK                         _______ _______ _______ _____ _____    ______ ____
ROOT
ATOM      1  C   UNL     1       5.701   4.332  18.900  0.00  0.00    +0.000 C 
ATOM      2  O   UNL     1       5.376   5.230  19.676  0.00  0.00    +0.000 OA
ATOM      3  N   UNL     1       5.251   3.036  19.009  0.00  0.00    +0.000 N 
ATOM      4  H   UNL     1       5.555   2.352  18.322  0.00  0.00    +0.000 HD
ENDROOT
BRANCH   1   5
ATOM      5  C   UNL     1       6.658   4.607  17.719  0.00  0.00    +0.000 C 
BRANCH   5   7
ATOM      6  C   UNL     1       4.420   5.079  16.660  0.00  0.00    +0.000 C 
ATOM      7  C   UNL     1       5.918   4.827  16.370  0.00  0.00    +0.000 C 
ATOM      8  C   UNL     1       6.010   3.581  15.465  0.00  0.00    +0.000 C 
BRANCH   7   9
ATOM      9  C   UNL     1       6.498   6.034  15.607  0.00  0.00    +0.000 C 
BRANCH   9  10
ATOM     10  O   UNL     1       7.694   5.681  14.918  0.00  0.00    +0.000 OA
ATOM     11  H   UNL     1       8.435   5.835  15.532  0.00  0.00    +0.000 HD
ENDBRANCH   9  10
ENDBRANCH   7   9
ENDBRANCH   5   7
BRANCH   5  12
ATOM     12  O   UNL     1       7.460   5.754  18.028  0.00  0.00    +0.000 OA
ATOM     13  H   UNL     1       6.832   6.485  18.191  0.00  0.00    +0.000 HD
ENDBRANCH   5  12
ENDBRANCH   1   5
BRANCH   3  14
ATOM     14  C   UNL     1       4.396   2.602  20.102  0.00  0.00    +0.000 C 
BRANCH  14  15
ATOM     15  C   UNL     1       2.911   2.778  19.799  0.00  0.00    +0.000 C 
BRANCH  15  16
ATOM     16  C   UNL     1       2.333   3.908  20.627  0.00  0.00    +0.000 C 
ATOM     17  O   UNL     1       1.817   3.738  21.728  0.00  0.00    +0.000 OA
ATOM     18  N   UNL     1       2.407   5.142  20.025  0.00  0.00    +0.000 N 
ATOM     19  H   UNL     1       2.973   5.269  19.196  0.00  0.00    +0.000 HD
BRANCH  18  20
ATOM     20  C   UNL     1       1.955   6.342  20.707  0.00  0.00    +0.000 C 
BRANCH  20  21
ATOM     21  C   UNL     1       1.855   7.537  19.786  0.00  0.00    +0.000 A 
ATOM     22  C   UNL     1       2.453   7.504  18.522  0.00  0.00    +0.000 A 
ATOM     23  C   UNL     1       2.365   8.627  17.706  0.00  0.00    +0.000 A 
ATOM     24  C   UNL     1       1.687   9.749  18.163  0.00  0.00    +0.000 A 
ATOM     25  C   UNL     1       1.109   9.697  19.420  0.00  0.00    +0.000 A 
ATOM     26  N   UNL     1       1.169   8.619  20.235  0.00  0.00    +0.000 NA
ENDBRANCH  20  21
ENDBRANCH  18  20
ENDBRANCH  15  16
ENDBRANCH  14  15
ENDBRANCH   3  14
TORSDOF 10
ENDMDL
