MODEL 1
REMARK VINA RESULT:      -6.7      0.000      0.000
REMARK  Name = 
REMARK  9 active torsions:
REMARK  status: ('A' for Active; 'I' for Inactive)
REMARK    1  A    between atoms: C_2  and  C_3
REMARK    2  A    between atoms: C_4  and  C_5
REMARK    3  A    between atoms: C_13  and  C_14
REMARK    4  A    between atoms: C_20  and  S_21
REMARK    5  A    between atoms: S_21  and  C_22
REMARK    6  A    between atoms: C_22  and  C_23
REMARK    7  A    between atoms: N_25  and  C_26
REMARK    8  A    between atoms: C_26  and  C_27
REMARK    9  A    between atoms: C_27  and  O_29
REMARK                            x       y       z     vdW  Elec       q    Type
REMARK                         _______ _______ _______ _____ _____    ______ ____
ROOT
ATOM      1  C   UNL     1       2.462   8.214  18.696  0.00  0.00    +0.000 A 
ATOM      2  C   UNL     1       1.751   7.988  19.903  0.00  0.00    +0.000 A 
ATOM      3  C   UNL     1       1.881   6.715  20.492  0.00  0.00    +0.000 A 
ATOM      4  C   UNL     1       2.637   5.726  19.881  0.00  0.00    +0.000 A 
ATOM      5  N   UNL     1       3.257   5.920  18.691  0.00  0.00    +0.000 NA
ATOM      6  C   UNL     1       3.182   7.155  18.121  0.00  0.00    +0.000 A 
ENDROOT
BRANCH   2   7
ATOM      7  C   UNL     1       0.883   8.998  20.577  0.00  0.00    +0.000 A 
ATOM      8  C   UNL     1       0.913   9.208  21.969  0.00  0.00    +0.000 A 
ATOM      9  C   UNL     1       0.007  10.059  22.605  0.00  0.00    +0.000 A 
ATOM     10  C   UNL     1      -0.886  10.794  21.843  0.00  0.00    +0.000 A 
ATOM     11  F   UNL     1      -1.755  11.614  22.448  0.00  0.00    +0.000 F 
ATOM     12  C   UNL     1      -0.883  10.697  20.462  0.00  0.00    +0.000 A 
ATOM     13  C   UNL     1      -0.014   9.797  19.837  0.00  0.00    +0.000 A 
ENDBRANCH   2   7
BRANCH   4  14
ATOM     14  C   UNL     1       2.681   4.340  20.367  0.00  0.00    +0.000 A 
ATOM     15  C   UNL     1       1.914   3.740  21.349  0.00  0.00    +0.000 A 
ATOM     16  C   UNL     1       2.302   2.389  21.603  0.00  0.00    +0.000 A 
ATOM     17  C   UNL     1       3.361   1.999  20.818  0.00  0.00    +0.000 A 
ATOM     18  S   UNL     1       3.865   3.241  19.766  0.00  0.00    +0.000 S 
ENDBRANCH   4  14
BRANCH   1  20
ATOM     19  N   UNL     1       2.469  10.553  17.563  0.00  0.00    +0.000 NA
ATOM     20  C   UNL     1       2.444   9.504  18.047  0.00  0.00    +0.000 C 
ENDBRANCH   1  20
BRANCH   6  21
ATOM     21  S   UNL     1       4.040   7.348  16.551  0.00  0.00    +0.000 S 
BRANCH  21  22
ATOM     22  C   UNL     1       4.669   5.674  16.193  0.00  0.00    +0.000 C 
BRANCH  22  23
ATOM     23  C   UNL     1       6.129   5.534  16.582  0.00  0.00    +0.000 C 
ATOM     24  O   UNL     1       7.047   5.940  15.876  0.00  0.00    +0.000 OA
ATOM     25  N   UNL     1       6.343   4.906  17.792  0.00  0.00    +0.000 N 
ATOM     26  H   UNL     1       5.531   4.684  18.368  0.00  0.00    +0.000 HD
BRANCH  25  27
ATOM     27  C   UNL     1       7.685   4.721  18.339  0.00  0.00    +0.000 C 
BRANCH  27  28
ATOM     28  C   UNL     1       8.088   5.852  19.284  0.00  0.00    +0.000 C 
ATOM     29  O   UNL     1       8.348   6.984  18.924  0.00  0.00    +0.000 OA
BRANCH  28  30
ATOM     30  O   UNL     1       8.135   5.474  20.578  0.00  0.00    +0.000 OA
ATOM     31  H   UNL     1       9.075   5.337  20.812  0.00  0.00    +0.000 HD
ENDBRANCH  28  30
ENDBRANCH  27  28
ENDBRANCH  25  27
ENDBRANCH  22  23
ENDBRANCH  21  22
ENDBRANCH   6  21
TORSDOF 9
ENDMDL
MODEL 2
REMARK VINA RESULT:      -6.5      6.848     10.213
REMARK  Name = 
REMARK  9 active torsions:
REMARK  status: ('A' for Active; 'I' for Inactive)
REMARK    1  A    between atoms: C_2  and  C_3
REMARK    2  A    between atoms: C_4  and  C_5
REMARK    3  A    between atoms: C_13  and  C_14
REMARK    4  A    between atoms: C_20  and  S_21
REMARK    5  A    between atoms: S_21  and  C_22
REMARK    6  A    between atoms: C_22  and  C_23
REMARK    7  A    between atoms: N_25  and  C_26
REMARK    8  A    between atoms: C_26  and  C_27
REMARK    9  A    between atoms: C_27  and  O_29
REMARK                            x       y       z     vdW  Elec       q    Type
REMARK                         _______ _______ _______ _____ _____    ______ ____
ROOT
ATOM      1  C   UNL     1       0.368   9.987  20.726  0.00  0.00    +0.000 A 
ATOM      2  C   UNL     1       0.549   9.376  19.458  0.00  0.00    +0.000 A 
ATOM      3  C   UNL     1      -0.368   9.721  18.446  0.00  0.00    +0.000 A 
ATOM      4  C   UNL     1      -1.419  10.586  18.708  0.00  0.00    +0.000 A 
ATOM      5  N   UNL     1      -1.634  11.114  19.939  0.00  0.00    +0.000 NA
ATOM      6  C   UNL     1      -0.738  10.830  20.925  0.00  0.00    +0.000 A 
ENDROOT
BRANCH   2   7
ATOM      7  C   UNL     1       1.631   8.399  19.135  0.00  0.00    +0.000 A 
ATOM      8  C   UNL     1       2.470   8.549  18.015  0.00  0.00    +0.000 A 
ATOM      9  C   UNL     1       3.391   7.565  17.648  0.00  0.00    +0.000 A 
ATOM     10  C   UNL     1       3.557   6.453  18.457  0.00  0.00    +0.000 A 
ATOM     11  F   UNL     1       4.440   5.508  18.110  0.00  0.00    +0.000 F 
ATOM     12  C   UNL     1       2.825   6.313  19.624  0.00  0.00    +0.000 A 
ATOM     13  C   UNL     1       1.862   7.273  19.953  0.00  0.00    +0.000 A 
ENDBRANCH   2   7
BRANCH   4  14
ATOM     14  C   UNL     1      -2.490  10.857  17.739  0.00  0.00    +0.000 A 
ATOM     15  C   UNL     1      -2.485  10.680  16.367  0.00  0.00    +0.000 A 
ATOM     16  C   UNL     1      -3.689  11.134  15.748  0.00  0.00    +0.000 A 
ATOM     17  C   UNL     1      -4.575  11.658  16.660  0.00  0.00    +0.000 A 
ATOM     18  S   UNL     1      -3.971  11.576  18.251  0.00  0.00    +0.000 S 
ENDBRANCH   4  14
BRANCH   1  20
ATOM     19  N   UNL     1       2.064   9.535  22.643  0.00  0.00    +0.000 NA
ATOM     20  C   UNL     1       1.290   9.748  21.811  0.00  0.00    +0.000 C 
ENDBRANCH   1  20
BRANCH   6  21
ATOM     21  S   UNL     1      -1.072  11.576  22.527  0.00  0.00    +0.000 S 
BRANCH  21  22
ATOM     22  C   UNL     1      -2.134  13.004  22.127  0.00  0.00    +0.000 C 
BRANCH  22  23
ATOM     23  C   UNL     1      -3.115  13.297  23.248  0.00  0.00    +0.000 C 
ATOM     24  O   UNL     1      -3.216  14.402  23.771  0.00  0.00    +0.000 OA
ATOM     25  N   UNL     1      -3.880  12.217  23.638  0.00  0.00    +0.000 N 
ATOM     26  H   UNL     1      -3.812  11.357  23.093  0.00  0.00    +0.000 HD
BRANCH  25  27
ATOM     27  C   UNL     1      -4.902  12.329  24.676  0.00  0.00    +0.000 C 
BRANCH  27  28
ATOM     28  C   UNL     1      -6.276  12.676  24.105  0.00  0.00    +0.000 C 
ATOM     29  O   UNL     1      -6.596  13.783  23.719  0.00  0.00    +0.000 OA
BRANCH  28  30
ATOM     30  O   UNL     1      -7.120  11.624  24.070  0.00  0.00    +0.000 OA
ATOM     31  H   UNL     1      -7.955  11.928  23.662  0.00  0.00    +0.000 HD
ENDBRANCH  28  30
ENDBRANCH  27  28
ENDBRANCH  25  27
ENDBRANCH  22  23
ENDBRANCH  21  22
ENDBRANCH   6  21
TORSDOF 9
ENDMDL
MODEL 3
REMARK VINA RESULT:      -6.4      3.067      6.137
REMARK  Name = 
REMARK  9 active torsions:
REMARK  status: ('A' for Active; 'I' for Inactive)
REMARK    1  A    between atoms: C_2  and  C_3
REMARK    2  A    between atoms: C_4  and  C_5
REMARK    3  A    between atoms: C_13  and  C_14
REMARK    4  A    between atoms: C_20  and  S_21
REMARK    5  A    between atoms: S_21  and  C_22
REMARK    6  A    between atoms: C_22  and  C_23
REMARK    7  A    between atoms: N_25  and  C_26
REMARK    8  A    between atoms: C_26  and  C_27
REMARK    9  A    between atoms: C_27  and  O_29
REMARK                            x       y       z     vdW  Elec       q    Type
REMARK                         _______ _______ _______ _____ _____    ______ ____
ROOT
ATOM      1  C   UNL     1       3.353   5.839  17.771  0.00  0.00    +0.000 A 
ATOM      2  C   UNL     1       2.461   5.938  18.871  0.00  0.00    +0.000 A 
ATOM      3  C   UNL     1       1.891   7.201  19.120  0.00  0.00    +0.000 A 
ATOM      4  C   UNL     1       2.233   8.298  18.343  0.00  0.00    +0.000 A 
ATOM      5  N   UNL     1       3.140   8.219  17.338  0.00  0.00    +0.000 NA
ATOM      6  C   UNL     1       3.675   7.000  17.049  0.00  0.00    +0.000 A 
ENDROOT
BRANCH   2   7
ATOM      7  C   UNL     1       2.098   4.803  19.771  0.00  0.00    +0.000 A 
ATOM      8  C   UNL     1       1.137   3.838  19.416  0.00  0.00    +0.000 A 
ATOM      9  C   UNL     1       0.709   2.859  20.314  0.00  0.00    +0.000 A 
ATOM     10  C   UNL     1       1.311   2.768  21.558  0.00  0.00    +0.000 A 
ATOM     11  F   UNL     1       0.906   1.829  22.423  0.00  0.00    +0.000 F 
ATOM     12  C   UNL     1       2.333   3.632  21.913  0.00  0.00    +0.000 A 
ATOM     13  C   UNL     1       2.714   4.648  21.031  0.00  0.00    +0.000 A 
ENDBRANCH   2   7
BRANCH   4  14
ATOM     14  C   UNL     1       1.791   9.665  18.653  0.00  0.00    +0.000 A 
ATOM     15  C   UNL     1       2.166  10.854  18.055  0.00  0.00    +0.000 A 
ATOM     16  C   UNL     1       1.583  11.996  18.685  0.00  0.00    +0.000 A 
ATOM     17  C   UNL     1       0.790  11.648  19.753  0.00  0.00    +0.000 A 
ATOM     18  S   UNL     1       0.728   9.960  19.977  0.00  0.00    +0.000 S 
ENDBRANCH   4  14
BRANCH   1  20
ATOM     19  N   UNL     1       4.410   3.580  17.041  0.00  0.00    +0.000 NA
ATOM     20  C   UNL     1       3.942   4.576  17.395  0.00  0.00    +0.000 C 
ENDBRANCH   1  20
BRANCH   6  21
ATOM     21  S   UNL     1       4.858   6.964  15.694  0.00  0.00    +0.000 S 
BRANCH  21  22
ATOM     22  C   UNL     1       6.415   6.447  16.491  0.00  0.00    +0.000 C 
BRANCH  22  23
ATOM     23  C   UNL     1       6.979   5.195  15.846  0.00  0.00    +0.000 C 
ATOM     24  O   UNL     1       7.912   4.561  16.329  0.00  0.00    +0.000 OA
ATOM     25  N   UNL     1       6.364   4.830  14.666  0.00  0.00    +0.000 N 
ATOM     26  H   UNL     1       5.534   5.347  14.377  0.00  0.00    +0.000 HD
BRANCH  25  27
ATOM     27  C   UNL     1       6.755   3.629  13.931  0.00  0.00    +0.000 C 
BRANCH  27  28
ATOM     28  C   UNL     1       5.876   3.387  12.704  0.00  0.00    +0.000 C 
ATOM     29  O   UNL     1       4.792   3.908  12.526  0.00  0.00    +0.000 OA
BRANCH  28  30
ATOM     30  O   UNL     1       6.419   2.523  11.822  0.00  0.00    +0.000 OA
ATOM     31  H   UNL     1       5.700   1.954  11.483  0.00  0.00    +0.000 HD
ENDBRANCH  28  30
ENDBRANCH  27  28
ENDBRANCH  25  27
ENDBRANCH  22  23
ENDBRANCH  21  22
ENDBRANCH   6  21
TORSDOF 9
ENDMDL
MODEL 4
REMARK VINA RESULT:      -6.4      1.416      2.638
REMARK  Name = 
REMARK  9 active torsions:
REMARK  status: ('A' for Active; 'I' for Inactive)
REMARK    1  A    between atoms: C_2  and  C_3
REMARK    2  A    between atoms: C_4  and  C_5
REMARK    3  A    between atoms: C_13  and  C_14
REMARK    4  A    between atoms: C_20  and  S_21
REMARK    5  A    between atoms: S_21  and  C_22
REMARK    6  A    between atoms: C_22  and  C_23
REMARK    7  A    between atoms: N_25  and  C_26
REMARK    8  A    between atoms: C_26  and  C_27
REMARK    9  A    between atoms: C_27  and  O_29
REMARK                            x       y       z     vdW  Elec       q    Type
REMARK                         _______ _______ _______ _____ _____    ______ ____
ROOT
ATOM      1  C   UNL     1       2.453   8.115  18.691  0.00  0.00    +0.000 A 
ATOM      2  C   UNL     1       1.706   7.907  19.879  0.00  0.00    +0.000 A 
ATOM      3  C   UNL     1       1.831   6.649  20.500  0.00  0.00    +0.000 A 
ATOM      4  C   UNL     1       2.618   5.656  19.936  0.00  0.00    +0.000 A 
ATOM      5  N   UNL     1       3.274   5.831  18.763  0.00  0.00    +0.000 NA
ATOM      6  C   UNL     1       3.204   7.053  18.163  0.00  0.00    +0.000 A 
ENDROOT
BRANCH   2   7
ATOM      7  C   UNL     1       0.804   8.921  20.502  0.00  0.00    +0.000 A 
ATOM      8  C   UNL     1      -0.027   9.760  19.736  0.00  0.00    +0.000 A 
ATOM      9  C   UNL     1      -0.767  10.792  20.317  0.00  0.00    +0.000 A 
ATOM     10  C   UNL     1      -0.764  10.940  21.694  0.00  0.00    +0.000 A 
ATOM     11  F   UNL     1      -1.474  11.927  22.256  0.00  0.00    +0.000 F 
ATOM     12  C   UNL     1      -0.041  10.073  22.495  0.00  0.00    +0.000 A 
ATOM     13  C   UNL     1       0.746   9.080  21.902  0.00  0.00    +0.000 A 
ENDBRANCH   2   7
BRANCH   4  14
ATOM     14  C   UNL     1       2.661   4.281  20.454  0.00  0.00    +0.000 A 
ATOM     15  C   UNL     1       1.885   3.701  21.441  0.00  0.00    +0.000 A 
ATOM     16  C   UNL     1       2.275   2.358  21.730  0.00  0.00    +0.000 A 
ATOM     17  C   UNL     1       3.344   1.953  20.965  0.00  0.00    +0.000 A 
ATOM     18  S   UNL     1       3.855   3.173  19.891  0.00  0.00    +0.000 S 
ENDBRANCH   4  14
BRANCH   1  20
ATOM     19  N   UNL     1       2.480  10.396  17.445  0.00  0.00    +0.000 NA
ATOM     20  C   UNL     1       2.442   9.390  18.013  0.00  0.00    +0.000 C 
ENDBRANCH   1  20
BRANCH   6  21
ATOM     21  S   UNL     1       4.112   7.221  16.619  0.00  0.00    +0.000 S 
BRANCH  21  22
ATOM     22  C   UNL     1       5.859   7.101  17.128  0.00  0.00    +0.000 C 
BRANCH  22  23
ATOM     23  C   UNL     1       6.540   5.902  16.493  0.00  0.00    +0.000 C 
ATOM     24  O   UNL     1       7.427   5.267  17.055  0.00  0.00    +0.000 OA
ATOM     25  N   UNL     1       6.087   5.587  15.228  0.00  0.00    +0.000 N 
ATOM     26  H   UNL     1       5.281   6.097  14.866  0.00  0.00    +0.000 HD
BRANCH  25  27
ATOM     27  C   UNL     1       6.605   4.440  14.486  0.00  0.00    +0.000 C 
BRANCH  27  28
ATOM     28  C   UNL     1       7.317   4.854  13.199  0.00  0.00    +0.000 C 
ATOM     29  O   UNL     1       8.110   5.772  13.121  0.00  0.00    +0.000 OA
BRANCH  28  30
ATOM     30  O   UNL     1       6.978   4.096  12.136  0.00  0.00    +0.000 OA
ATOM     31  H   UNL     1       7.701   3.455  11.986  0.00  0.00    +0.000 HD
ENDBRANCH  28  30
ENDBRANCH  27  28
ENDBRANCH  25  27
ENDBRANCH  22  23
ENDBRANCH  21  22
ENDBRANCH   6  21
TORSDOF 9
ENDMDL
MODEL 5
REMARK VINA RESULT:      -6.4      2.005      3.082
REMARK  Name = 
REMARK  9 active torsions:
REMARK  status: ('A' for Active; 'I' for Inactive)
REMARK    1  A    between atoms: C_2  and  C_3
REMARK    2  A    between atoms: C_4  and  C_5
REMARK    3  A    between atoms: C_13  and  C_14
REMARK    4  A    between atoms: C_20  and  S_21
REMARK    5  A    between atoms: S_21  and  C_22
REMARK    6  A    between atoms: C_22  and  C_23
REMARK    7  A    between atoms: N_25  and  C_26
REMARK    8  A    between atoms: C_26  and  C_27
REMARK    9  A    between atoms: C_27  and  O_29
REMARK                            x       y       z     vdW  Elec       q    Type
REMARK                         _______ _______ _______ _____ _____    ______ ____
ROOT
ATOM      1  C   UNL     1       2.361   8.338  18.699  0.00  0.00    +0.000 A 
ATOM      2  C   UNL     1       1.476   8.245  19.805  0.00  0.00    +0.000 A 
ATOM      3  C   UNL     1       1.389   6.996  20.451  0.00  0.00    +0.000 A 
ATOM      4  C   UNL     1       2.109   5.907  19.985  0.00  0.00    +0.000 A 
ATOM      5  N   UNL     1       2.900   5.977  18.885  0.00  0.00    +0.000 NA
ATOM      6  C   UNL     1       3.034   7.184  18.267  0.00  0.00    +0.000 A 
ENDROOT
BRANCH   2   7
ATOM      7  C   UNL     1       0.638   9.370  20.316  0.00  0.00    +0.000 A 
ATOM      8  C   UNL     1       0.723   9.828  21.645  0.00  0.00    +0.000 A 
ATOM      9  C   UNL     1      -0.154  10.791  22.149  0.00  0.00    +0.000 A 
ATOM     10  C   UNL     1      -1.072  11.386  21.300  0.00  0.00    +0.000 A 
ATOM     11  F   UNL     1      -1.914  12.311  21.779  0.00  0.00    +0.000 F 
ATOM     12  C   UNL     1      -1.123  11.039  19.961  0.00  0.00    +0.000 A 
ATOM     13  C   UNL     1      -0.283  10.032  19.477  0.00  0.00    +0.000 A 
ENDBRANCH   2   7
BRANCH   4  14
ATOM     14  C   UNL     1       1.939   4.549  20.521  0.00  0.00    +0.000 A 
ATOM     15  C   UNL     1       2.484   3.992  21.664  0.00  0.00    +0.000 A 
ATOM     16  C   UNL     1       2.154   2.611  21.816  0.00  0.00    +0.000 A 
ATOM     17  C   UNL     1       1.377   2.148  20.780  0.00  0.00    +0.000 A 
ATOM     18  S   UNL     1       1.027   3.374  19.650  0.00  0.00    +0.000 S 
ENDBRANCH   4  14
BRANCH   1  20
ATOM     19  N   UNL     1       2.684  10.607  17.475  0.00  0.00    +0.000 NA
ATOM     20  C   UNL     1       2.568   9.589  18.009  0.00  0.00    +0.000 C 
ENDBRANCH   1  20
BRANCH   6  21
ATOM     21  S   UNL     1       4.110   7.210  16.825  0.00  0.00    +0.000 S 
BRANCH  21  22
ATOM     22  C   UNL     1       4.649   5.476  16.655  0.00  0.00    +0.000 C 
BRANCH  22  23
ATOM     23  C   UNL     1       5.720   5.331  15.589  0.00  0.00    +0.000 C 
ATOM     24  O   UNL     1       6.724   6.035  15.555  0.00  0.00    +0.000 OA
ATOM     25  N   UNL     1       5.470   4.346  14.655  0.00  0.00    +0.000 N 
ATOM     26  H   UNL     1       4.667   3.736  14.804  0.00  0.00    +0.000 HD
BRANCH  25  27
ATOM     27  C   UNL     1       6.414   4.043  13.581  0.00  0.00    +0.000 C 
BRANCH  27  28
ATOM     28  C   UNL     1       5.764   3.265  12.438  0.00  0.00    +0.000 C 
ATOM     29  O   UNL     1       4.661   3.507  11.987  0.00  0.00    +0.000 OA
BRANCH  28  30
ATOM     30  O   UNL     1       6.535   2.264  11.969  0.00  0.00    +0.000 OA
ATOM     31  H   UNL     1       7.241   2.101  12.626  0.00  0.00    +0.000 HD
ENDBRANCH  28  30
ENDBRANCH  27  28
ENDBRANCH  25  27
ENDBRANCH  22  23
ENDBRANCH  21  22
ENDBRANCH   6  21
TORSDOF 9
ENDMDL
MODEL 6
REMARK VINA RESULT:      -6.4      3.141      4.787
REMARK  Name = 
REMARK  9 active torsions:
REMARK  status: ('A' for Active; 'I' for Inactive)
REMARK    1  A    between atoms: C_2  and  C_3
REMARK    2  A    between atoms: C_4  and  C_5
REMARK    3  A    between atoms: C_13  and  C_14
REMARK    4  A    between atoms: C_20  and  S_21
REMARK    5  A    between atoms: S_21  and  C_22
REMARK    6  A    between atoms: C_22  and  C_23
REMARK    7  A    between atoms: N_25  and  C_26
REMARK    8  A    between atoms: C_26  and  C_27
REMARK    9  A    between atoms: C_27  and  O_29
REMARK                            x       y       z     vdW  Elec       q    Type
REMARK                         _______ _______ _______ _____ _____    ______ ____
ROOT
ATOM      1  C   UNL     1       1.837   7.447  19.823  0.00  0.00    +0.000 A 
ATOM      2  C   UNL     1       2.104   8.278  18.704  0.00  0.00    +0.000 A 
ATOM      3  C   UNL     1       2.897   7.731  17.676  0.00  0.00    +0.000 A 
ATOM      4  C   UNL     1       3.422   6.453  17.792  0.00  0.00    +0.000 A 
ATOM      5  N   UNL     1       3.226   5.686  18.893  0.00  0.00    +0.000 NA
ATOM      6  C   UNL     1       2.428   6.175  19.883  0.00  0.00    +0.000 A 
ENDROOT
BRANCH   2   7
ATOM      7  C   UNL     1       1.608   9.678  18.552  0.00  0.00    +0.000 A 
ATOM      8  C   UNL     1       2.469  10.755  18.265  0.00  0.00    +0.000 A 
ATOM      9  C   UNL     1       2.017  12.076  18.253  0.00  0.00    +0.000 A 
ATOM     10  C   UNL     1       0.669  12.335  18.433  0.00  0.00    +0.000 A 
ATOM     11  F   UNL     1       0.230  13.601  18.421  0.00  0.00    +0.000 F 
ATOM     12  C   UNL     1      -0.231  11.299  18.616  0.00  0.00    +0.000 A 
ATOM     13  C   UNL     1       0.237   9.983  18.687  0.00  0.00    +0.000 A 
ENDBRANCH   2   7
BRANCH   4  14
ATOM     14  C   UNL     1       4.379   5.893  16.827  0.00  0.00    +0.000 A 
ATOM     15  C   UNL     1       5.161   6.554  15.898  0.00  0.00    +0.000 A 
ATOM     16  C   UNL     1       5.913   5.660  15.075  0.00  0.00    +0.000 A 
ATOM     17  C   UNL     1       5.675   4.343  15.390  0.00  0.00    +0.000 A 
ATOM     18  S   UNL     1       4.576   4.187  16.683  0.00  0.00    +0.000 S 
ENDBRANCH   4  14
BRANCH   1  20
ATOM     19  N   UNL     1       0.284   8.195  21.768  0.00  0.00    +0.000 NA
ATOM     20  C   UNL     1       0.984   7.892  20.900  0.00  0.00    +0.000 C 
ENDBRANCH   1  20
BRANCH   6  21
ATOM     21  S   UNL     1       2.198   5.099  21.307  0.00  0.00    +0.000 S 
BRANCH  21  22
ATOM     22  C   UNL     1       1.170   3.738  20.660  0.00  0.00    +0.000 C 
BRANCH  22  23
ATOM     23  C   UNL     1       2.011   2.708  19.928  0.00  0.00    +0.000 C 
ATOM     24  O   UNL     1       1.523   1.838  19.214  0.00  0.00    +0.000 OA
ATOM     25  N   UNL     1       3.370   2.823  20.137  0.00  0.00    +0.000 N 
ATOM     26  H   UNL     1       3.709   3.629  20.663  0.00  0.00    +0.000 HD
BRANCH  25  27
ATOM     27  C   UNL     1       4.330   1.939  19.480  0.00  0.00    +0.000 C 
BRANCH  27  28
ATOM     28  C   UNL     1       5.112   1.085  20.477  0.00  0.00    +0.000 C 
ATOM     29  O   UNL     1       5.381   1.432  21.611  0.00  0.00    +0.000 OA
BRANCH  28  30
ATOM     30  O   UNL     1       5.487  -0.109  19.977  0.00  0.00    +0.000 OA
ATOM     31  H   UNL     1       5.457  -0.759  20.707  0.00  0.00    +0.000 HD
ENDBRANCH  28  30
ENDBRANCH  27  28
ENDBRANCH  25  27
ENDBRANCH  22  23
ENDBRANCH  21  22
ENDBRANCH   6  21
TORSDOF 9
ENDMDL
MODEL 7
REMARK VINA RESULT:      -6.3      1.420      2.389
REMARK  Name = 
REMARK  9 active torsions:
REMARK  status: ('A' for Active; 'I' for Inactive)
REMARK    1  A    between atoms: C_2  and  C_3
REMARK    2  A    between atoms: C_4  and  C_5
REMARK    3  A    between atoms: C_13  and  C_14
REMARK    4  A    between atoms: C_20  and  S_21
REMARK    5  A    between atoms: S_21  and  C_22
REMARK    6  A    between atoms: C_22  and  C_23
REMARK    7  A    between atoms: N_25  and  C_26
REMARK    8  A    between atoms: C_26  and  C_27
REMARK    9  A    between atoms: C_27  and  O_29
REMARK                            x       y       z     vdW  Elec       q    Type
REMARK                         _______ _______ _______ _____ _____    ______ ____
ROOT
ATOM      1  C   UNL     1       2.231   8.416  18.788  0.00  0.00    +0.000 A 
ATOM      2  C   UNL     1       1.396   8.274  19.926  0.00  0.00    +0.000 A 
ATOM      3  C   UNL     1       1.352   7.004  20.534  0.00  0.00    +0.000 A 
ATOM      4  C   UNL     1       2.065   5.941  20.001  0.00  0.00    +0.000 A 
ATOM      5  N   UNL     1       2.806   6.058  18.872  0.00  0.00    +0.000 NA
ATOM      6  C   UNL     1       2.899   7.286  18.289  0.00  0.00    +0.000 A 
ENDROOT
BRANCH   2   7
ATOM      7  C   UNL     1       0.567   9.371  20.511  0.00  0.00    +0.000 A 
ATOM      8  C   UNL     1       0.616   9.705  21.877  0.00  0.00    +0.000 A 
ATOM      9  C   UNL     1      -0.255  10.641  22.438  0.00  0.00    +0.000 A 
ATOM     10  C   UNL     1      -1.129  11.334  21.617  0.00  0.00    +0.000 A 
ATOM     11  F   UNL     1      -1.965  12.234  22.150  0.00  0.00    +0.000 F 
ATOM     12  C   UNL     1      -1.141  11.111  20.251  0.00  0.00    +0.000 A 
ATOM     13  C   UNL     1      -0.308  10.129  19.705  0.00  0.00    +0.000 A 
ENDBRANCH   2   7
BRANCH   4  14
ATOM     14  C   UNL     1       1.935   4.563  20.498  0.00  0.00    +0.000 A 
ATOM     15  C   UNL     1       2.382   4.026  21.691  0.00  0.00    +0.000 A 
ATOM     16  C   UNL     1       2.140   2.621  21.788  0.00  0.00    +0.000 A 
ATOM     17  C   UNL     1       1.526   2.124  20.663  0.00  0.00    +0.000 A 
ATOM     18  S   UNL     1       1.220   3.343  19.513  0.00  0.00    +0.000 S 
ENDBRANCH   4  14
BRANCH   1  20
ATOM     19  N   UNL     1       2.571  10.694  17.585  0.00  0.00    +0.000 NA
ATOM     20  C   UNL     1       2.393   9.691  18.132  0.00  0.00    +0.000 C 
ENDBRANCH   1  20
BRANCH   6  21
ATOM     21  S   UNL     1       3.911   7.374  16.805  0.00  0.00    +0.000 S 
BRANCH  21  22
ATOM     22  C   UNL     1       5.615   7.195  17.430  0.00  0.00    +0.000 C 
BRANCH  22  23
ATOM     23  C   UNL     1       6.313   6.000  16.806  0.00  0.00    +0.000 C 
ATOM     24  O   UNL     1       7.487   5.725  17.029  0.00  0.00    +0.000 OA
ATOM     25  N   UNL     1       5.521   5.252  15.958  0.00  0.00    +0.000 N 
ATOM     26  H   UNL     1       4.529   5.483  15.898  0.00  0.00    +0.000 HD
BRANCH  25  27
ATOM     27  C   UNL     1       6.019   4.046  15.301  0.00  0.00    +0.000 C 
BRANCH  27  28
ATOM     28  C   UNL     1       6.663   4.344  13.948  0.00  0.00    +0.000 C 
ATOM     29  O   UNL     1       6.375   3.773  12.914  0.00  0.00    +0.000 OA
BRANCH  28  30
ATOM     30  O   UNL     1       7.599   5.313  14.005  0.00  0.00    +0.000 OA
ATOM     31  H   UNL     1       7.376   5.896  14.758  0.00  0.00    +0.000 HD
ENDBRANCH  28  30
ENDBRANCH  27  28
ENDBRANCH  25  27
ENDBRANCH  22  23
ENDBRANCH  21  22
ENDBRANCH   6  21
TORSDOF 9
ENDMDL
MODEL 8
REMARK VINA RESULT:      -6.3      2.713      4.637
REMARK  Name = 
REMARK  9 active torsions:
REMARK  status: ('A' for Active; 'I' for Inactive)
REMARK    1  A    between atoms: C_2  and  C_3
REMARK    2  A    between atoms: C_4  and  C_5
REMARK    3  A    between atoms: C_13  and  C_14
REMARK    4  A    between atoms: C_20  and  S_21
REMARK    5  A    between atoms: S_21  and  C_22
REMARK    6  A    between atoms: C_22  and  C_23
REMARK    7  A    between atoms: N_25  and  C_26
REMARK    8  A    between atoms: C_26  and  C_27
REMARK    9  A    between atoms: C_27  and  O_29
REMARK                            x       y       z     vdW  Elec       q    Type
REMARK                         _______ _______ _______ _____ _____    ______ ____
ROOT
ATOM      1  C   UNL     1       1.664   7.676  19.749  0.00  0.00    +0.000 A 
ATOM      2  C   UNL     1       1.987   8.607  18.727  0.00  0.00    +0.000 A 
ATOM      3  C   UNL     1       2.970   8.218  17.795  0.00  0.00    +0.000 A 
ATOM      4  C   UNL     1       3.614   6.996  17.915  0.00  0.00    +0.000 A 
ATOM      5  N   UNL     1       3.357   6.137  18.933  0.00  0.00    +0.000 NA
ATOM      6  C   UNL     1       2.381   6.471  19.823  0.00  0.00    +0.000 A 
ENDROOT
BRANCH   2   7
ATOM      7  C   UNL     1       1.363   9.955  18.581  0.00  0.00    +0.000 A 
ATOM      8  C   UNL     1       2.123  11.140  18.571  0.00  0.00    +0.000 A 
ATOM      9  C   UNL     1       1.523  12.400  18.566  0.00  0.00    +0.000 A 
ATOM     10  C   UNL     1       0.145  12.497  18.471  0.00  0.00    +0.000 A 
ATOM     11  F   UNL     1      -0.436  13.704  18.464  0.00  0.00    +0.000 F 
ATOM     12  C   UNL     1      -0.638  11.359  18.375  0.00  0.00    +0.000 A 
ATOM     13  C   UNL     1      -0.034  10.099  18.442  0.00  0.00    +0.000 A 
ENDBRANCH   2   7
BRANCH   4  14
ATOM     14  C   UNL     1       4.751   6.606  17.069  0.00  0.00    +0.000 A 
ATOM     15  C   UNL     1       4.766   6.314  15.717  0.00  0.00    +0.000 A 
ATOM     16  C   UNL     1       6.052   5.894  15.259  0.00  0.00    +0.000 A 
ATOM     17  C   UNL     1       6.979   5.865  16.274  0.00  0.00    +0.000 A 
ATOM     18  S   UNL     1       6.312   6.366  17.759  0.00  0.00    +0.000 S 
ENDBRANCH   4  14
BRANCH   1  20
ATOM     19  N   UNL     1      -0.241   8.169  21.446  0.00  0.00    +0.000 NA
ATOM     20  C   UNL     1       0.627   7.954  20.714  0.00  0.00    +0.000 C 
ENDBRANCH   1  20
BRANCH   6  21
ATOM     21  S   UNL     1       2.079   5.281  21.138  0.00  0.00    +0.000 S 
BRANCH  21  22
ATOM     22  C   UNL     1       0.895   4.108  20.398  0.00  0.00    +0.000 C 
BRANCH  22  23
ATOM     23  C   UNL     1       1.492   3.401  19.195  0.00  0.00    +0.000 C 
ATOM     24  O   UNL     1       0.973   3.427  18.084  0.00  0.00    +0.000 OA
ATOM     25  N   UNL     1       2.664   2.719  19.453  0.00  0.00    +0.000 N 
ATOM     26  H   UNL     1       3.088   2.824  20.375  0.00  0.00    +0.000 HD
BRANCH  25  27
ATOM     27  C   UNL     1       3.395   2.015  18.402  0.00  0.00    +0.000 C 
BRANCH  27  28
ATOM     28  C   UNL     1       4.502   2.872  17.790  0.00  0.00    +0.000 C 
ATOM     29  O   UNL     1       4.622   3.085  16.599  0.00  0.00    +0.000 OA
BRANCH  28  30
ATOM     30  O   UNL     1       5.354   3.376  18.706  0.00  0.00    +0.000 OA
ATOM     31  H   UNL     1       6.259   3.121  18.440  0.00  0.00    +0.000 HD
ENDBRANCH  28  30
ENDBRANCH  27  28
ENDBRANCH  25  27
ENDBRANCH  22  23
ENDBRANCH  21  22
ENDBRANCH   6  21
TORSDOF 9
ENDMDL
MODEL 9
REMARK VINA RESULT:      -6.3      6.951     10.296
REMARK  Name = 
REMARK  9 active torsions:
REMARK  status: ('A' for Active; 'I' for Inactive)
REMARK    1  A    between atoms: C_2  and  C_3
REMARK    2  A    between atoms: C_4  and  C_5
REMARK    3  A    between atoms: C_13  and  C_14
REMARK    4  A    between atoms: C_20  and  S_21
REMARK    5  A    between atoms: S_21  and  C_22
REMARK    6  A    between atoms: C_22  and  C_23
REMARK    7  A    between atoms: N_25  and  C_26
REMARK    8  A    between atoms: C_26  and  C_27
REMARK    9  A    between atoms: C_27  and  O_29
REMARK                            x       y       z     vdW  Elec       q    Type
REMARK                         _______ _______ _______ _____ _____    ______ ____
ROOT
ATOM      1  C   UNL     1       0.412  10.119  20.806  0.00  0.00    +0.000 A 
ATOM      2  C   UNL     1       0.466   9.354  19.612  0.00  0.00    +0.000 A 
ATOM      3  C   UNL     1      -0.464   9.676  18.604  0.00  0.00    +0.000 A 
ATOM      4  C   UNL     1      -1.411  10.669  18.806  0.00  0.00    +0.000 A 
ATOM      5  N   UNL     1      -1.509  11.351  19.975  0.00  0.00    +0.000 NA
ATOM      6  C   UNL     1      -0.595  11.087  20.950  0.00  0.00    +0.000 A 
ENDROOT
BRANCH   2   7
ATOM      7  C   UNL     1       1.429   8.241  19.362  0.00  0.00    +0.000 A 
ATOM      8  C   UNL     1       1.572   7.155  20.246  0.00  0.00    +0.000 A 
ATOM      9  C   UNL     1       2.565   6.189  20.071  0.00  0.00    +0.000 A 
ATOM     10  C   UNL     1       3.373   6.240  18.948  0.00  0.00    +0.000 A 
ATOM     11  F   UNL     1       4.326   5.314  18.776  0.00  0.00    +0.000 F 
ATOM     12  C   UNL     1       3.202   7.233  17.999  0.00  0.00    +0.000 A 
ATOM     13  C   UNL     1       2.246   8.231  18.211  0.00  0.00    +0.000 A 
ENDBRANCH   2   7
BRANCH   4  14
ATOM     14  C   UNL     1      -2.499  10.939  17.856  0.00  0.00    +0.000 A 
ATOM     15  C   UNL     1      -2.507  10.790  16.481  0.00  0.00    +0.000 A 
ATOM     16  C   UNL     1      -3.728  11.234  15.886  0.00  0.00    +0.000 A 
ATOM     17  C   UNL     1      -4.612  11.721  16.820  0.00  0.00    +0.000 A 
ATOM     18  S   UNL     1      -3.986  11.619  18.401  0.00  0.00    +0.000 S 
ENDBRANCH   4  14
BRANCH   1  20
ATOM     19  N   UNL     1       2.078   9.737  22.764  0.00  0.00    +0.000 NA
ATOM     20  C   UNL     1       1.361   9.909  21.874  0.00  0.00    +0.000 C 
ENDBRANCH   1  20
BRANCH   6  21
ATOM     21  S   UNL     1      -0.771  12.038  22.467  0.00  0.00    +0.000 S 
BRANCH  21  22
ATOM     22  C   UNL     1      -2.385  11.505  23.128  0.00  0.00    +0.000 C 
BRANCH  22  23
ATOM     23  C   UNL     1      -3.425  12.604  23.008  0.00  0.00    +0.000 C 
ATOM     24  O   UNL     1      -3.183  13.696  22.504  0.00  0.00    +0.000 OA
ATOM     25  N   UNL     1      -4.665  12.280  23.520  0.00  0.00    +0.000 N 
ATOM     26  H   UNL     1      -4.819  11.321  23.834  0.00  0.00    +0.000 HD
BRANCH  25  27
ATOM     27  C   UNL     1      -5.793  13.205  23.454  0.00  0.00    +0.000 C 
BRANCH  27  28
ATOM     28  C   UNL     1      -7.072  12.606  24.038  0.00  0.00    +0.000 C 
ATOM     29  O   UNL     1      -7.440  11.463  23.848  0.00  0.00    +0.000 OA
BRANCH  28  30
ATOM     30  O   UNL     1      -7.771  13.476  24.795  0.00  0.00    +0.000 OA
ATOM     31  H   UNL     1      -7.548  13.300  25.731  0.00  0.00    +0.000 HD
ENDBRANCH  28  30
ENDBRANCH  27  28
ENDBRANCH  25  27
ENDBRANCH  22  23
ENDBRANCH  21  22
ENDBRANCH   6  21
TORSDOF 9
ENDMDL
