MODEL 1
REMARK VINA RESULT:      -7.6      0.000      0.000
REMARK  Name = 
REMARK  5 active torsions:
REMARK  status: ('A' for Active; 'I' for Inactive)
REMARK    1  A    between atoms: C_1  and  O_2
REMARK    2  A    between atoms: O_2  and  C_3
REMARK    3  A    between atoms: C_3  and  C_5
REMARK    4  A    between atoms: C_10  and  N_11
REMARK    5  A    between atoms: N_11  and  N_12
REMARK                            x       y       z     vdW  Elec       q    Type
REMARK                         _______ _______ _______ _____ _____    ______ ____
ROOT
ATOM      1  N   UNL     1       4.862   3.022  17.648  0.00  0.00    +0.000 N 
ATOM      2  H   UNL     1       5.548   3.430  18.303  0.00  0.00    +0.000 HD
ENDROOT
BRANCH   1   3
ATOM      3  N   UNL     1       5.067   3.241  16.304  0.00  0.00    +0.000 NA
ATOM      4  C   UNL     1       6.069   4.005  15.984  0.00  0.00    +0.000 C 
ATOM      5  C   UNL     1       7.073   4.649  16.844  0.00  0.00    +0.000 C 
ATOM      6  N   UNL     1       7.431   4.349  18.043  0.00  0.00    +0.000 NA
ATOM      7  O   UNL     1       7.602   5.641  16.069  0.00  0.00    +0.000 OA
ATOM      8  N   UNL     1       7.205   5.470  14.689  0.00  0.00    +0.000 NA
ATOM      9  C   UNL     1       6.350   4.501  14.616  0.00  0.00    +0.000 C 
ATOM     10  N   UNL     1       5.791   4.017  13.470  0.00  0.00    +0.000 N 
ATOM     11  H   UNL     1       6.926   3.497  18.325  0.00  0.00    +0.000 HD
ATOM     12  H   UNL     1       5.948   4.596  12.652  0.00  0.00    +0.000 HD
ATOM     13  H   UNL     1       4.853   3.634  13.544  0.00  0.00    +0.000 HD
ENDBRANCH   1   3
BRANCH   1  19
ATOM     14  C   UNL     1       3.174   4.412  18.856  0.00  0.00    +0.000 A 
ATOM     15  C   UNL     1       1.867   4.535  19.375  0.00  0.00    +0.000 A 
ATOM     16  C   UNL     1       0.940   3.503  19.251  0.00  0.00    +0.000 A 
ATOM     17  C   UNL     1       1.310   2.329  18.613  0.00  0.00    +0.000 A 
ATOM     18  C   UNL     1       2.598   2.192  18.082  0.00  0.00    +0.000 A 
ATOM     19  C   UNL     1       3.546   3.230  18.163  0.00  0.00    +0.000 A 
BRANCH  14  20
ATOM     20  C   UNL     1       4.052   5.600  19.079  0.00  0.00    +0.000 C 
ATOM     21  O   UNL     1       5.097   5.548  19.719  0.00  0.00    +0.000 OA
BRANCH  20  23
ATOM     22  C   UNL     1       4.186   7.066  17.251  0.00  0.00    +0.000 C 
ATOM     23  O   UNL     1       3.556   6.716  18.490  0.00  0.00    +0.000 OA
ENDBRANCH  20  23
ENDBRANCH  14  20
ENDBRANCH   1  19
TORSDOF 4
ENDMDL
MODEL 2
REMARK VINA RESULT:      -7.6      1.891      2.932
REMARK  Name = 
REMARK  5 active torsions:
REMARK  status: ('A' for Active; 'I' for Inactive)
REMARK    1  A    between atoms: C_1  and  O_2
REMARK    2  A    between atoms: O_2  and  C_3
REMARK    3  A    between atoms: C_3  and  C_5
REMARK    4  A    between atoms: C_10  and  N_11
REMARK    5  A    between atoms: N_11  and  N_12
REMARK                            x       y       z     vdW  Elec       q    Type
REMARK                         _______ _______ _______ _____ _____    ______ ____
ROOT
ATOM      1  N   UNL     1       4.540   3.178  18.712  0.00  0.00    +0.000 N 
ATOM      2  H   UNL     1       4.809   2.222  18.430  0.00  0.00    +0.000 HD
ENDROOT
BRANCH   1   3
ATOM      3  N   UNL     1       5.552   4.029  19.100  0.00  0.00    +0.000 NA
ATOM      4  C   UNL     1       6.197   4.638  18.149  0.00  0.00    +0.000 C 
ATOM      5  C   UNL     1       5.984   4.603  16.695  0.00  0.00    +0.000 C 
ATOM      6  N   UNL     1       4.930   4.269  16.034  0.00  0.00    +0.000 NA
ATOM      7  O   UNL     1       7.158   5.054  16.165  0.00  0.00    +0.000 OA
ATOM      8  N   UNL     1       7.982   5.647  17.196  0.00  0.00    +0.000 NA
ATOM      9  C   UNL     1       7.420   5.451  18.346  0.00  0.00    +0.000 C 
ATOM     10  N   UNL     1       7.879   5.911  19.545  0.00  0.00    +0.000 N 
ATOM     11  H   UNL     1       4.178   4.070  16.708  0.00  0.00    +0.000 HD
ATOM     12  H   UNL     1       8.823   6.282  19.516  0.00  0.00    +0.000 HD
ATOM     13  H   UNL     1       7.670   5.346  20.363  0.00  0.00    +0.000 HD
ENDBRANCH   1   3
BRANCH   1  19
ATOM     14  C   UNL     1       2.152   3.735  19.185  0.00  0.00    +0.000 A 
ATOM     15  C   UNL     1       1.052   3.663  20.065  0.00  0.00    +0.000 A 
ATOM     16  C   UNL     1       1.152   3.016  21.296  0.00  0.00    +0.000 A 
ATOM     17  C   UNL     1       2.357   2.440  21.666  0.00  0.00    +0.000 A 
ATOM     18  C   UNL     1       3.457   2.492  20.801  0.00  0.00    +0.000 A 
ATOM     19  C   UNL     1       3.376   3.110  19.537  0.00  0.00    +0.000 A 
BRANCH  14  20
ATOM     20  C   UNL     1       1.888   4.471  17.911  0.00  0.00    +0.000 C 
ATOM     21  O   UNL     1       0.961   4.193  17.158  0.00  0.00    +0.000 OA
BRANCH  20  23
ATOM     22  C   UNL     1       2.623   6.602  18.565  0.00  0.00    +0.000 C 
ATOM     23  O   UNL     1       2.785   5.467  17.705  0.00  0.00    +0.000 OA
ENDBRANCH  20  23
ENDBRANCH  14  20
ENDBRANCH   1  19
TORSDOF 4
ENDMDL
MODEL 3
REMARK VINA RESULT:      -7.2      0.704      1.016
REMARK  Name = 
REMARK  5 active torsions:
REMARK  status: ('A' for Active; 'I' for Inactive)
REMARK    1  A    between atoms: C_1  and  O_2
REMARK    2  A    between atoms: O_2  and  C_3
REMARK    3  A    between atoms: C_3  and  C_5
REMARK    4  A    between atoms: C_10  and  N_11
REMARK    5  A    between atoms: N_11  and  N_12
REMARK                            x       y       z     vdW  Elec       q    Type
REMARK                         _______ _______ _______ _____ _____    ______ ____
ROOT
ATOM      1  N   UNL     1       4.828   3.380  17.658  0.00  0.00    +0.000 N 
ATOM      2  H   UNL     1       5.330   4.084  18.224  0.00  0.00    +0.000 HD
ENDROOT
BRANCH   1   3
ATOM      3  N   UNL     1       4.988   3.441  16.292  0.00  0.00    +0.000 NA
ATOM      4  C   UNL     1       6.058   4.038  15.856  0.00  0.00    +0.000 C 
ATOM      5  C   UNL     1       7.176   4.630  16.605  0.00  0.00    +0.000 C 
ATOM      6  N   UNL     1       7.557   4.405  17.813  0.00  0.00    +0.000 NA
ATOM      7  O   UNL     1       7.780   5.468  15.713  0.00  0.00    +0.000 OA
ATOM      8  N   UNL     1       7.294   5.216  14.373  0.00  0.00    +0.000 NA
ATOM      9  C   UNL     1       6.325   4.359  14.434  0.00  0.00    +0.000 C 
ATOM     10  N   UNL     1       5.653   3.841  13.367  0.00  0.00    +0.000 N 
ATOM     11  H   UNL     1       6.967   3.655  18.201  0.00  0.00    +0.000 HD
ATOM     12  H   UNL     1       5.837   4.314  12.488  0.00  0.00    +0.000 HD
ATOM     13  H   UNL     1       4.681   3.588  13.516  0.00  0.00    +0.000 HD
ENDBRANCH   1   3
BRANCH   1  19
ATOM     14  C   UNL     1       2.668   4.344  18.462  0.00  0.00    +0.000 A 
ATOM     15  C   UNL     1       1.382   4.128  19.001  0.00  0.00    +0.000 A 
ATOM     16  C   UNL     1       0.923   2.843  19.283  0.00  0.00    +0.000 A 
ATOM     17  C   UNL     1       1.747   1.756  19.037  0.00  0.00    +0.000 A 
ATOM     18  C   UNL     1       3.022   1.949  18.493  0.00  0.00    +0.000 A 
ATOM     19  C   UNL     1       3.502   3.234  18.167  0.00  0.00    +0.000 A 
BRANCH  14  20
ATOM     20  C   UNL     1       3.018   5.778  18.227  0.00  0.00    +0.000 C 
ATOM     21  O   UNL     1       2.184   6.631  17.947  0.00  0.00    +0.000 OA
BRANCH  20  23
ATOM     22  C   UNL     1       4.869   7.032  17.513  0.00  0.00    +0.000 C 
ATOM     23  O   UNL     1       4.347   6.006  18.367  0.00  0.00    +0.000 OA
ENDBRANCH  20  23
ENDBRANCH  14  20
ENDBRANCH   1  19
TORSDOF 4
ENDMDL
MODEL 4
REMARK VINA RESULT:      -7.2      1.066      1.111
REMARK  Name = 
REMARK  5 active torsions:
REMARK  status: ('A' for Active; 'I' for Inactive)
REMARK    1  A    between atoms: C_1  and  O_2
REMARK    2  A    between atoms: O_2  and  C_3
REMARK    3  A    between atoms: C_3  and  C_5
REMARK    4  A    between atoms: C_10  and  N_11
REMARK    5  A    between atoms: N_11  and  N_12
REMARK                            x       y       z     vdW  Elec       q    Type
REMARK                         _______ _______ _______ _____ _____    ______ ____
ROOT
ATOM      1  N   UNL     1       4.783   4.111  18.039  0.00  0.00    +0.000 N 
ATOM      2  H   UNL     1       4.945   5.073  18.376  0.00  0.00    +0.000 HD
ENDROOT
BRANCH   1   3
ATOM      3  N   UNL     1       5.179   3.819  16.752  0.00  0.00    +0.000 NA
ATOM      4  C   UNL     1       6.192   4.490  16.288  0.00  0.00    +0.000 C 
ATOM      5  C   UNL     1       7.034   5.499  16.948  0.00  0.00    +0.000 C 
ATOM      6  N   UNL     1       7.218   5.710  18.204  0.00  0.00    +0.000 NA
ATOM      7  O   UNL     1       7.639   6.165  15.921  0.00  0.00    +0.000 OA
ATOM      8  N   UNL     1       7.459   5.447  14.678  0.00  0.00    +0.000 NA
ATOM      9  C   UNL     1       6.657   4.451  14.882  0.00  0.00    +0.000 C 
ATOM     10  N   UNL     1       6.293   3.520  13.954  0.00  0.00    +0.000 N 
ATOM     11  H   UNL     1       6.706   4.989  18.730  0.00  0.00    +0.000 HD
ATOM     12  H   UNL     1       6.552   3.756  13.002  0.00  0.00    +0.000 HD
ATOM     13  H   UNL     1       5.369   3.112  14.053  0.00  0.00    +0.000 HD
ENDBRANCH   1   3
BRANCH   1  19
ATOM     14  C   UNL     1       2.511   4.585  18.963  0.00  0.00    +0.000 A 
ATOM     15  C   UNL     1       1.258   4.092  19.384  0.00  0.00    +0.000 A 
ATOM     16  C   UNL     1       0.962   2.731  19.336  0.00  0.00    +0.000 A 
ATOM     17  C   UNL     1       1.920   1.843  18.872  0.00  0.00    +0.000 A 
ATOM     18  C   UNL     1       3.165   2.314  18.439  0.00  0.00    +0.000 A 
ATOM     19  C   UNL     1       3.481   3.687  18.445  0.00  0.00    +0.000 A 
BRANCH  14  20
ATOM     20  C   UNL     1       2.678   6.065  19.087  0.00  0.00    +0.000 C 
ATOM     21  O   UNL     1       2.320   6.697  20.074  0.00  0.00    +0.000 OA
BRANCH  20  23
ATOM     22  C   UNL     1       2.952   7.981  17.760  0.00  0.00    +0.000 C 
ATOM     23  O   UNL     1       3.270   6.603  17.992  0.00  0.00    +0.000 OA
ENDBRANCH  20  23
ENDBRANCH  14  20
ENDBRANCH   1  19
TORSDOF 4
ENDMDL
MODEL 5
REMARK VINA RESULT:      -7.2      1.708      2.763
REMARK  Name = 
REMARK  5 active torsions:
REMARK  status: ('A' for Active; 'I' for Inactive)
REMARK    1  A    between atoms: C_1  and  O_2
REMARK    2  A    between atoms: O_2  and  C_3
REMARK    3  A    between atoms: C_3  and  C_5
REMARK    4  A    between atoms: C_10  and  N_11
REMARK    5  A    between atoms: N_11  and  N_12
REMARK                            x       y       z     vdW  Elec       q    Type
REMARK                         _______ _______ _______ _____ _____    ______ ____
ROOT
ATOM      1  N   UNL     1       4.636   3.596  18.073  0.00  0.00    +0.000 N 
ATOM      2  H   UNL     1       5.500   3.469  18.625  0.00  0.00    +0.000 HD
ENDROOT
BRANCH   1   3
ATOM      3  N   UNL     1       4.768   3.662  16.704  0.00  0.00    +0.000 NA
ATOM      4  C   UNL     1       5.884   4.152  16.249  0.00  0.00    +0.000 C 
ATOM      5  C   UNL     1       7.075   4.613  16.977  0.00  0.00    +0.000 C 
ATOM      6  N   UNL     1       7.459   4.330  18.172  0.00  0.00    +0.000 NA
ATOM      7  O   UNL     1       7.741   5.399  16.081  0.00  0.00    +0.000 OA
ATOM      8  N   UNL     1       7.200   5.220  14.752  0.00  0.00    +0.000 NA
ATOM      9  C   UNL     1       6.149   4.467  14.825  0.00  0.00    +0.000 C 
ATOM     10  N   UNL     1       5.401   4.039  13.768  0.00  0.00    +0.000 N 
ATOM     11  H   UNL     1       6.805   3.639  18.565  0.00  0.00    +0.000 HD
ATOM     12  H   UNL     1       5.612   4.504  12.892  0.00  0.00    +0.000 HD
ATOM     13  H   UNL     1       4.412   3.885  13.939  0.00  0.00    +0.000 HD
ENDBRANCH   1   3
BRANCH   1  19
ATOM     14  C   UNL     1       2.880   4.247  19.725  0.00  0.00    +0.000 A 
ATOM     15  C   UNL     1       2.071   5.259  20.283  0.00  0.00    +0.000 A 
ATOM     16  C   UNL     1       2.147   6.576  19.834  0.00  0.00    +0.000 A 
ATOM     17  C   UNL     1       3.028   6.897  18.813  0.00  0.00    +0.000 A 
ATOM     18  C   UNL     1       3.847   5.908  18.254  0.00  0.00    +0.000 A 
ATOM     19  C   UNL     1       3.816   4.576  18.710  0.00  0.00    +0.000 A 
BRANCH  14  20
ATOM     20  C   UNL     1       2.672   2.886  20.306  0.00  0.00    +0.000 C 
ATOM     21  O   UNL     1       2.803   2.643  21.501  0.00  0.00    +0.000 OA
BRANCH  20  23
ATOM     22  C   UNL     1       1.029   2.187  18.784  0.00  0.00    +0.000 C 
ATOM     23  O   UNL     1       2.324   1.978  19.362  0.00  0.00    +0.000 OA
ENDBRANCH  20  23
ENDBRANCH  14  20
ENDBRANCH   1  19
TORSDOF 4
ENDMDL
MODEL 6
REMARK VINA RESULT:      -7.1      2.600      5.708
REMARK  Name = 
REMARK  5 active torsions:
REMARK  status: ('A' for Active; 'I' for Inactive)
REMARK    1  A    between atoms: C_1  and  O_2
REMARK    2  A    between atoms: O_2  and  C_3
REMARK    3  A    between atoms: C_3  and  C_5
REMARK    4  A    between atoms: C_10  and  N_11
REMARK    5  A    between atoms: N_11  and  N_12
REMARK                            x       y       z     vdW  Elec       q    Type
REMARK                         _______ _______ _______ _____ _____    ______ ____
ROOT
ATOM      1  N   UNL     1       5.070   3.734  18.182  0.00  0.00    +0.000 N 
ATOM      2  H   UNL     1       4.486   3.829  17.336  0.00  0.00    +0.000 HD
ENDROOT
BRANCH   1   3
ATOM      3  N   UNL     1       4.434   3.379  19.350  0.00  0.00    +0.000 NA
ATOM      4  C   UNL     1       3.139   3.263  19.297  0.00  0.00    +0.000 C 
ATOM      5  C   UNL     1       2.229   3.406  18.152  0.00  0.00    +0.000 C 
ATOM      6  N   UNL     1       2.484   3.324  16.893  0.00  0.00    +0.000 NA
ATOM      7  O   UNL     1       1.001   3.607  18.713  0.00  0.00    +0.000 OA
ATOM      8  N   UNL     1       1.036   3.306  20.127  0.00  0.00    +0.000 NA
ATOM      9  C   UNL     1       2.261   3.063  20.473  0.00  0.00    +0.000 C 
ATOM     10  N   UNL     1       2.677   2.692  21.717  0.00  0.00    +0.000 N 
ATOM     11  H   UNL     1       3.476   3.068  16.782  0.00  0.00    +0.000 HD
ATOM     12  H   UNL     1       1.972   2.791  22.440  0.00  0.00    +0.000 HD
ATOM     13  H   UNL     1       3.611   2.982  21.993  0.00  0.00    +0.000 HD
ENDBRANCH   1   3
BRANCH   1  19
ATOM     14  C   UNL     1       6.183   5.718  17.151  0.00  0.00    +0.000 A 
ATOM     15  C   UNL     1       7.146   6.745  17.253  0.00  0.00    +0.000 A 
ATOM     16  C   UNL     1       7.947   6.875  18.386  0.00  0.00    +0.000 A 
ATOM     17  C   UNL     1       7.801   5.974  19.430  0.00  0.00    +0.000 A 
ATOM     18  C   UNL     1       6.843   4.956  19.352  0.00  0.00    +0.000 A 
ATOM     19  C   UNL     1       5.997   4.819  18.233  0.00  0.00    +0.000 A 
BRANCH  14  20
ATOM     20  C   UNL     1       5.413   5.705  15.870  0.00  0.00    +0.000 C 
ATOM     21  O   UNL     1       5.091   6.726  15.274  0.00  0.00    +0.000 OA
BRANCH  20  23
ATOM     22  C   UNL     1       6.028   3.920  14.475  0.00  0.00    +0.000 C 
ATOM     23  O   UNL     1       5.129   4.444  15.461  0.00  0.00    +0.000 OA
ENDBRANCH  20  23
ENDBRANCH  14  20
ENDBRANCH   1  19
TORSDOF 4
ENDMDL
MODEL 7
REMARK VINA RESULT:      -7.1      1.510      1.811
REMARK  Name = 
REMARK  5 active torsions:
REMARK  status: ('A' for Active; 'I' for Inactive)
REMARK    1  A    between atoms: C_1  and  O_2
REMARK    2  A    between atoms: O_2  and  C_3
REMARK    3  A    between atoms: C_3  and  C_5
REMARK    4  A    between atoms: C_10  and  N_11
REMARK    5  A    between atoms: N_11  and  N_12
REMARK                            x       y       z     vdW  Elec       q    Type
REMARK                         _______ _______ _______ _____ _____    ______ ____
ROOT
ATOM      1  N   UNL     1       4.132   4.971  17.533  0.00  0.00    +0.000 N 
ATOM      2  H   UNL     1       3.910   5.979  17.501  0.00  0.00    +0.000 HD
ENDROOT
BRANCH   1   3
ATOM      3  N   UNL     1       4.701   4.414  16.410  0.00  0.00    +0.000 NA
ATOM      4  C   UNL     1       5.890   4.832  16.090  0.00  0.00    +0.000 C 
ATOM      5  C   UNL     1       6.766   5.791  16.779  0.00  0.00    +0.000 C 
ATOM      6  N   UNL     1       6.748   6.174  18.008  0.00  0.00    +0.000 NA
ATOM      7  O   UNL     1       7.667   6.176  15.828  0.00  0.00    +0.000 OA
ATOM      8  N   UNL     1       7.593   5.301  14.678  0.00  0.00    +0.000 NA
ATOM      9  C   UNL     1       6.595   4.490  14.833  0.00  0.00    +0.000 C 
ATOM     10  N   UNL     1       6.244   3.489  13.976  0.00  0.00    +0.000 N 
ATOM     11  H   UNL     1       6.020   5.638  18.500  0.00  0.00    +0.000 HD
ATOM     12  H   UNL     1       6.716   3.522  13.079  0.00  0.00    +0.000 HD
ATOM     13  H   UNL     1       5.257   3.252  13.928  0.00  0.00    +0.000 HD
ENDBRANCH   1   3
BRANCH   1  19
ATOM     14  C   UNL     1       2.191   4.878  19.103  0.00  0.00    +0.000 A 
ATOM     15  C   UNL     1       1.160   4.119  19.696  0.00  0.00    +0.000 A 
ATOM     16  C   UNL     1       0.981   2.773  19.384  0.00  0.00    +0.000 A 
ATOM     17  C   UNL     1       1.838   2.165  18.480  0.00  0.00    +0.000 A 
ATOM     18  C   UNL     1       2.860   2.904  17.872  0.00  0.00    +0.000 A 
ATOM     19  C   UNL     1       3.044   4.274  18.143  0.00  0.00    +0.000 A 
BRANCH  14  20
ATOM     20  C   UNL     1       2.258   6.303  19.549  0.00  0.00    +0.000 C 
ATOM     21  O   UNL     1       2.823   7.179  18.905  0.00  0.00    +0.000 OA
BRANCH  20  23
ATOM     22  C   UNL     1       1.361   7.868  21.051  0.00  0.00    +0.000 C 
ATOM     23  O   UNL     1       1.621   6.495  20.730  0.00  0.00    +0.000 OA
ENDBRANCH  20  23
ENDBRANCH  14  20
ENDBRANCH   1  19
TORSDOF 4
ENDMDL
MODEL 8
REMARK VINA RESULT:      -7.1      2.674      5.358
REMARK  Name = 
REMARK  5 active torsions:
REMARK  status: ('A' for Active; 'I' for Inactive)
REMARK    1  A    between atoms: C_1  and  O_2
REMARK    2  A    between atoms: O_2  and  C_3
REMARK    3  A    between atoms: C_3  and  C_5
REMARK    4  A    between atoms: C_10  and  N_11
REMARK    5  A    between atoms: N_11  and  N_12
REMARK                            x       y       z     vdW  Elec       q    Type
REMARK                         _______ _______ _______ _____ _____    ______ ____
ROOT
ATOM      1  N   UNL     1       5.956   4.244  18.708  0.00  0.00    +0.000 N 
ATOM      2  H   UNL     1       6.086   3.239  18.910  0.00  0.00    +0.000 HD
ENDROOT
BRANCH   1   3
ATOM      3  N   UNL     1       4.879   4.871  19.293  0.00  0.00    +0.000 NA
ATOM      4  C   UNL     1       3.963   4.101  19.803  0.00  0.00    +0.000 C 
ATOM      5  C   UNL     1       3.914   2.635  19.901  0.00  0.00    +0.000 C 
ATOM      6  N   UNL     1       4.877   1.782  19.845  0.00  0.00    +0.000 NA
ATOM      7  O   UNL     1       2.597   2.349  20.116  0.00  0.00    +0.000 OA
ATOM      8  N   UNL     1       1.867   3.552  20.452  0.00  0.00    +0.000 NA
ATOM      9  C   UNL     1       2.655   4.571  20.316  0.00  0.00    +0.000 C 
ATOM     10  N   UNL     1       2.334   5.867  20.592  0.00  0.00    +0.000 N 
ATOM     11  H   UNL     1       5.763   2.303  19.775  0.00  0.00    +0.000 HD
ATOM     12  H   UNL     1       1.344   6.028  20.749  0.00  0.00    +0.000 HD
ATOM     13  H   UNL     1       2.797   6.582  20.039  0.00  0.00    +0.000 HD
ENDBRANCH   1   3
BRANCH   1  19
ATOM     14  C   UNL     1       6.914   5.589  16.833  0.00  0.00    +0.000 A 
ATOM     15  C   UNL     1       7.066   5.777  15.443  0.00  0.00    +0.000 A 
ATOM     16  C   UNL     1       6.483   4.903  14.528  0.00  0.00    +0.000 A 
ATOM     17  C   UNL     1       5.732   3.833  14.991  0.00  0.00    +0.000 A 
ATOM     18  C   UNL     1       5.579   3.625  16.367  0.00  0.00    +0.000 A 
ATOM     19  C   UNL     1       6.183   4.472  17.316  0.00  0.00    +0.000 A 
BRANCH  14  20
ATOM     20  C   UNL     1       7.589   6.617  17.683  0.00  0.00    +0.000 C 
ATOM     21  O   UNL     1       7.983   6.389  18.821  0.00  0.00    +0.000 OA
BRANCH  20  23
ATOM     22  C   UNL     1       8.076   8.904  17.886  0.00  0.00    +0.000 C 
ATOM     23  O   UNL     1       7.711   7.805  17.041  0.00  0.00    +0.000 OA
ENDBRANCH  20  23
ENDBRANCH  14  20
ENDBRANCH   1  19
TORSDOF 4
ENDMDL
MODEL 9
REMARK VINA RESULT:      -7.0      1.561      1.787
REMARK  Name = 
REMARK  5 active torsions:
REMARK  status: ('A' for Active; 'I' for Inactive)
REMARK    1  A    between atoms: C_1  and  O_2
REMARK    2  A    between atoms: O_2  and  C_3
REMARK    3  A    between atoms: C_3  and  C_5
REMARK    4  A    between atoms: C_10  and  N_11
REMARK    5  A    between atoms: N_11  and  N_12
REMARK                            x       y       z     vdW  Elec       q    Type
REMARK                         _______ _______ _______ _____ _____    ______ ____
ROOT
ATOM      1  N   UNL     1       5.129   4.421  19.038  0.00  0.00    +0.000 N 
ATOM      2  H   UNL     1       5.435   5.368  19.314  0.00  0.00    +0.000 HD
ENDROOT
BRANCH   1   3
ATOM      3  N   UNL     1       5.395   4.025  17.747  0.00  0.00    +0.000 NA
ATOM      4  C   UNL     1       6.318   4.685  17.112  0.00  0.00    +0.000 C 
ATOM      5  C   UNL     1       7.179   5.781  17.579  0.00  0.00    +0.000 C 
ATOM      6  N   UNL     1       7.490   6.117  18.783  0.00  0.00    +0.000 NA
ATOM      7  O   UNL     1       7.637   6.369  16.436  0.00  0.00    +0.000 OA
ATOM      8  N   UNL     1       7.356   5.531  15.290  0.00  0.00    +0.000 NA
ATOM      9  C   UNL     1       6.628   4.530  15.672  0.00  0.00    +0.000 C 
ATOM     10  N   UNL     1       6.208   3.503  14.879  0.00  0.00    +0.000 N 
ATOM     11  H   UNL     1       7.072   5.430  19.426  0.00  0.00    +0.000 HD
ATOM     12  H   UNL     1       6.350   3.658  13.886  0.00  0.00    +0.000 HD
ATOM     13  H   UNL     1       5.320   3.073  15.118  0.00  0.00    +0.000 HD
ENDBRANCH   1   3
BRANCH   1  19
ATOM     14  C   UNL     1       2.810   5.194  19.555  0.00  0.00    +0.000 A 
ATOM     15  C   UNL     1       1.544   4.911  20.111  0.00  0.00    +0.000 A 
ATOM     16  C   UNL     1       1.268   3.672  20.686  0.00  0.00    +0.000 A 
ATOM     17  C   UNL     1       2.257   2.702  20.720  0.00  0.00    +0.000 A 
ATOM     18  C   UNL     1       3.515   2.960  20.164  0.00  0.00    +0.000 A 
ATOM     19  C   UNL     1       3.814   4.191  19.547  0.00  0.00    +0.000 A 
BRANCH  14  20
ATOM     20  C   UNL     1       2.953   6.569  18.988  0.00  0.00    +0.000 C 
ATOM     21  O   UNL     1       3.630   6.816  17.996  0.00  0.00    +0.000 OA
BRANCH  20  23
ATOM     22  C   UNL     1       1.789   8.606  18.927  0.00  0.00    +0.000 C 
ATOM     23  O   UNL     1       2.247   7.486  19.695  0.00  0.00    +0.000 OA
ENDBRANCH  20  23
ENDBRANCH  14  20
ENDBRANCH   1  19
TORSDOF 4
ENDMDL
