MODEL 1
REMARK VINA RESULT:      -7.5      0.000      0.000
REMARK  Name = 
REMARK  2 active torsions:
REMARK  status: ('A' for Active; 'I' for Inactive)
REMARK    1  A    between atoms: N_1  and  C_2
REMARK    2  A    between atoms: C_15  and  N_16
REMARK                            x       y       z     vdW  Elec       q    Type
REMARK                         _______ _______ _______ _____ _____    ______ ____
ROOT
ATOM      1  C   UNL     1       2.091   3.017  19.397  0.00  0.00    +0.000 C 
ATOM      2  C   UNL     1       2.917   3.781  18.639  0.00  0.00    +0.000 C 
ATOM      3  C   UNL     1       3.730   3.111  17.566  0.00  0.00    +0.000 C 
ATOM      4  O   UNL     1       3.758   1.892  17.410  0.00  0.00    +0.000 OA
ATOM      5  C   UNL     1       4.565   3.956  16.687  0.00  0.00    +0.000 A 
ATOM      6  C   UNL     1       5.306   3.339  15.665  0.00  0.00    +0.000 A 
ATOM      7  C   UNL     1       6.130   4.095  14.827  0.00  0.00    +0.000 A 
ATOM      8  C   UNL     1       6.218   5.471  15.004  0.00  0.00    +0.000 A 
ATOM      9  C   UNL     1       5.485   6.088  16.017  0.00  0.00    +0.000 A 
ATOM     10  C   UNL     1       4.656   5.330  16.863  0.00  0.00    +0.000 A 
ATOM     11  C   UNL     1       3.922   6.028  17.938  0.00  0.00    +0.000 C 
ATOM     12  O   UNL     1       4.116   7.232  18.092  0.00  0.00    +0.000 OA
ATOM     13  C   UNL     1       3.010   5.224  18.820  0.00  0.00    +0.000 C 
ATOM     14  C   UNL     1       2.276   5.881  19.748  0.00  0.00    +0.000 C 
ATOM     15  C   UNL     1       1.402   5.130  20.725  0.00  0.00    +0.000 C 
ATOM     16  C   UNL     1       1.304   3.620  20.540  0.00  0.00    +0.000 C 
ENDROOT
BRANCH   1  17
ATOM     17  N   UNL     1       1.854   1.664  19.216  0.00  0.00    +0.000 N 
ATOM     18  H   UNL     1       1.243   1.458  18.416  0.00  0.00    +0.000 HD
ATOM     19  H   UNL     1       2.666   1.058  19.274  0.00  0.00    +0.000 HD
ENDBRANCH   1  17
BRANCH  14  20
ATOM     20  N   UNL     1       2.218   7.260  19.903  0.00  0.00    +0.000 N 
ATOM     21  H   UNL     1       3.044   7.647  20.379  0.00  0.00    +0.000 HD
ATOM     22  H   UNL     1       1.343   7.627  20.264  0.00  0.00    +0.000 HD
ENDBRANCH  14  20
TORSDOF 2
ENDMDL
MODEL 2
REMARK VINA RESULT:      -7.5      0.165      3.238
REMARK  Name = 
REMARK  2 active torsions:
REMARK  status: ('A' for Active; 'I' for Inactive)
REMARK    1  A    between atoms: N_1  and  C_2
REMARK    2  A    between atoms: C_15  and  N_16
REMARK                            x       y       z     vdW  Elec       q    Type
REMARK                         _______ _______ _______ _____ _____    ______ ____
ROOT
ATOM      1  C   UNL     1       2.192   5.885  19.764  0.00  0.00    +0.000 C 
ATOM      2  C   UNL     1       2.881   5.254  18.780  0.00  0.00    +0.000 C 
ATOM      3  C   UNL     1       3.766   6.076  17.884  0.00  0.00    +0.000 C 
ATOM      4  O   UNL     1       3.816   7.303  17.934  0.00  0.00    +0.000 OA
ATOM      5  C   UNL     1       4.580   5.376  16.868  0.00  0.00    +0.000 A 
ATOM      6  C   UNL     1       5.429   6.135  16.045  0.00  0.00    +0.000 A 
ATOM      7  C   UNL     1       6.197   5.520  15.054  0.00  0.00    +0.000 A 
ATOM      8  C   UNL     1       6.123   4.143  14.878  0.00  0.00    +0.000 A 
ATOM      9  C   UNL     1       5.282   3.385  15.692  0.00  0.00    +0.000 A 
ATOM     10  C   UNL     1       4.506   4.001  16.691  0.00  0.00    +0.000 A 
ATOM     11  C   UNL     1       3.610   3.158  17.506  0.00  0.00    +0.000 C 
ATOM     12  O   UNL     1       3.529   1.961  17.238  0.00  0.00    +0.000 OA
ATOM     13  C   UNL     1       2.808   3.810  18.595  0.00  0.00    +0.000 C 
ATOM     14  C   UNL     1       2.053   3.020  19.395  0.00  0.00    +0.000 C 
ATOM     15  C   UNL     1       1.156   3.615  20.456  0.00  0.00    +0.000 C 
ATOM     16  C   UNL     1       1.228   5.126  20.650  0.00  0.00    +0.000 C 
ENDROOT
BRANCH   1  17
ATOM     17  N   UNL     1       2.294   7.229  20.084  0.00  0.00    +0.000 N 
ATOM     18  H   UNL     1       2.476   7.401  21.081  0.00  0.00    +0.000 HD
ATOM     19  H   UNL     1       2.867   7.792  19.463  0.00  0.00    +0.000 HD
ENDBRANCH   1  17
BRANCH  14  20
ATOM     20  N   UNL     1       2.022   1.632  19.360  0.00  0.00    +0.000 N 
ATOM     21  H   UNL     1       1.249   1.233  19.910  0.00  0.00    +0.000 HD
ATOM     22  H   UNL     1       2.908   1.167  19.524  0.00  0.00    +0.000 HD
ENDBRANCH  14  20
TORSDOF 2
ENDMDL
MODEL 3
REMARK VINA RESULT:      -6.8      1.002      1.028
REMARK  Name = 
REMARK  2 active torsions:
REMARK  status: ('A' for Active; 'I' for Inactive)
REMARK    1  A    between atoms: N_1  and  C_2
REMARK    2  A    between atoms: C_15  and  N_16
REMARK                            x       y       z     vdW  Elec       q    Type
REMARK                         _______ _______ _______ _____ _____    ______ ____
ROOT
ATOM      1  C   UNL     1       2.720   4.009  20.219  0.00  0.00    +0.000 C 
ATOM      2  C   UNL     1       3.338   4.574  19.152  0.00  0.00    +0.000 C 
ATOM      3  C   UNL     1       4.205   3.706  18.282  0.00  0.00    +0.000 C 
ATOM      4  O   UNL     1       4.461   2.534  18.549  0.00  0.00    +0.000 OA
ATOM      5  C   UNL     1       4.810   4.305  17.074  0.00  0.00    +0.000 A 
ATOM      6  C   UNL     1       5.599   3.494  16.242  0.00  0.00    +0.000 A 
ATOM      7  C   UNL     1       6.211   4.023  15.104  0.00  0.00    +0.000 A 
ATOM      8  C   UNL     1       6.040   5.366  14.789  0.00  0.00    +0.000 A 
ATOM      9  C   UNL     1       5.258   6.176  15.611  0.00  0.00    +0.000 A 
ATOM     10  C   UNL     1       4.641   5.647  16.759  0.00  0.00    +0.000 A 
ATOM     11  C   UNL     1       3.847   6.554  17.612  0.00  0.00    +0.000 C 
ATOM     12  O   UNL     1       3.811   7.748  17.321  0.00  0.00    +0.000 OA
ATOM     13  C   UNL     1       3.159   5.982  18.818  0.00  0.00    +0.000 C 
ATOM     14  C   UNL     1       2.364   6.799  19.548  0.00  0.00    +0.000 C 
ATOM     15  C   UNL     1       1.707   6.315  20.820  0.00  0.00    +0.000 C 
ATOM     16  C   UNL     1       1.896   4.844  21.175  0.00  0.00    +0.000 C 
ENDROOT
BRANCH   1  17
ATOM     17  N   UNL     1       2.741   2.661  20.540  0.00  0.00    +0.000 N 
ATOM     18  H   UNL     1       2.723   2.479  21.552  0.00  0.00    +0.000 HD
ATOM     19  H   UNL     1       2.111   2.067  20.009  0.00  0.00    +0.000 HD
ENDBRANCH   1  17
BRANCH  14  20
ATOM     20  N   UNL     1       2.047   8.113  19.229  0.00  0.00    +0.000 N 
ATOM     21  H   UNL     1       2.854   8.649  18.882  0.00  0.00    +0.000 HD
ATOM     22  H   UNL     1       1.504   8.616  19.923  0.00  0.00    +0.000 HD
ENDBRANCH  14  20
TORSDOF 2
ENDMDL
MODEL 4
REMARK VINA RESULT:      -6.8      1.722      4.647
REMARK  Name = 
REMARK  2 active torsions:
REMARK  status: ('A' for Active; 'I' for Inactive)
REMARK    1  A    between atoms: N_1  and  C_2
REMARK    2  A    between atoms: C_15  and  N_16
REMARK                            x       y       z     vdW  Elec       q    Type
REMARK                         _______ _______ _______ _____ _____    ______ ____
ROOT
ATOM      1  C   UNL     1       5.192   4.189  16.170  0.00  0.00    +0.000 C 
ATOM      2  C   UNL     1       4.306   4.345  17.184  0.00  0.00    +0.000 C 
ATOM      3  C   UNL     1       3.836   3.122  17.921  0.00  0.00    +0.000 C 
ATOM      4  O   UNL     1       4.138   1.979  17.583  0.00  0.00    +0.000 OA
ATOM      5  C   UNL     1       2.936   3.302  19.079  0.00  0.00    +0.000 A 
ATOM      6  C   UNL     1       2.515   2.165  19.789  0.00  0.00    +0.000 A 
ATOM      7  C   UNL     1       1.643   2.285  20.874  0.00  0.00    +0.000 A 
ATOM      8  C   UNL     1       1.187   3.540  21.258  0.00  0.00    +0.000 A 
ATOM      9  C   UNL     1       1.602   4.673  20.557  0.00  0.00    +0.000 A 
ATOM     10  C   UNL     1       2.478   4.556  19.463  0.00  0.00    +0.000 A 
ATOM     11  C   UNL     1       2.865   5.782  18.737  0.00  0.00    +0.000 C 
ATOM     12  O   UNL     1       2.354   6.847  19.076  0.00  0.00    +0.000 OA
ATOM     13  C   UNL     1       3.828   5.661  17.591  0.00  0.00    +0.000 C 
ATOM     14  C   UNL     1       4.244   6.797  16.984  0.00  0.00    +0.000 C 
ATOM     15  C   UNL     1       5.146   6.748  15.772  0.00  0.00    +0.000 C 
ATOM     16  C   UNL     1       5.645   5.373  15.342  0.00  0.00    +0.000 C 
ENDROOT
BRANCH   1  17
ATOM     17  N   UNL     1       5.786   2.994  15.796  0.00  0.00    +0.000 N 
ATOM     18  H   UNL     1       5.462   2.642  14.886  0.00  0.00    +0.000 HD
ATOM     19  H   UNL     1       6.792   2.940  15.918  0.00  0.00    +0.000 HD
ENDBRANCH   1  17
BRANCH  14  20
ATOM     20  N   UNL     1       3.931   8.089  17.386  0.00  0.00    +0.000 N 
ATOM     21  H   UNL     1       3.504   8.652  16.638  0.00  0.00    +0.000 HD
ATOM     22  H   UNL     1       4.660   8.583  17.888  0.00  0.00    +0.000 HD
ENDBRANCH  14  20
TORSDOF 2
ENDMDL
MODEL 5
REMARK VINA RESULT:      -6.6      1.072      3.281
REMARK  Name = 
REMARK  2 active torsions:
REMARK  status: ('A' for Active; 'I' for Inactive)
REMARK    1  A    between atoms: N_1  and  C_2
REMARK    2  A    between atoms: C_15  and  N_16
REMARK                            x       y       z     vdW  Elec       q    Type
REMARK                         _______ _______ _______ _____ _____    ______ ____
ROOT
ATOM      1  C   UNL     1       2.289   6.975  19.399  0.00  0.00    +0.000 C 
ATOM      2  C   UNL     1       3.039   6.117  18.664  0.00  0.00    +0.000 C 
ATOM      3  C   UNL     1       3.733   6.640  17.437  0.00  0.00    +0.000 C 
ATOM      4  O   UNL     1       3.571   7.781  17.011  0.00  0.00    +0.000 OA
ATOM      5  C   UNL     1       4.616   5.724  16.686  0.00  0.00    +0.000 A 
ATOM      6  C   UNL     1       5.289   6.213  15.554  0.00  0.00    +0.000 A 
ATOM      7  C   UNL     1       6.114   5.377  14.797  0.00  0.00    +0.000 A 
ATOM      8  C   UNL     1       6.273   4.047  15.167  0.00  0.00    +0.000 A 
ATOM      9  C   UNL     1       5.608   3.555  16.290  0.00  0.00    +0.000 A 
ATOM     10  C   UNL     1       4.775   4.394  17.053  0.00  0.00    +0.000 A 
ATOM     11  C   UNL     1       4.071   3.818  18.216  0.00  0.00    +0.000 C 
ATOM     12  O   UNL     1       4.189   2.613  18.433  0.00  0.00    +0.000 OA
ATOM     13  C   UNL     1       3.210   4.721  19.051  0.00  0.00    +0.000 C 
ATOM     14  C   UNL     1       2.635   4.208  20.164  0.00  0.00    +0.000 C 
ATOM     15  C   UNL     1       1.690   5.034  21.005  0.00  0.00    +0.000 C 
ATOM     16  C   UNL     1       1.506   6.493  20.601  0.00  0.00    +0.000 C 
ENDROOT
BRANCH   1  17
ATOM     17  N   UNL     1       2.168   8.337  19.171  0.00  0.00    +0.000 N 
ATOM     18  H   UNL     1       1.256   8.720  19.449  0.00  0.00    +0.000 HD
ATOM     19  H   UNL     1       2.956   8.908  19.462  0.00  0.00    +0.000 HD
ENDBRANCH   1  17
BRANCH  14  20
ATOM     20  N   UNL     1       2.844   2.929  20.663  0.00  0.00    +0.000 N 
ATOM     21  H   UNL     1       1.989   2.357  20.675  0.00  0.00    +0.000 HD
ATOM     22  H   UNL     1       3.371   2.875  21.528  0.00  0.00    +0.000 HD
ENDBRANCH  14  20
TORSDOF 2
ENDMDL
MODEL 6
REMARK VINA RESULT:      -6.5      1.747      5.548
REMARK  Name = 
REMARK  2 active torsions:
REMARK  status: ('A' for Active; 'I' for Inactive)
REMARK    1  A    between atoms: N_1  and  C_2
REMARK    2  A    between atoms: C_15  and  N_16
REMARK                            x       y       z     vdW  Elec       q    Type
REMARK                         _______ _______ _______ _____ _____    ______ ____
ROOT
ATOM      1  C   UNL     1       4.032   6.979  17.169  0.00  0.00    +0.000 C 
ATOM      2  C   UNL     1       3.742   5.818  17.808  0.00  0.00    +0.000 C 
ATOM      3  C   UNL     1       2.790   5.858  18.971  0.00  0.00    +0.000 C 
ATOM      4  O   UNL     1       2.341   6.904  19.434  0.00  0.00    +0.000 OA
ATOM      5  C   UNL     1       2.411   4.582  19.612  0.00  0.00    +0.000 A 
ATOM      6  C   UNL     1       1.500   4.609  20.681  0.00  0.00    +0.000 A 
ATOM      7  C   UNL     1       1.133   3.430  21.335  0.00  0.00    +0.000 A 
ATOM      8  C   UNL     1       1.672   2.216  20.924  0.00  0.00    +0.000 A 
ATOM      9  C   UNL     1       2.576   2.183  19.862  0.00  0.00    +0.000 A 
ATOM     10  C   UNL     1       2.949   3.368  19.203  0.00  0.00    +0.000 A 
ATOM     11  C   UNL     1       3.931   3.283  18.104  0.00  0.00    +0.000 C 
ATOM     12  O   UNL     1       4.433   2.189  17.852  0.00  0.00    +0.000 OA
ATOM     13  C   UNL     1       4.303   4.543  17.377  0.00  0.00    +0.000 C 
ATOM     14  C   UNL     1       5.139   4.447  16.317  0.00  0.00    +0.000 C 
ATOM     15  C   UNL     1       5.623   5.681  15.591  0.00  0.00    +0.000 C 
ATOM     16  C   UNL     1       5.040   7.016  16.040  0.00  0.00    +0.000 C 
ENDROOT
BRANCH   1  17
ATOM     17  N   UNL     1       3.455   8.210  17.435  0.00  0.00    +0.000 N 
ATOM     18  H   UNL     1       3.259   8.763  16.591  0.00  0.00    +0.000 HD
ATOM     19  H   UNL     1       2.694   8.209  18.106  0.00  0.00    +0.000 HD
ENDBRANCH   1  17
BRANCH  14  20
ATOM     20  N   UNL     1       5.620   3.263  15.773  0.00  0.00    +0.000 N 
ATOM     21  H   UNL     1       5.124   2.430  16.118  0.00  0.00    +0.000 HD
ATOM     22  H   UNL     1       6.628   3.154  15.776  0.00  0.00    +0.000 HD
ENDBRANCH  14  20
TORSDOF 2
ENDMDL
MODEL 7
REMARK VINA RESULT:      -6.5      2.410      4.870
REMARK  Name = 
REMARK  2 active torsions:
REMARK  status: ('A' for Active; 'I' for Inactive)
REMARK    1  A    between atoms: N_1  and  C_2
REMARK    2  A    between atoms: C_15  and  N_16
REMARK                            x       y       z     vdW  Elec       q    Type
REMARK                         _______ _______ _______ _____ _____    ______ ____
ROOT
ATOM      1  C   UNL     1       6.291   5.047  17.909  0.00  0.00    +0.000 C 
ATOM      2  C   UNL     1       5.049   4.921  18.441  0.00  0.00    +0.000 C 
ATOM      3  C   UNL     1       4.757   3.725  19.304  0.00  0.00    +0.000 C 
ATOM      4  O   UNL     1       5.556   2.805  19.468  0.00  0.00    +0.000 OA
ATOM      5  C   UNL     1       3.431   3.632  19.950  0.00  0.00    +0.000 A 
ATOM      6  C   UNL     1       3.160   2.531  20.779  0.00  0.00    +0.000 A 
ATOM      7  C   UNL     1       1.912   2.389  21.390  0.00  0.00    +0.000 A 
ATOM      8  C   UNL     1       0.926   3.345  21.176  0.00  0.00    +0.000 A 
ATOM      9  C   UNL     1       1.189   4.440  20.354  0.00  0.00    +0.000 A 
ATOM     10  C   UNL     1       2.444   4.586  19.736  0.00  0.00    +0.000 A 
ATOM     11  C   UNL     1       2.663   5.748  18.852  0.00  0.00    +0.000 C 
ATOM     12  O   UNL     1       1.718   6.506  18.639  0.00  0.00    +0.000 OA
ATOM     13  C   UNL     1       4.014   5.923  18.221  0.00  0.00    +0.000 C 
ATOM     14  C   UNL     1       4.234   7.034  17.480  0.00  0.00    +0.000 C 
ATOM     15  C   UNL     1       5.540   7.236  16.747  0.00  0.00    +0.000 C 
ATOM     16  C   UNL     1       6.625   6.188  16.972  0.00  0.00    +0.000 C 
ENDROOT
BRANCH   1  17
ATOM     17  N   UNL     1       7.364   4.208  18.161  0.00  0.00    +0.000 N 
ATOM     18  H   UNL     1       7.771   4.331  19.097  0.00  0.00    +0.000 HD
ATOM     19  H   UNL     1       7.240   3.236  17.897  0.00  0.00    +0.000 HD
ENDBRANCH   1  17
BRANCH  14  20
ATOM     20  N   UNL     1       3.344   8.089  17.322  0.00  0.00    +0.000 N 
ATOM     21  H   UNL     1       3.288   8.426  16.352  0.00  0.00    +0.000 HD
ATOM     22  H   UNL     1       3.425   8.839  18.000  0.00  0.00    +0.000 HD
ENDBRANCH  14  20
TORSDOF 2
ENDMDL
MODEL 8
REMARK VINA RESULT:      -6.4      2.502      4.424
REMARK  Name = 
REMARK  2 active torsions:
REMARK  status: ('A' for Active; 'I' for Inactive)
REMARK    1  A    between atoms: N_1  and  C_2
REMARK    2  A    between atoms: C_15  and  N_16
REMARK                            x       y       z     vdW  Elec       q    Type
REMARK                         _______ _______ _______ _____ _____    ______ ____
ROOT
ATOM      1  C   UNL     1       2.838   3.607  20.707  0.00  0.00    +0.000 C 
ATOM      2  C   UNL     1       2.864   4.696  19.900  0.00  0.00    +0.000 C 
ATOM      3  C   UNL     1       2.034   5.891  20.280  0.00  0.00    +0.000 C 
ATOM      4  O   UNL     1       1.255   5.891  21.230  0.00  0.00    +0.000 OA
ATOM      5  C   UNL     1       2.130   7.106  19.444  0.00  0.00    +0.000 A 
ATOM      6  C   UNL     1       1.377   8.235  19.808  0.00  0.00    +0.000 A 
ATOM      7  C   UNL     1       1.416   9.397  19.034  0.00  0.00    +0.000 A 
ATOM      8  C   UNL     1       2.206   9.439  17.891  0.00  0.00    +0.000 A 
ATOM      9  C   UNL     1       2.955   8.321  17.524  0.00  0.00    +0.000 A 
ATOM     10  C   UNL     1       2.918   7.149  18.301  0.00  0.00    +0.000 A 
ATOM     11  C   UNL     1       3.706   5.984  17.855  0.00  0.00    +0.000 C 
ATOM     12  O   UNL     1       4.312   6.062  16.788  0.00  0.00    +0.000 OA
ATOM     13  C   UNL     1       3.694   4.744  18.702  0.00  0.00    +0.000 C 
ATOM     14  C   UNL     1       4.485   3.709  18.333  0.00  0.00    +0.000 C 
ATOM     15  C   UNL     1       4.461   2.401  19.090  0.00  0.00    +0.000 C 
ATOM     16  C   UNL     1       3.592   2.347  20.341  0.00  0.00    +0.000 C 
ENDROOT
BRANCH   1  17
ATOM     17  N   UNL     1       2.173   3.519  21.920  0.00  0.00    +0.000 N 
ATOM     18  H   UNL     1       1.158   3.389  21.824  0.00  0.00    +0.000 HD
ATOM     19  H   UNL     1       2.597   2.915  22.617  0.00  0.00    +0.000 HD
ENDBRANCH   1  17
BRANCH  14  20
ATOM     20  N   UNL     1       5.390   3.721  17.279  0.00  0.00    +0.000 N 
ATOM     21  H   UNL     1       4.935   3.789  16.359  0.00  0.00    +0.000 HD
ATOM     22  H   UNL     1       6.114   3.012  17.314  0.00  0.00    +0.000 HD
ENDBRANCH  14  20
TORSDOF 2
ENDMDL
MODEL 9
REMARK VINA RESULT:      -6.4      2.440      5.512
REMARK  Name = 
REMARK  2 active torsions:
REMARK  status: ('A' for Active; 'I' for Inactive)
REMARK    1  A    between atoms: N_1  and  C_2
REMARK    2  A    between atoms: C_15  and  N_16
REMARK                            x       y       z     vdW  Elec       q    Type
REMARK                         _______ _______ _______ _____ _____    ______ ____
ROOT
ATOM      1  C   UNL     1       4.257   7.157  17.599  0.00  0.00    +0.000 C 
ATOM      2  C   UNL     1       4.047   6.052  18.358  0.00  0.00    +0.000 C 
ATOM      3  C   UNL     1       2.716   5.893  19.040  0.00  0.00    +0.000 C 
ATOM      4  O   UNL     1       1.847   6.762  19.026  0.00  0.00    +0.000 OA
ATOM      5  C   UNL     1       2.460   4.650  19.797  0.00  0.00    +0.000 A 
ATOM      6  C   UNL     1       1.209   4.482  20.414  0.00  0.00    +0.000 A 
ATOM      7  C   UNL     1       0.931   3.335  21.162  0.00  0.00    +0.000 A 
ATOM      8  C   UNL     1       1.900   2.349  21.298  0.00  0.00    +0.000 A 
ATOM      9  C   UNL     1       3.144   2.509  20.688  0.00  0.00    +0.000 A 
ATOM     10  C   UNL     1       3.428   3.663  19.935  0.00  0.00    +0.000 A 
ATOM     11  C   UNL     1       4.769   3.799  19.333  0.00  0.00    +0.000 C 
ATOM     12  O   UNL     1       5.605   2.929  19.568  0.00  0.00    +0.000 OA
ATOM     13  C   UNL     1       5.060   5.014  18.501  0.00  0.00    +0.000 C 
ATOM     14  C   UNL     1       6.262   5.092  17.882  0.00  0.00    +0.000 C 
ATOM     15  C   UNL     1       6.656   6.322  17.097  0.00  0.00    +0.000 C 
ATOM     16  C   UNL     1       5.599   7.412  16.949  0.00  0.00    +0.000 C 
ENDROOT
BRANCH   1  17
ATOM     17  N   UNL     1       3.312   8.130  17.315  0.00  0.00    +0.000 N 
ATOM     18  H   UNL     1       3.315   8.431  16.332  0.00  0.00    +0.000 HD
ATOM     19  H   UNL     1       2.382   7.970  17.689  0.00  0.00    +0.000 HD
ENDBRANCH   1  17
BRANCH  14  20
ATOM     20  N   UNL     1       7.230   4.096  17.870  0.00  0.00    +0.000 N 
ATOM     21  H   UNL     1       8.116   4.401  17.446  0.00  0.00    +0.000 HD
ATOM     22  H   UNL     1       6.922   3.187  17.540  0.00  0.00    +0.000 HD
ENDBRANCH  14  20
TORSDOF 2
ENDMDL
