MODEL 1
REMARK VINA RESULT:      -7.9      0.000      0.000
REMARK  Name = 
REMARK  6 active torsions:
REMARK  status: ('A' for Active; 'I' for Inactive)
REMARK    1  A    between atoms: C_1  and  C_2
REMARK    2  A    between atoms: N_4  and  C_5
REMARK    3  A    between atoms: C_5  and  C_6
REMARK    4  A    between atoms: C_6  and  C_7
REMARK    5  A    between atoms: C_10  and  C_11
REMARK    6  A    between atoms: C_11  and  C_12
REMARK                            x       y       z     vdW  Elec       q    Type
REMARK                         _______ _______ _______ _____ _____    ______ ____
ROOT
ATOM      1  C   UNL     1       6.036   5.288  18.904  0.00  0.00    +0.000 A 
ATOM      2  N   UNL     1       5.976   3.958  19.037  0.00  0.00    +0.000 NA
ATOM      3  O   UNL     1       4.632   3.729  19.334  0.00  0.00    +0.000 OA
ATOM      4  C   UNL     1       4.018   4.951  19.343  0.00  0.00    +0.000 A 
ATOM      5  N   UNL     1       4.846   5.941  19.088  0.00  0.00    +0.000 NA
ENDROOT
BRANCH   4   6
ATOM      6  C   UNL     1       2.542   5.145  19.717  0.00  0.00    +0.000 C 
ATOM      7  C   UNL     1       1.596   4.066  19.102  0.00  0.00    +0.000 C 
ATOM      8  C   UNL     1       0.885   4.000  20.469  0.00  0.00    +0.000 C 
ATOM      9  C   UNL     1       2.173   4.551  21.114  0.00  0.00    +0.000 C 
BRANCH   6  10
ATOM     10  C   UNL     1       2.210   6.709  19.460  0.00  0.00    +0.000 A 
ATOM     11  C   UNL     1       1.733   7.561  20.480  0.00  0.00    +0.000 A 
ATOM     12  C   UNL     1       1.310   8.869  20.218  0.00  0.00    +0.000 A 
ATOM     13  C   UNL     1       1.353   9.369  18.922  0.00  0.00    +0.000 A 
ATOM     14  C   UNL     1       1.842   8.573  17.895  0.00  0.00    +0.000 A 
ATOM     15  C   UNL     1       2.268   7.269  18.165  0.00  0.00    +0.000 A 
ENDBRANCH   6  10
ENDBRANCH   4   6
BRANCH   1  16
ATOM     16  C   UNL     1       7.305   5.991  18.592  0.00  0.00    +0.000 C 
BRANCH  16  17
ATOM     17  C   UNL     1       7.352   6.514  17.158  0.00  0.00    +0.000 C 
BRANCH  17  21
ATOM     18  C   UNL     1       5.574   4.653  14.383  0.00  0.00    +0.000 C 
ATOM     19  C   UNL     1       6.732   5.269  15.118  0.00  0.00    +0.000 C 
ATOM     20  O   UNL     1       7.883   5.233  14.694  0.00  0.00    +0.000 OA
ATOM     21  N   UNL     1       6.370   5.874  16.300  0.00  0.00    +0.000 N 
ATOM     22  H   UNL     1       5.390   5.927  16.554  0.00  0.00    +0.000 HD
ENDBRANCH  17  21
ENDBRANCH  16  17
ENDBRANCH   1  16
TORSDOF 5
ENDMDL
MODEL 2
REMARK VINA RESULT:      -7.7      1.667      2.057
REMARK  Name = 
REMARK  6 active torsions:
REMARK  status: ('A' for Active; 'I' for Inactive)
REMARK    1  A    between atoms: C_1  and  C_2
REMARK    2  A    between atoms: N_4  and  C_5
REMARK    3  A    between atoms: C_5  and  C_6
REMARK    4  A    between atoms: C_6  and  C_7
REMARK    5  A    between atoms: C_10  and  C_11
REMARK    6  A    between atoms: C_11  and  C_12
REMARK                            x       y       z     vdW  Elec       q    Type
REMARK                         _______ _______ _______ _____ _____    ______ ____
ROOT
ATOM      1  C   UNL     1       6.170   4.460  17.074  0.00  0.00    +0.000 A 
ATOM      2  N   UNL     1       6.574   4.504  18.350  0.00  0.00    +0.000 NA
ATOM      3  O   UNL     1       5.376   4.492  19.064  0.00  0.00    +0.000 OA
ATOM      4  C   UNL     1       4.369   4.436  18.140  0.00  0.00    +0.000 A 
ATOM      5  N   UNL     1       4.812   4.419  16.901  0.00  0.00    +0.000 NA
ENDROOT
BRANCH   4   6
ATOM      6  C   UNL     1       2.881   4.493  18.516  0.00  0.00    +0.000 C 
ATOM      7  C   UNL     1       1.956   3.733  17.514  0.00  0.00    +0.000 C 
ATOM      8  C   UNL     1       1.203   3.169  18.734  0.00  0.00    +0.000 C 
ATOM      9  C   UNL     1       2.469   3.424  19.577  0.00  0.00    +0.000 C 
BRANCH   6  10
ATOM     10  C   UNL     1       2.557   6.043  18.853  0.00  0.00    +0.000 A 
ATOM     11  C   UNL     1       2.135   6.469  20.131  0.00  0.00    +0.000 A 
ATOM     12  C   UNL     1       1.716   7.781  20.377  0.00  0.00    +0.000 A 
ATOM     13  C   UNL     1       1.709   8.715  19.346  0.00  0.00    +0.000 A 
ATOM     14  C   UNL     1       2.143   8.344  18.081  0.00  0.00    +0.000 A 
ATOM     15  C   UNL     1       2.565   7.032  17.844  0.00  0.00    +0.000 A 
ENDBRANCH   6  10
ENDBRANCH   4   6
BRANCH   1  16
ATOM     16  C   UNL     1       7.131   4.467  15.944  0.00  0.00    +0.000 C 
BRANCH  16  17
ATOM     17  C   UNL     1       6.520   5.012  14.655  0.00  0.00    +0.000 C 
BRANCH  17  21
ATOM     18  C   UNL     1       5.634   2.581  11.894  0.00  0.00    +0.000 C 
ATOM     19  C   UNL     1       6.374   3.703  12.567  0.00  0.00    +0.000 C 
ATOM     20  O   UNL     1       7.289   4.314  12.025  0.00  0.00    +0.000 OA
ATOM     21  N   UNL     1       5.921   3.971  13.839  0.00  0.00    +0.000 N 
ATOM     22  H   UNL     1       5.115   3.472  14.197  0.00  0.00    +0.000 HD
ENDBRANCH  17  21
ENDBRANCH  16  17
ENDBRANCH   1  16
TORSDOF 5
ENDMDL
MODEL 3
REMARK VINA RESULT:      -7.7      2.427      3.280
REMARK  Name = 
REMARK  6 active torsions:
REMARK  status: ('A' for Active; 'I' for Inactive)
REMARK    1  A    between atoms: C_1  and  C_2
REMARK    2  A    between atoms: N_4  and  C_5
REMARK    3  A    between atoms: C_5  and  C_6
REMARK    4  A    between atoms: C_6  and  C_7
REMARK    5  A    between atoms: C_10  and  C_11
REMARK    6  A    between atoms: C_11  and  C_12
REMARK                            x       y       z     vdW  Elec       q    Type
REMARK                         _______ _______ _______ _____ _____    ______ ____
ROOT
ATOM      1  C   UNL     1       6.136   4.327  16.158  0.00  0.00    +0.000 A 
ATOM      2  N   UNL     1       6.784   4.597  17.299  0.00  0.00    +0.000 NA
ATOM      3  O   UNL     1       5.823   4.346  18.278  0.00  0.00    +0.000 OA
ATOM      4  C   UNL     1       4.692   3.943  17.624  0.00  0.00    +0.000 A 
ATOM      5  N   UNL     1       4.837   3.921  16.316  0.00  0.00    +0.000 NA
ENDROOT
BRANCH   4   6
ATOM      6  C   UNL     1       3.366   3.651  18.341  0.00  0.00    +0.000 C 
ATOM      7  C   UNL     1       2.432   2.680  17.553  0.00  0.00    +0.000 C 
ATOM      8  C   UNL     1       2.145   1.970  18.891  0.00  0.00    +0.000 C 
ATOM      9  C   UNL     1       3.481   2.530  19.421  0.00  0.00    +0.000 C 
BRANCH   6  10
ATOM     10  C   UNL     1       2.779   5.085  18.813  0.00  0.00    +0.000 A 
ATOM     11  C   UNL     1       2.893   6.248  18.021  0.00  0.00    +0.000 A 
ATOM     12  C   UNL     1       2.516   7.510  18.495  0.00  0.00    +0.000 A 
ATOM     13  C   UNL     1       2.009   7.647  19.782  0.00  0.00    +0.000 A 
ATOM     14  C   UNL     1       1.855   6.524  20.583  0.00  0.00    +0.000 A 
ATOM     15  C   UNL     1       2.228   5.266  20.100  0.00  0.00    +0.000 A 
ENDBRANCH   6  10
ENDBRANCH   4   6
BRANCH   1  16
ATOM     16  C   UNL     1       6.784   4.472  14.832  0.00  0.00    +0.000 C 
BRANCH  16  17
ATOM     17  C   UNL     1       5.853   4.107  13.678  0.00  0.00    +0.000 C 
BRANCH  17  21
ATOM     18  C   UNL     1       6.379   1.406  11.080  0.00  0.00    +0.000 C 
ATOM     19  C   UNL     1       5.666   2.518  11.798  0.00  0.00    +0.000 C 
ATOM     20  O   UNL     1       4.561   2.928  11.457  0.00  0.00    +0.000 OA
ATOM     21  N   UNL     1       6.373   3.019  12.867  0.00  0.00    +0.000 N 
ATOM     22  H   UNL     1       7.248   2.586  13.134  0.00  0.00    +0.000 HD
ENDBRANCH  17  21
ENDBRANCH  16  17
ENDBRANCH   1  16
TORSDOF 5
ENDMDL
MODEL 4
REMARK VINA RESULT:      -7.7      0.693      1.255
REMARK  Name = 
REMARK  6 active torsions:
REMARK  status: ('A' for Active; 'I' for Inactive)
REMARK    1  A    between atoms: C_1  and  C_2
REMARK    2  A    between atoms: N_4  and  C_5
REMARK    3  A    between atoms: C_5  and  C_6
REMARK    4  A    between atoms: C_6  and  C_7
REMARK    5  A    between atoms: C_10  and  C_11
REMARK    6  A    between atoms: C_11  and  C_12
REMARK                            x       y       z     vdW  Elec       q    Type
REMARK                         _______ _______ _______ _____ _____    ______ ____
ROOT
ATOM      1  C   UNL     1       6.044   5.277  18.949  0.00  0.00    +0.000 A 
ATOM      2  N   UNL     1       6.026   3.938  18.948  0.00  0.00    +0.000 NA
ATOM      3  O   UNL     1       4.689   3.638  19.214  0.00  0.00    +0.000 OA
ATOM      4  C   UNL     1       4.037   4.833  19.342  0.00  0.00    +0.000 A 
ATOM      5  N   UNL     1       4.833   5.870  19.192  0.00  0.00    +0.000 NA
ENDROOT
BRANCH   4   6
ATOM      6  C   UNL     1       2.554   4.942  19.727  0.00  0.00    +0.000 C 
ATOM      7  C   UNL     1       1.679   3.774  19.173  0.00  0.00    +0.000 C 
ATOM      8  C   UNL     1       0.989   3.721  20.550  0.00  0.00    +0.000 C 
ATOM      9  C   UNL     1       2.242   4.388  21.153  0.00  0.00    +0.000 C 
BRANCH   6  10
ATOM     10  C   UNL     1       2.112   6.466  19.404  0.00  0.00    +0.000 A 
ATOM     11  C   UNL     1       2.239   7.036  18.119  0.00  0.00    +0.000 A 
ATOM     12  C   UNL     1       1.993   8.393  17.881  0.00  0.00    +0.000 A 
ATOM     13  C   UNL     1       1.610   9.226  18.925  0.00  0.00    +0.000 A 
ATOM     14  C   UNL     1       1.447   8.699  20.200  0.00  0.00    +0.000 A 
ATOM     15  C   UNL     1       1.688   7.341  20.429  0.00  0.00    +0.000 A 
ENDBRANCH   6  10
ENDBRANCH   4   6
BRANCH   1  16
ATOM     16  C   UNL     1       7.290   6.047  18.715  0.00  0.00    +0.000 C 
BRANCH  16  17
ATOM     17  C   UNL     1       7.457   6.470  17.258  0.00  0.00    +0.000 C 
BRANCH  17  21
ATOM     18  C   UNL     1       6.334   4.115  14.517  0.00  0.00    +0.000 C 
ATOM     19  C   UNL     1       6.313   5.344  15.383  0.00  0.00    +0.000 C 
ATOM     20  O   UNL     1       5.485   6.239  15.244  0.00  0.00    +0.000 OA
ATOM     21  N   UNL     1       7.306   5.359  16.335  0.00  0.00    +0.000 N 
ATOM     22  H   UNL     1       7.912   4.553  16.438  0.00  0.00    +0.000 HD
ENDBRANCH  17  21
ENDBRANCH  16  17
ENDBRANCH   1  16
TORSDOF 5
ENDMDL
MODEL 5
REMARK VINA RESULT:      -7.7      2.713      5.179
REMARK  Name = 
REMARK  6 active torsions:
REMARK  status: ('A' for Active; 'I' for Inactive)
REMARK    1  A    between atoms: C_1  and  C_2
REMARK    2  A    between atoms: N_4  and  C_5
REMARK    3  A    between atoms: C_5  and  C_6
REMARK    4  A    between atoms: C_6  and  C_7
REMARK    5  A    between atoms: C_10  and  C_11
REMARK    6  A    between atoms: C_11  and  C_12
REMARK                            x       y       z     vdW  Elec       q    Type
REMARK                         _______ _______ _______ _____ _____    ______ ____
ROOT
ATOM      1  C   UNL     1       5.909   4.577  14.246  0.00  0.00    +0.000 A 
ATOM      2  N   UNL     1       7.137   5.013  13.936  0.00  0.00    +0.000 NA
ATOM      3  O   UNL     1       7.584   5.579  15.130  0.00  0.00    +0.000 OA
ATOM      4  C   UNL     1       6.578   5.419  16.042  0.00  0.00    +0.000 A 
ATOM      5  N   UNL     1       5.524   4.811  15.540  0.00  0.00    +0.000 NA
ENDROOT
BRANCH   4   6
ATOM      6  C   UNL     1       6.639   5.986  17.468  0.00  0.00    +0.000 C 
ATOM      7  C   UNL     1       7.690   5.276  18.376  0.00  0.00    +0.000 C 
ATOM      8  C   UNL     1       8.099   6.671  18.889  0.00  0.00    +0.000 C 
ATOM      9  C   UNL     1       7.525   7.266  17.587  0.00  0.00    +0.000 C 
BRANCH   6  10
ATOM     10  C   UNL     1       5.107   6.088  17.982  0.00  0.00    +0.000 A 
ATOM     11  C   UNL     1       4.210   7.067  17.504  0.00  0.00    +0.000 A 
ATOM     12  C   UNL     1       2.936   7.242  18.058  0.00  0.00    +0.000 A 
ATOM     13  C   UNL     1       2.518   6.438  19.111  0.00  0.00    +0.000 A 
ATOM     14  C   UNL     1       3.360   5.444  19.592  0.00  0.00    +0.000 A 
ATOM     15  C   UNL     1       4.629   5.271  19.030  0.00  0.00    +0.000 A 
ENDBRANCH   6  10
ENDBRANCH   4   6
BRANCH   1  16
ATOM     16  C   UNL     1       5.039   3.904  13.251  0.00  0.00    +0.000 C 
BRANCH  16  17
ATOM     17  C   UNL     1       5.820   3.353  12.061  0.00  0.00    +0.000 C 
BRANCH  17  21
ATOM     18  C   UNL     1       6.166  -0.311  11.182  0.00  0.00    +0.000 C 
ATOM     19  C   UNL     1       6.566   1.135  11.275  0.00  0.00    +0.000 C 
ATOM     20  O   UNL     1       7.640   1.555  10.858  0.00  0.00    +0.000 OA
ATOM     21  N   UNL     1       5.611   1.929  11.869  0.00  0.00    +0.000 N 
ATOM     22  H   UNL     1       4.717   1.527  12.127  0.00  0.00    +0.000 HD
ENDBRANCH  17  21
ENDBRANCH  16  17
ENDBRANCH   1  16
TORSDOF 5
ENDMDL
MODEL 6
REMARK VINA RESULT:      -7.5      1.317      1.947
REMARK  Name = 
REMARK  6 active torsions:
REMARK  status: ('A' for Active; 'I' for Inactive)
REMARK    1  A    between atoms: C_1  and  C_2
REMARK    2  A    between atoms: N_4  and  C_5
REMARK    3  A    between atoms: C_5  and  C_6
REMARK    4  A    between atoms: C_6  and  C_7
REMARK    5  A    between atoms: C_10  and  C_11
REMARK    6  A    between atoms: C_11  and  C_12
REMARK                            x       y       z     vdW  Elec       q    Type
REMARK                         _______ _______ _______ _____ _____    ______ ____
ROOT
ATOM      1  C   UNL     1       5.654   4.238  17.654  0.00  0.00    +0.000 A 
ATOM      2  N   UNL     1       6.193   4.411  18.867  0.00  0.00    +0.000 NA
ATOM      3  O   UNL     1       5.080   4.602  19.686  0.00  0.00    +0.000 OA
ATOM      4  C   UNL     1       3.980   4.519  18.879  0.00  0.00    +0.000 A 
ATOM      5  N   UNL     1       4.285   4.300  17.618  0.00  0.00    +0.000 NA
ENDROOT
BRANCH   4   6
ATOM      6  C   UNL     1       2.549   4.761  19.382  0.00  0.00    +0.000 C 
ATOM      7  C   UNL     1       1.496   3.796  18.753  0.00  0.00    +0.000 C 
ATOM      8  C   UNL     1       0.884   3.647  20.160  0.00  0.00    +0.000 C 
ATOM      9  C   UNL     1       2.247   4.066  20.747  0.00  0.00    +0.000 C 
BRANCH   6  10
ATOM     10  C   UNL     1       2.298   6.358  19.285  0.00  0.00    +0.000 A 
ATOM     11  C   UNL     1       1.849   7.122  20.383  0.00  0.00    +0.000 A 
ATOM     12  C   UNL     1       1.494   8.470  20.256  0.00  0.00    +0.000 A 
ATOM     13  C   UNL     1       1.579   9.098  19.019  0.00  0.00    +0.000 A 
ATOM     14  C   UNL     1       2.043   8.389  17.919  0.00  0.00    +0.000 A 
ATOM     15  C   UNL     1       2.401   7.044  18.056  0.00  0.00    +0.000 A 
ENDBRANCH   6  10
ENDBRANCH   4   6
BRANCH   1  16
ATOM     16  C   UNL     1       6.486   4.008  16.448  0.00  0.00    +0.000 C 
BRANCH  16  17
ATOM     17  C   UNL     1       6.739   5.288  15.654  0.00  0.00    +0.000 C 
BRANCH  17  21
ATOM     18  C   UNL     1       8.001   8.161  17.768  0.00  0.00    +0.000 C 
ATOM     19  C   UNL     1       6.991   7.296  17.067  0.00  0.00    +0.000 C 
ATOM     20  O   UNL     1       5.785   7.519  17.106  0.00  0.00    +0.000 OA
ATOM     21  N   UNL     1       7.555   6.243  16.384  0.00  0.00    +0.000 N 
ATOM     22  H   UNL     1       8.563   6.160  16.337  0.00  0.00    +0.000 HD
ENDBRANCH  17  21
ENDBRANCH  16  17
ENDBRANCH   1  16
TORSDOF 5
ENDMDL
MODEL 7
REMARK VINA RESULT:      -7.5      2.536      4.917
REMARK  Name = 
REMARK  6 active torsions:
REMARK  status: ('A' for Active; 'I' for Inactive)
REMARK    1  A    between atoms: C_1  and  C_2
REMARK    2  A    between atoms: N_4  and  C_5
REMARK    3  A    between atoms: C_5  and  C_6
REMARK    4  A    between atoms: C_6  and  C_7
REMARK    5  A    between atoms: C_10  and  C_11
REMARK    6  A    between atoms: C_11  and  C_12
REMARK                            x       y       z     vdW  Elec       q    Type
REMARK                         _______ _______ _______ _____ _____    ______ ____
ROOT
ATOM      1  C   UNL     1       7.065   4.761  14.225  0.00  0.00    +0.000 A 
ATOM      2  N   UNL     1       6.297   3.738  14.619  0.00  0.00    +0.000 NA
ATOM      3  O   UNL     1       6.027   4.038  15.954  0.00  0.00    +0.000 OA
ATOM      4  C   UNL     1       6.658   5.221  16.226  0.00  0.00    +0.000 A 
ATOM      5  N   UNL     1       7.314   5.700  15.191  0.00  0.00    +0.000 NA
ENDROOT
BRANCH   4   6
ATOM      6  C   UNL     1       6.681   5.859  17.622  0.00  0.00    +0.000 C 
ATOM      7  C   UNL     1       7.728   5.213  18.585  0.00  0.00    +0.000 C 
ATOM      8  C   UNL     1       8.101   6.639  19.035  0.00  0.00    +0.000 C 
ATOM      9  C   UNL     1       7.543   7.159  17.695  0.00  0.00    +0.000 C 
BRANCH   6  10
ATOM     10  C   UNL     1       5.138   5.957  18.103  0.00  0.00    +0.000 A 
ATOM     11  C   UNL     1       4.216   6.848  17.513  0.00  0.00    +0.000 A 
ATOM     12  C   UNL     1       2.928   7.033  18.028  0.00  0.00    +0.000 A 
ATOM     13  C   UNL     1       2.520   6.327  19.154  0.00  0.00    +0.000 A 
ATOM     14  C   UNL     1       3.387   5.420  19.748  0.00  0.00    +0.000 A 
ATOM     15  C   UNL     1       4.671   5.236  19.224  0.00  0.00    +0.000 A 
ENDBRANCH   6  10
ENDBRANCH   4   6
BRANCH   1  16
ATOM     16  C   UNL     1       7.607   4.854  12.847  0.00  0.00    +0.000 C 
BRANCH  16  17
ATOM     17  C   UNL     1       7.137   3.711  11.950  0.00  0.00    +0.000 C 
BRANCH  17  21
ATOM     18  C   UNL     1       3.533   3.002  11.039  0.00  0.00    +0.000 C 
ATOM     19  C   UNL     1       4.971   2.691  11.346  0.00  0.00    +0.000 C 
ATOM     20  O   UNL     1       5.417   1.549  11.348  0.00  0.00    +0.000 OA
ATOM     21  N   UNL     1       5.726   3.810  11.618  0.00  0.00    +0.000 N 
ATOM     22  H   UNL     1       5.308   4.728  11.529  0.00  0.00    +0.000 HD
ENDBRANCH  17  21
ENDBRANCH  16  17
ENDBRANCH   1  16
TORSDOF 5
ENDMDL
MODEL 8
REMARK VINA RESULT:      -7.4      1.386      1.557
REMARK  Name = 
REMARK  6 active torsions:
REMARK  status: ('A' for Active; 'I' for Inactive)
REMARK    1  A    between atoms: C_1  and  C_2
REMARK    2  A    between atoms: N_4  and  C_5
REMARK    3  A    between atoms: C_5  and  C_6
REMARK    4  A    between atoms: C_6  and  C_7
REMARK    5  A    between atoms: C_10  and  C_11
REMARK    6  A    between atoms: C_11  and  C_12
REMARK                            x       y       z     vdW  Elec       q    Type
REMARK                         _______ _______ _______ _____ _____    ______ ____
ROOT
ATOM      1  C   UNL     1       6.191   4.596  17.868  0.00  0.00    +0.000 A 
ATOM      2  N   UNL     1       6.372   4.454  19.187  0.00  0.00    +0.000 NA
ATOM      3  O   UNL     1       5.069   4.436  19.686  0.00  0.00    +0.000 OA
ATOM      4  C   UNL     1       4.234   4.563  18.611  0.00  0.00    +0.000 A 
ATOM      5  N   UNL     1       4.882   4.670  17.470  0.00  0.00    +0.000 NA
ENDROOT
BRANCH   4   6
ATOM      6  C   UNL     1       2.708   4.675  18.741  0.00  0.00    +0.000 C 
ATOM      7  C   UNL     1       1.931   3.968  17.587  0.00  0.00    +0.000 C 
ATOM      8  C   UNL     1       0.968   3.417  18.657  0.00  0.00    +0.000 C 
ATOM      9  C   UNL     1       2.089   3.609  19.699  0.00  0.00    +0.000 C 
BRANCH   6  10
ATOM     10  C   UNL     1       2.392   6.233  19.053  0.00  0.00    +0.000 A 
ATOM     11  C   UNL     1       1.935   6.676  20.312  0.00  0.00    +0.000 A 
ATOM     12  C   UNL     1       1.524   7.995  20.532  0.00  0.00    +0.000 A 
ATOM     13  C   UNL     1       1.560   8.918  19.493  0.00  0.00    +0.000 A 
ATOM     14  C   UNL     1       2.029   8.529  18.245  0.00  0.00    +0.000 A 
ATOM     15  C   UNL     1       2.443   7.210  18.035  0.00  0.00    +0.000 A 
ENDBRANCH   6  10
ENDBRANCH   4   6
BRANCH   1  16
ATOM     16  C   UNL     1       7.330   4.677  16.922  0.00  0.00    +0.000 C 
BRANCH  16  17
ATOM     17  C   UNL     1       7.057   5.615  15.748  0.00  0.00    +0.000 C 
BRANCH  17  21
ATOM     18  C   UNL     1       6.853   3.774  12.448  0.00  0.00    +0.000 C 
ATOM     19  C   UNL     1       6.365   4.330  13.757  0.00  0.00    +0.000 C 
ATOM     20  O   UNL     1       5.209   4.195  14.146  0.00  0.00    +0.000 OA
ATOM     21  N   UNL     1       7.340   4.996  14.465  0.00  0.00    +0.000 N 
ATOM     22  H   UNL     1       8.290   5.009  14.115  0.00  0.00    +0.000 HD
ENDBRANCH  17  21
ENDBRANCH  16  17
ENDBRANCH   1  16
TORSDOF 5
ENDMDL
MODEL 9
REMARK VINA RESULT:      -7.3      1.788      2.512
REMARK  Name = 
REMARK  6 active torsions:
REMARK  status: ('A' for Active; 'I' for Inactive)
REMARK    1  A    between atoms: C_1  and  C_2
REMARK    2  A    between atoms: N_4  and  C_5
REMARK    3  A    between atoms: C_5  and  C_6
REMARK    4  A    between atoms: C_6  and  C_7
REMARK    5  A    between atoms: C_10  and  C_11
REMARK    6  A    between atoms: C_11  and  C_12
REMARK                            x       y       z     vdW  Elec       q    Type
REMARK                         _______ _______ _______ _____ _____    ______ ____
ROOT
ATOM      1  C   UNL     1       6.076   4.809  16.873  0.00  0.00    +0.000 A 
ATOM      2  N   UNL     1       6.646   4.495  18.044  0.00  0.00    +0.000 NA
ATOM      3  O   UNL     1       5.562   4.104  18.830  0.00  0.00    +0.000 OA
ATOM      4  C   UNL     1       4.447   4.217  18.047  0.00  0.00    +0.000 A 
ATOM      5  N   UNL     1       4.715   4.653  16.835  0.00  0.00    +0.000 NA
ENDROOT
BRANCH   4   6
ATOM      6  C   UNL     1       3.025   3.963  18.568  0.00  0.00    +0.000 C 
ATOM      7  C   UNL     1       2.148   3.114  17.595  0.00  0.00    +0.000 C 
ATOM      8  C   UNL     1       1.651   2.330  18.826  0.00  0.00    +0.000 C 
ATOM      9  C   UNL     1       2.936   2.761  19.561  0.00  0.00    +0.000 C 
BRANCH   6  10
ATOM     10  C   UNL     1       2.464   5.394  19.076  0.00  0.00    +0.000 A 
ATOM     11  C   UNL     1       2.585   6.571  18.307  0.00  0.00    +0.000 A 
ATOM     12  C   UNL     1       2.231   7.828  18.811  0.00  0.00    +0.000 A 
ATOM     13  C   UNL     1       1.741   7.946  20.106  0.00  0.00    +0.000 A 
ATOM     14  C   UNL     1       1.580   6.808  20.886  0.00  0.00    +0.000 A 
ATOM     15  C   UNL     1       1.930   5.555  20.373  0.00  0.00    +0.000 A 
ENDBRANCH   6  10
ENDBRANCH   4   6
BRANCH   1  16
ATOM     16  C   UNL     1       6.868   5.297  15.718  0.00  0.00    +0.000 C 
BRANCH  16  17
ATOM     17  C   UNL     1       7.049   4.236  14.636  0.00  0.00    +0.000 C 
BRANCH  17  21
ATOM     18  C   UNL     1       4.562   3.405  11.907  0.00  0.00    +0.000 C 
ATOM     19  C   UNL     1       5.909   3.537  12.560  0.00  0.00    +0.000 C 
ATOM     20  O   UNL     1       6.953   3.218  11.999  0.00  0.00    +0.000 OA
ATOM     21  N   UNL     1       5.850   4.047  13.837  0.00  0.00    +0.000 N 
ATOM     22  H   UNL     1       4.960   4.354  14.211  0.00  0.00    +0.000 HD
ENDBRANCH  17  21
ENDBRANCH  16  17
ENDBRANCH   1  16
TORSDOF 5
ENDMDL
