MODEL 1
REMARK VINA RESULT:      -7.3      0.000      0.000
REMARK  Name = 
REMARK  15 active torsions:
REMARK  status: ('A' for Active; 'I' for Inactive)
REMARK    1  A    between atoms: C_1  and  C_2
REMARK    2  A    between atoms: C_2  and  O_3
REMARK    3  A    between atoms: C_2  and  C_4
REMARK    4  A    between atoms: C_4  and  C_5
REMARK    5  A    between atoms: C_4  and  C_6
REMARK    6  A    between atoms: C_6  and  O_7
REMARK    7  A    between atoms: C_9  and  C_10
REMARK    8  A    between atoms: C_17  and  C_18
REMARK    9  A    between atoms: C_19  and  C_20
REMARK   10  A    between atoms: C_20  and  C_21
REMARK   11  A    between atoms: C_20  and  C_22
REMARK   12  A    between atoms: C_22  and  C_23
REMARK   13  A    between atoms: C_22  and  O_24
REMARK   14  A    between atoms: C_29  and  C_30
REMARK   15  A    between atoms: C_30  and  O_32
REMARK                            x       y       z     vdW  Elec       q    Type
REMARK                         _______ _______ _______ _____ _____    ______ ____
ROOT
ATOM      1  C   UNL     1       0.306  13.667  20.205  0.00  0.00    +0.000 C 
ATOM      2  O   UNL     1      -1.053  13.190  20.217  0.00  0.00    +0.000 OA
ATOM      3  C   UNL     1      -1.007  11.786  19.862  0.00  0.00    +0.000 C 
ATOM      4  C   UNL     1      -2.321  11.380  19.203  0.00  0.00    +0.000 C 
ATOM      5  C   UNL     1      -0.908  11.084  21.223  0.00  0.00    +0.000 C 
ATOM      6  O   UNL     1      -1.493  11.527  22.218  0.00  0.00    +0.000 OA
ATOM      7  C   UNL     1      -0.100   9.847  21.319  0.00  0.00    +0.000 C 
ATOM      8 CL   UNL     1      -0.376   8.912  22.758  0.00  0.00    +0.000 Cl
ATOM      9  C   UNL     1       0.744   9.495  20.333  0.00  0.00    +0.000 C 
ATOM     10  C   UNL     1       1.424   8.195  20.383  0.00  0.00    +0.000 C 
ATOM     11  C   UNL     1       2.148   7.778  19.332  0.00  0.00    +0.000 C 
ATOM     12  O   UNL     1       2.368   8.593  18.225  0.00  0.00    +0.000 OA
ATOM     13  C   UNL     1       1.762   9.836  18.185  0.00  0.00    +0.000 C 
ATOM     14  C   UNL     1       0.972  10.348  19.150  0.00  0.00    +0.000 C 
ATOM     15  C   UNL     1       0.186  11.628  18.912  0.00  0.00    +0.000 C 
ATOM     16  C   UNL     1       0.810  13.054  18.911  0.00  0.00    +0.000 C 
ENDROOT
BRANCH   1  17
ATOM     17  C   UNL     1       0.249  15.211  20.403  0.00  0.00    +0.000 C 
ATOM     18  C   UNL     1       0.155  15.967  19.074  0.00  0.00    +0.000 C 
BRANCH  17  20
ATOM     19  C   UNL     1       1.419  17.322  21.285  0.00  0.00    +0.000 C 
ATOM     20  C   UNL     1       1.346  15.793  21.321  0.00  0.00    +0.000 C 
BRANCH  20  21
ATOM     21  O   UNL     1       1.107  15.407  22.674  0.00  0.00    +0.000 OA
ATOM     22  H   UNL     1       1.285  16.173  23.249  0.00  0.00    +0.000 HD
ENDBRANCH  20  21
ENDBRANCH  17  20
ENDBRANCH   1  17
BRANCH   1  23
ATOM     23  O   UNL     1       1.001  13.044  21.283  0.00  0.00    +0.000 OA
ATOM     24  H   UNL     1       0.598  12.158  21.378  0.00  0.00    +0.000 HD
ENDBRANCH   1  23
BRANCH  11  25
ATOM     25  C   UNL     1       2.708   6.439  19.266  0.00  0.00    +0.000 C 
ATOM     26  C   UNL     1       2.619   5.623  18.205  0.00  0.00    +0.000 C 
BRANCH  26  27
ATOM     27  C   UNL     1       3.176   4.209  18.161  0.00  0.00    +0.000 C 
ATOM     28  C   UNL     1       4.104   4.068  16.952  0.00  0.00    +0.000 C 
BRANCH  27  29
ATOM     29  C   UNL     1       3.891   3.813  19.477  0.00  0.00    +0.000 C 
ATOM     30  C   UNL     1       3.155   2.784  20.330  0.00  0.00    +0.000 C 
BRANCH  29  31
ATOM     31  O   UNL     1       5.199   3.312  19.184  0.00  0.00    +0.000 OA
ATOM     32  H   UNL     1       5.124   2.746  18.395  0.00  0.00    +0.000 HD
ENDBRANCH  29  31
ENDBRANCH  27  29
ENDBRANCH  26  27
ENDBRANCH  11  25
BRANCH  16  33
ATOM     33  C   UNL     1       2.271  13.120  18.582  0.00  0.00    +0.000 C 
ATOM     34  O   UNL     1       3.101  13.432  19.429  0.00  0.00    +0.000 OA
BRANCH  33  35
ATOM     35  O   UNL     1       2.620  12.868  17.312  0.00  0.00    +0.000 OA
ATOM     36  H   UNL     1       2.157  12.099  16.899  0.00  0.00    +0.000 HD
ENDBRANCH  33  35
ENDBRANCH  16  33
TORSDOF 10
ENDMDL
MODEL 2
REMARK VINA RESULT:      -7.3      1.012      1.431
REMARK  Name = 
REMARK  15 active torsions:
REMARK  status: ('A' for Active; 'I' for Inactive)
REMARK    1  A    between atoms: C_1  and  C_2
REMARK    2  A    between atoms: C_2  and  O_3
REMARK    3  A    between atoms: C_2  and  C_4
REMARK    4  A    between atoms: C_4  and  C_5
REMARK    5  A    between atoms: C_4  and  C_6
REMARK    6  A    between atoms: C_6  and  O_7
REMARK    7  A    between atoms: C_9  and  C_10
REMARK    8  A    between atoms: C_17  and  C_18
REMARK    9  A    between atoms: C_19  and  C_20
REMARK   10  A    between atoms: C_20  and  C_21
REMARK   11  A    between atoms: C_20  and  C_22
REMARK   12  A    between atoms: C_22  and  C_23
REMARK   13  A    between atoms: C_22  and  O_24
REMARK   14  A    between atoms: C_29  and  C_30
REMARK   15  A    between atoms: C_30  and  O_32
REMARK                            x       y       z     vdW  Elec       q    Type
REMARK                         _______ _______ _______ _____ _____    ______ ____
ROOT
ATOM      1  C   UNL     1       0.435  13.710  20.085  0.00  0.00    +0.000 C 
ATOM      2  O   UNL     1      -0.938  13.304  20.247  0.00  0.00    +0.000 OA
ATOM      3  C   UNL     1      -0.977  11.870  20.048  0.00  0.00    +0.000 C 
ATOM      4  C   UNL     1      -2.352  11.459  19.534  0.00  0.00    +0.000 C 
ATOM      5  C   UNL     1      -0.803  11.316  21.469  0.00  0.00    +0.000 C 
ATOM      6  O   UNL     1      -1.292  11.892  22.447  0.00  0.00    +0.000 OA
ATOM      7  C   UNL     1      -0.042  10.058  21.645  0.00  0.00    +0.000 C 
ATOM      8 CL   UNL     1      -0.246   9.299  23.196  0.00  0.00    +0.000 Cl
ATOM      9  C   UNL     1       0.710   9.560  20.647  0.00  0.00    +0.000 C 
ATOM     10  C   UNL     1       1.338   8.241  20.794  0.00  0.00    +0.000 C 
ATOM     11  C   UNL     1       1.962   7.678  19.747  0.00  0.00    +0.000 C 
ATOM     12  O   UNL     1       2.131   8.356  18.543  0.00  0.00    +0.000 OA
ATOM     13  C   UNL     1       1.575   9.616  18.408  0.00  0.00    +0.000 C 
ATOM     14  C   UNL     1       0.882  10.268  19.363  0.00  0.00    +0.000 C 
ATOM     15  C   UNL     1       0.134  11.551  19.040  0.00  0.00    +0.000 C 
ATOM     16  C   UNL     1       0.813  12.936  18.835  0.00  0.00    +0.000 C 
ENDROOT
BRANCH   1  17
ATOM     17  C   UNL     1       0.456  15.268  20.113  0.00  0.00    +0.000 C 
ATOM     18  C   UNL     1       0.006  15.881  18.783  0.00  0.00    +0.000 C 
BRANCH  17  20
ATOM     19  C   UNL     1       1.904  17.383  20.289  0.00  0.00    +0.000 C 
ATOM     20  C   UNL     1       1.773  15.894  20.621  0.00  0.00    +0.000 C 
BRANCH  20  21
ATOM     21  O   UNL     1       1.863  15.760  22.038  0.00  0.00    +0.000 OA
ATOM     22  H   UNL     1       0.962  15.798  22.409  0.00  0.00    +0.000 HD
ENDBRANCH  20  21
ENDBRANCH  17  20
ENDBRANCH   1  17
BRANCH   1  23
ATOM     23  O   UNL     1       1.184  13.174  21.174  0.00  0.00    +0.000 OA
ATOM     24  H   UNL     1       1.538  13.949  21.654  0.00  0.00    +0.000 HD
ENDBRANCH   1  23
BRANCH  11  25
ATOM     25  C   UNL     1       2.460   6.314  19.792  0.00  0.00    +0.000 C 
ATOM     26  C   UNL     1       1.752   5.252  20.205  0.00  0.00    +0.000 C 
BRANCH  26  27
ATOM     27  C   UNL     1       2.296   3.835  20.284  0.00  0.00    +0.000 C 
ATOM     28  C   UNL     1       1.511   3.049  21.337  0.00  0.00    +0.000 C 
BRANCH  27  29
ATOM     29  C   UNL     1       2.283   3.118  18.911  0.00  0.00    +0.000 C 
ATOM     30  C   UNL     1       3.622   3.088  18.181  0.00  0.00    +0.000 C 
BRANCH  29  31
ATOM     31  O   UNL     1       1.820   1.773  19.073  0.00  0.00    +0.000 OA
ATOM     32  H   UNL     1       2.518   1.281  19.540  0.00  0.00    +0.000 HD
ENDBRANCH  29  31
ENDBRANCH  27  29
ENDBRANCH  26  27
ENDBRANCH  11  25
BRANCH  16  33
ATOM     33  C   UNL     1       2.247  12.894  18.398  0.00  0.00    +0.000 C 
ATOM     34  O   UNL     1       3.151  13.254  19.144  0.00  0.00    +0.000 OA
BRANCH  33  35
ATOM     35  O   UNL     1       2.488  12.490  17.143  0.00  0.00    +0.000 OA
ATOM     36  H   UNL     1       1.699  12.146  16.658  0.00  0.00    +0.000 HD
ENDBRANCH  33  35
ENDBRANCH  16  33
TORSDOF 10
ENDMDL
MODEL 3
REMARK VINA RESULT:      -7.2      1.226      1.305
REMARK  Name = 
REMARK  15 active torsions:
REMARK  status: ('A' for Active; 'I' for Inactive)
REMARK    1  A    between atoms: C_1  and  C_2
REMARK    2  A    between atoms: C_2  and  O_3
REMARK    3  A    between atoms: C_2  and  C_4
REMARK    4  A    between atoms: C_4  and  C_5
REMARK    5  A    between atoms: C_4  and  C_6
REMARK    6  A    between atoms: C_6  and  O_7
REMARK    7  A    between atoms: C_9  and  C_10
REMARK    8  A    between atoms: C_17  and  C_18
REMARK    9  A    between atoms: C_19  and  C_20
REMARK   10  A    between atoms: C_20  and  C_21
REMARK   11  A    between atoms: C_20  and  C_22
REMARK   12  A    between atoms: C_22  and  C_23
REMARK   13  A    between atoms: C_22  and  O_24
REMARK   14  A    between atoms: C_29  and  C_30
REMARK   15  A    between atoms: C_30  and  O_32
REMARK                            x       y       z     vdW  Elec       q    Type
REMARK                         _______ _______ _______ _____ _____    ______ ____
ROOT
ATOM      1  C   UNL     1       0.509  13.720  20.072  0.00  0.00    +0.000 C 
ATOM      2  O   UNL     1      -0.861  13.314  20.253  0.00  0.00    +0.000 OA
ATOM      3  C   UNL     1      -0.903  11.881  20.050  0.00  0.00    +0.000 C 
ATOM      4  C   UNL     1      -2.286  11.472  19.555  0.00  0.00    +0.000 C 
ATOM      5  C   UNL     1      -0.709  11.321  21.466  0.00  0.00    +0.000 C 
ATOM      6  O   UNL     1      -1.183  11.894  22.453  0.00  0.00    +0.000 OA
ATOM      7  C   UNL     1       0.055  10.063  21.627  0.00  0.00    +0.000 C 
ATOM      8 CL   UNL     1      -0.127   9.298  23.177  0.00  0.00    +0.000 Cl
ATOM      9  C   UNL     1       0.792   9.568  20.615  0.00  0.00    +0.000 C 
ATOM     10  C   UNL     1       1.421   8.249  20.748  0.00  0.00    +0.000 C 
ATOM     11  C   UNL     1       2.029   7.689  19.691  0.00  0.00    +0.000 C 
ATOM     12  O   UNL     1       2.181   8.371  18.487  0.00  0.00    +0.000 OA
ATOM     13  C   UNL     1       1.624   9.631  18.364  0.00  0.00    +0.000 C 
ATOM     14  C   UNL     1       0.945  10.280  19.332  0.00  0.00    +0.000 C 
ATOM     15  C   UNL     1       0.192  11.564  19.024  0.00  0.00    +0.000 C 
ATOM     16  C   UNL     1       0.869  12.951  18.814  0.00  0.00    +0.000 C 
ENDROOT
BRANCH   1  17
ATOM     17  C   UNL     1       0.531  15.278  20.105  0.00  0.00    +0.000 C 
ATOM     18  C   UNL     1      -0.413  15.896  19.069  0.00  0.00    +0.000 C 
BRANCH  17  20
ATOM     19  C   UNL     1       1.915  17.442  20.095  0.00  0.00    +0.000 C 
ATOM     20  C   UNL     1       1.938  15.912  20.054  0.00  0.00    +0.000 C 
BRANCH  20  21
ATOM     21  O   UNL     1       2.716  15.465  21.163  0.00  0.00    +0.000 OA
ATOM     22  H   UNL     1       2.536  16.049  21.922  0.00  0.00    +0.000 HD
ENDBRANCH  20  21
ENDBRANCH  17  20
ENDBRANCH   1  17
BRANCH   1  23
ATOM     23  O   UNL     1       1.274  13.181  21.148  0.00  0.00    +0.000 OA
ATOM     24  H   UNL     1       0.650  12.630  21.663  0.00  0.00    +0.000 HD
ENDBRANCH   1  23
BRANCH  11  25
ATOM     25  C   UNL     1       2.528   6.325  19.723  0.00  0.00    +0.000 C 
ATOM     26  C   UNL     1       1.961   5.286  19.091  0.00  0.00    +0.000 C 
BRANCH  26  27
ATOM     27  C   UNL     1       2.470   3.856  19.163  0.00  0.00    +0.000 C 
ATOM     28  C   UNL     1       3.975   3.866  19.445  0.00  0.00    +0.000 C 
BRANCH  27  29
ATOM     29  C   UNL     1       1.702   3.006  20.205  0.00  0.00    +0.000 C 
ATOM     30  C   UNL     1       2.247   3.075  21.629  0.00  0.00    +0.000 C 
BRANCH  29  31
ATOM     31  O   UNL     1       0.324   3.393  20.224  0.00  0.00    +0.000 OA
ATOM     32  H   UNL     1       0.297   4.361  20.325  0.00  0.00    +0.000 HD
ENDBRANCH  29  31
ENDBRANCH  27  29
ENDBRANCH  26  27
ENDBRANCH  11  25
BRANCH  16  33
ATOM     33  C   UNL     1       2.295  12.910  18.355  0.00  0.00    +0.000 C 
ATOM     34  O   UNL     1       3.211  13.265  19.090  0.00  0.00    +0.000 OA
BRANCH  33  35
ATOM     35  O   UNL     1       2.518  12.513  17.094  0.00  0.00    +0.000 OA
ATOM     36  H   UNL     1       2.561  13.242  16.430  0.00  0.00    +0.000 HD
ENDBRANCH  33  35
ENDBRANCH  16  33
TORSDOF 10
ENDMDL
MODEL 4
REMARK VINA RESULT:      -7.2      0.761      1.112
REMARK  Name = 
REMARK  15 active torsions:
REMARK  status: ('A' for Active; 'I' for Inactive)
REMARK    1  A    between atoms: C_1  and  C_2
REMARK    2  A    between atoms: C_2  and  O_3
REMARK    3  A    between atoms: C_2  and  C_4
REMARK    4  A    between atoms: C_4  and  C_5
REMARK    5  A    between atoms: C_4  and  C_6
REMARK    6  A    between atoms: C_6  and  O_7
REMARK    7  A    between atoms: C_9  and  C_10
REMARK    8  A    between atoms: C_17  and  C_18
REMARK    9  A    between atoms: C_19  and  C_20
REMARK   10  A    between atoms: C_20  and  C_21
REMARK   11  A    between atoms: C_20  and  C_22
REMARK   12  A    between atoms: C_22  and  C_23
REMARK   13  A    between atoms: C_22  and  O_24
REMARK   14  A    between atoms: C_29  and  C_30
REMARK   15  A    between atoms: C_30  and  O_32
REMARK                            x       y       z     vdW  Elec       q    Type
REMARK                         _______ _______ _______ _____ _____    ______ ____
ROOT
ATOM      1  C   UNL     1       0.591  13.946  20.263  0.00  0.00    +0.000 C 
ATOM      2  O   UNL     1      -0.784  13.576  20.483  0.00  0.00    +0.000 OA
ATOM      3  C   UNL     1      -0.878  12.151  20.240  0.00  0.00    +0.000 C 
ATOM      4  C   UNL     1      -2.290  11.799  19.786  0.00  0.00    +0.000 C 
ATOM      5  C   UNL     1      -0.648  11.544  21.630  0.00  0.00    +0.000 C 
ATOM      6  O   UNL     1      -1.068  12.099  22.651  0.00  0.00    +0.000 OA
ATOM      7  C   UNL     1       0.082  10.259  21.725  0.00  0.00    +0.000 C 
ATOM      8 CL   UNL     1      -0.066   9.453  23.258  0.00  0.00    +0.000 Cl
ATOM      9  C   UNL     1       0.765   9.773  20.672  0.00  0.00    +0.000 C 
ATOM     10  C   UNL     1       1.358   8.433  20.742  0.00  0.00    +0.000 C 
ATOM     11  C   UNL     1       1.909   7.888  19.646  0.00  0.00    +0.000 C 
ATOM     12  O   UNL     1       2.037   8.601  18.458  0.00  0.00    +0.000 OA
ATOM     13  C   UNL     1       1.515   9.881  18.394  0.00  0.00    +0.000 C 
ATOM     14  C   UNL     1       0.893  10.520  19.405  0.00  0.00    +0.000 C 
ATOM     15  C   UNL     1       0.169  11.835  19.164  0.00  0.00    +0.000 C 
ATOM     16  C   UNL     1       0.880  13.206  18.970  0.00  0.00    +0.000 C 
ENDROOT
BRANCH   1  17
ATOM     17  C   UNL     1       0.662  15.501  20.341  0.00  0.00    +0.000 C 
ATOM     18  C   UNL     1       0.239  16.171  19.030  0.00  0.00    +0.000 C 
BRANCH  17  20
ATOM     19  C   UNL     1       2.275  17.499  20.409  0.00  0.00    +0.000 C 
ATOM     20  C   UNL     1       1.996  16.068  20.874  0.00  0.00    +0.000 C 
BRANCH  20  21
ATOM     21  O   UNL     1       1.989  16.073  22.301  0.00  0.00    +0.000 OA
ATOM     22  H   UNL     1       1.330  16.724  22.603  0.00  0.00    +0.000 HD
ENDBRANCH  20  21
ENDBRANCH  17  20
ENDBRANCH   1  17
BRANCH   1  23
ATOM     23  O   UNL     1       1.378  13.352  21.292  0.00  0.00    +0.000 OA
ATOM     24  H   UNL     1       2.196  13.045  20.853  0.00  0.00    +0.000 HD
ENDBRANCH   1  23
BRANCH  11  25
ATOM     25  C   UNL     1       2.367   6.509  19.620  0.00  0.00    +0.000 C 
ATOM     26  C   UNL     1       2.787   5.862  18.522  0.00  0.00    +0.000 C 
BRANCH  26  27
ATOM     27  C   UNL     1       3.227   4.407  18.499  0.00  0.00    +0.000 C 
ATOM     28  C   UNL     1       2.134   3.557  17.846  0.00  0.00    +0.000 C 
BRANCH  27  29
ATOM     29  C   UNL     1       4.594   4.213  17.796  0.00  0.00    +0.000 C 
ATOM     30  C   UNL     1       5.187   5.472  17.170  0.00  0.00    +0.000 C 
BRANCH  29  31
ATOM     31  O   UNL     1       5.542   3.675  18.724  0.00  0.00    +0.000 OA
ATOM     32  H   UNL     1       5.222   3.884  19.619  0.00  0.00    +0.000 HD
ENDBRANCH  29  31
ENDBRANCH  27  29
ENDBRANCH  26  27
ENDBRANCH  11  25
BRANCH  16  33
ATOM     33  C   UNL     1       2.287  13.137  18.457  0.00  0.00    +0.000 C 
ATOM     34  O   UNL     1       3.241  13.416  19.175  0.00  0.00    +0.000 OA
BRANCH  33  35
ATOM     35  O   UNL     1       2.448  12.802  17.169  0.00  0.00    +0.000 OA
ATOM     36  H   UNL     1       3.023  13.415  16.649  0.00  0.00    +0.000 HD
ENDBRANCH  33  35
ENDBRANCH  16  33
TORSDOF 10
ENDMDL
MODEL 5
REMARK VINA RESULT:      -7.2      1.235      1.569
REMARK  Name = 
REMARK  15 active torsions:
REMARK  status: ('A' for Active; 'I' for Inactive)
REMARK    1  A    between atoms: C_1  and  C_2
REMARK    2  A    between atoms: C_2  and  O_3
REMARK    3  A    between atoms: C_2  and  C_4
REMARK    4  A    between atoms: C_4  and  C_5
REMARK    5  A    between atoms: C_4  and  C_6
REMARK    6  A    between atoms: C_6  and  O_7
REMARK    7  A    between atoms: C_9  and  C_10
REMARK    8  A    between atoms: C_17  and  C_18
REMARK    9  A    between atoms: C_19  and  C_20
REMARK   10  A    between atoms: C_20  and  C_21
REMARK   11  A    between atoms: C_20  and  C_22
REMARK   12  A    between atoms: C_22  and  C_23
REMARK   13  A    between atoms: C_22  and  O_24
REMARK   14  A    between atoms: C_29  and  C_30
REMARK   15  A    between atoms: C_30  and  O_32
REMARK                            x       y       z     vdW  Elec       q    Type
REMARK                         _______ _______ _______ _____ _____    ______ ____
ROOT
ATOM      1  C   UNL     1       0.216  13.754  19.965  0.00  0.00    +0.000 C 
ATOM      2  O   UNL     1      -1.136  13.254  19.972  0.00  0.00    +0.000 OA
ATOM      3  C   UNL     1      -1.063  11.844  19.650  0.00  0.00    +0.000 C 
ATOM      4  C   UNL     1      -2.360  11.400  18.985  0.00  0.00    +0.000 C 
ATOM      5  C   UNL     1      -0.969  11.176  21.029  0.00  0.00    +0.000 C 
ATOM      6  O   UNL     1      -1.574  11.632  22.005  0.00  0.00    +0.000 OA
ATOM      7  C   UNL     1      -0.142   9.955  21.165  0.00  0.00    +0.000 C 
ATOM      8 CL   UNL     1      -0.422   9.049  22.622  0.00  0.00    +0.000 Cl
ATOM      9  C   UNL     1       0.720   9.594  20.197  0.00  0.00    +0.000 C 
ATOM     10  C   UNL     1       1.420   8.307  20.287  0.00  0.00    +0.000 C 
ATOM     11  C   UNL     1       2.164   7.878  19.255  0.00  0.00    +0.000 C 
ATOM     12  O   UNL     1       2.386   8.670  18.132  0.00  0.00    +0.000 OA
ATOM     13  C   UNL     1       1.760   9.901  18.055  0.00  0.00    +0.000 C 
ATOM     14  C   UNL     1       0.949  10.423  18.998  0.00  0.00    +0.000 C 
ATOM     15  C   UNL     1       0.146  11.683  18.720  0.00  0.00    +0.000 C 
ATOM     16  C   UNL     1       0.746  13.119  18.692  0.00  0.00    +0.000 C 
ENDROOT
BRANCH   1  17
ATOM     17  C   UNL     1       0.130  15.301  20.126  0.00  0.00    +0.000 C 
ATOM     18  C   UNL     1      -1.113  15.738  20.906  0.00  0.00    +0.000 C 
BRANCH  17  20
ATOM     19  C   UNL     1      -0.807  17.133  18.588  0.00  0.00    +0.000 C 
ATOM     20  C   UNL     1       0.303  16.105  18.819  0.00  0.00    +0.000 C 
BRANCH  20  21
ATOM     21  O   UNL     1       1.544  16.809  18.838  0.00  0.00    +0.000 OA
ATOM     22  H   UNL     1       2.135  16.408  18.175  0.00  0.00    +0.000 HD
ENDBRANCH  20  21
ENDBRANCH  17  20
ENDBRANCH   1  17
BRANCH   1  23
ATOM     23  O   UNL     1       0.906  13.168  21.066  0.00  0.00    +0.000 OA
ATOM     24  H   UNL     1       0.416  13.451  21.864  0.00  0.00    +0.000 HD
ENDBRANCH   1  23
BRANCH  11  25
ATOM     25  C   UNL     1       2.748   6.547  19.228  0.00  0.00    +0.000 C 
ATOM     26  C   UNL     1       2.206   5.485  18.614  0.00  0.00    +0.000 C 
BRANCH  26  27
ATOM     27  C   UNL     1       2.805   4.089  18.624  0.00  0.00    +0.000 C 
ATOM     28  C   UNL     1       4.140   4.116  19.373  0.00  0.00    +0.000 C 
BRANCH  27  29
ATOM     29  C   UNL     1       1.840   3.034  19.220  0.00  0.00    +0.000 C 
ATOM     30  C   UNL     1       1.004   3.514  20.402  0.00  0.00    +0.000 C 
BRANCH  29  31
ATOM     31  O   UNL     1       0.957   2.556  18.199  0.00  0.00    +0.000 OA
ATOM     32  H   UNL     1       1.443   2.591  17.356  0.00  0.00    +0.000 HD
ENDBRANCH  29  31
ENDBRANCH  27  29
ENDBRANCH  26  27
ENDBRANCH  11  25
BRANCH  16  33
ATOM     33  C   UNL     1       2.210  13.202  18.380  0.00  0.00    +0.000 C 
ATOM     34  O   UNL     1       3.025  13.536  19.234  0.00  0.00    +0.000 OA
BRANCH  33  35
ATOM     35  O   UNL     1       2.578  12.939  17.119  0.00  0.00    +0.000 OA
ATOM     36  H   UNL     1       2.298  12.054  16.779  0.00  0.00    +0.000 HD
ENDBRANCH  33  35
ENDBRANCH  16  33
TORSDOF 10
ENDMDL
MODEL 6
REMARK VINA RESULT:      -7.2      0.848      1.183
REMARK  Name = 
REMARK  15 active torsions:
REMARK  status: ('A' for Active; 'I' for Inactive)
REMARK    1  A    between atoms: C_1  and  C_2
REMARK    2  A    between atoms: C_2  and  O_3
REMARK    3  A    between atoms: C_2  and  C_4
REMARK    4  A    between atoms: C_4  and  C_5
REMARK    5  A    between atoms: C_4  and  C_6
REMARK    6  A    between atoms: C_6  and  O_7
REMARK    7  A    between atoms: C_9  and  C_10
REMARK    8  A    between atoms: C_17  and  C_18
REMARK    9  A    between atoms: C_19  and  C_20
REMARK   10  A    between atoms: C_20  and  C_21
REMARK   11  A    between atoms: C_20  and  C_22
REMARK   12  A    between atoms: C_22  and  C_23
REMARK   13  A    between atoms: C_22  and  O_24
REMARK   14  A    between atoms: C_29  and  C_30
REMARK   15  A    between atoms: C_30  and  O_32
REMARK                            x       y       z     vdW  Elec       q    Type
REMARK                         _______ _______ _______ _____ _____    ______ ____
ROOT
ATOM      1  C   UNL     1       0.698  13.811  20.154  0.00  0.00    +0.000 C 
ATOM      2  O   UNL     1      -0.672  13.431  20.388  0.00  0.00    +0.000 OA
ATOM      3  C   UNL     1      -0.767  12.013  20.107  0.00  0.00    +0.000 C 
ATOM      4  C   UNL     1      -2.186  11.670  19.667  0.00  0.00    +0.000 C 
ATOM      5  C   UNL     1      -0.513  11.368  21.476  0.00  0.00    +0.000 C 
ATOM      6  O   UNL     1      -0.916  11.894  22.519  0.00  0.00    +0.000 OA
ATOM      7  C   UNL     1       0.221  10.083  21.523  0.00  0.00    +0.000 C 
ATOM      8 CL   UNL     1       0.101   9.235  23.035  0.00  0.00    +0.000 Cl
ATOM      9  C   UNL     1       0.888   9.629  20.446  0.00  0.00    +0.000 C 
ATOM     10  C   UNL     1       1.484   8.288  20.469  0.00  0.00    +0.000 C 
ATOM     11  C   UNL     1       2.018   7.775  19.349  0.00  0.00    +0.000 C 
ATOM     12  O   UNL     1       2.124   8.521  18.179  0.00  0.00    +0.000 OA
ATOM     13  C   UNL     1       1.598   9.801  18.158  0.00  0.00    +0.000 C 
ATOM     14  C   UNL     1       0.992  10.410  19.198  0.00  0.00    +0.000 C 
ATOM     15  C   UNL     1       0.262  11.729  19.005  0.00  0.00    +0.000 C 
ATOM     16  C   UNL     1       0.966  13.107  18.836  0.00  0.00    +0.000 C 
ENDROOT
BRANCH   1  17
ATOM     17  C   UNL     1       0.767  15.363  20.274  0.00  0.00    +0.000 C 
ATOM     18  C   UNL     1      -0.128  15.902  21.394  0.00  0.00    +0.000 C 
BRANCH  17  20
ATOM     19  C   UNL     1      -0.680  17.030  18.959  0.00  0.00    +0.000 C 
ATOM     20  C   UNL     1       0.559  16.130  18.950  0.00  0.00    +0.000 C 
BRANCH  20  21
ATOM     21  O   UNL     1       1.689  16.959  18.683  0.00  0.00    +0.000 OA
ATOM     22  H   UNL     1       1.707  17.678  19.340  0.00  0.00    +0.000 HD
ENDBRANCH  20  21
ENDBRANCH  17  20
ENDBRANCH   1  17
BRANCH   1  23
ATOM     23  O   UNL     1       1.503  13.190  21.154  0.00  0.00    +0.000 OA
ATOM     24  H   UNL     1       1.061  12.342  21.358  0.00  0.00    +0.000 HD
ENDBRANCH   1  23
BRANCH  11  25
ATOM     25  C   UNL     1       2.478   6.398  19.277  0.00  0.00    +0.000 C 
ATOM     26  C   UNL     1       3.035   5.832  18.195  0.00  0.00    +0.000 C 
BRANCH  26  27
ATOM     27  C   UNL     1       3.478   4.380  18.118  0.00  0.00    +0.000 C 
ATOM     28  C   UNL     1       4.387   4.192  16.901  0.00  0.00    +0.000 C 
BRANCH  27  29
ATOM     29  C   UNL     1       4.163   3.900  19.421  0.00  0.00    +0.000 C 
ATOM     30  C   UNL     1       3.357   2.905  20.250  0.00  0.00    +0.000 C 
BRANCH  29  31
ATOM     31  O   UNL     1       5.432   3.315  19.112  0.00  0.00    +0.000 OA
ATOM     32  H   UNL     1       5.576   3.423  18.155  0.00  0.00    +0.000 HD
ENDBRANCH  29  31
ENDBRANCH  27  29
ENDBRANCH  26  27
ENDBRANCH  11  25
BRANCH  16  33
ATOM     33  C   UNL     1       2.364  13.055  18.298  0.00  0.00    +0.000 C 
ATOM     34  O   UNL     1       3.321  13.421  18.973  0.00  0.00    +0.000 OA
BRANCH  33  35
ATOM     35  O   UNL     1       2.514  12.637  17.033  0.00  0.00    +0.000 OA
ATOM     36  H   UNL     1       1.879  11.935  16.750  0.00  0.00    +0.000 HD
ENDBRANCH  33  35
ENDBRANCH  16  33
TORSDOF 10
ENDMDL
MODEL 7
REMARK VINA RESULT:      -7.1      0.948      1.514
REMARK  Name = 
REMARK  15 active torsions:
REMARK  status: ('A' for Active; 'I' for Inactive)
REMARK    1  A    between atoms: C_1  and  C_2
REMARK    2  A    between atoms: C_2  and  O_3
REMARK    3  A    between atoms: C_2  and  C_4
REMARK    4  A    between atoms: C_4  and  C_5
REMARK    5  A    between atoms: C_4  and  C_6
REMARK    6  A    between atoms: C_6  and  O_7
REMARK    7  A    between atoms: C_9  and  C_10
REMARK    8  A    between atoms: C_17  and  C_18
REMARK    9  A    between atoms: C_19  and  C_20
REMARK   10  A    between atoms: C_20  and  C_21
REMARK   11  A    between atoms: C_20  and  C_22
REMARK   12  A    between atoms: C_22  and  C_23
REMARK   13  A    between atoms: C_22  and  O_24
REMARK   14  A    between atoms: C_29  and  C_30
REMARK   15  A    between atoms: C_30  and  O_32
REMARK                            x       y       z     vdW  Elec       q    Type
REMARK                         _______ _______ _______ _____ _____    ______ ____
ROOT
ATOM      1  C   UNL     1       0.428  13.716  20.015  0.00  0.00    +0.000 C 
ATOM      2  O   UNL     1      -0.948  13.299  20.104  0.00  0.00    +0.000 OA
ATOM      3  C   UNL     1      -0.969  11.871  19.868  0.00  0.00    +0.000 C 
ATOM      4  C   UNL     1      -2.317  11.466  19.281  0.00  0.00    +0.000 C 
ATOM      5  C   UNL     1      -0.858  11.282  21.281  0.00  0.00    +0.000 C 
ATOM      6  O   UNL     1      -1.395  11.831  22.249  0.00  0.00    +0.000 OA
ATOM      7  C   UNL     1      -0.098  10.024  21.462  0.00  0.00    +0.000 C 
ATOM      8 CL   UNL     1      -0.369   9.225  22.982  0.00  0.00    +0.000 Cl
ATOM      9  C   UNL     1       0.702   9.554  20.487  0.00  0.00    +0.000 C 
ATOM     10  C   UNL     1       1.330   8.236  20.630  0.00  0.00    +0.000 C 
ATOM     11  C   UNL     1       2.005   7.702  19.600  0.00  0.00    +0.000 C 
ATOM     12  O   UNL     1       2.225   8.410  18.422  0.00  0.00    +0.000 OA
ATOM     13  C   UNL     1       1.669   9.670  18.292  0.00  0.00    +0.000 C 
ATOM     14  C   UNL     1       0.929  10.295  19.230  0.00  0.00    +0.000 C 
ATOM     15  C   UNL     1       0.189  11.582  18.904  0.00  0.00    +0.000 C 
ATOM     16  C   UNL     1       0.868  12.975  18.765  0.00  0.00    +0.000 C 
ENDROOT
BRANCH   1  17
ATOM     17  C   UNL     1       0.439  15.272  20.083  0.00  0.00    +0.000 C 
ATOM     18  C   UNL     1       1.245  15.799  21.274  0.00  0.00    +0.000 C 
BRANCH  17  20
ATOM     19  C   UNL     1      -1.202  16.977  21.084  0.00  0.00    +0.000 C 
ATOM     20  C   UNL     1      -0.950  15.940  19.987  0.00  0.00    +0.000 C 
BRANCH  20  21
ATOM     21  O   UNL     1      -1.089  16.601  18.730  0.00  0.00    +0.000 OA
ATOM     22  H   UNL     1      -0.723  17.501  18.813  0.00  0.00    +0.000 HD
ENDBRANCH  20  21
ENDBRANCH  17  20
ENDBRANCH   1  17
BRANCH   1  23
ATOM     23  O   UNL     1       1.129  13.157  21.124  0.00  0.00    +0.000 OA
ATOM     24  H   UNL     1       1.085  12.188  21.001  0.00  0.00    +0.000 HD
ENDBRANCH   1  23
BRANCH  11  25
ATOM     25  C   UNL     1       2.510   6.339  19.634  0.00  0.00    +0.000 C 
ATOM     26  C   UNL     1       2.625   5.538  18.564  0.00  0.00    +0.000 C 
BRANCH  26  27
ATOM     27  C   UNL     1       3.118   4.101  18.617  0.00  0.00    +0.000 C 
ATOM     28  C   UNL     1       2.019   3.169  18.101  0.00  0.00    +0.000 C 
BRANCH  27  29
ATOM     29  C   UNL     1       4.444   3.901  17.841  0.00  0.00    +0.000 C 
ATOM     30  C   UNL     1       4.838   5.052  16.921  0.00  0.00    +0.000 C 
BRANCH  29  31
ATOM     31  O   UNL     1       5.513   3.667  18.764  0.00  0.00    +0.000 OA
ATOM     32  H   UNL     1       6.156   3.085  18.321  0.00  0.00    +0.000 HD
ENDBRANCH  29  31
ENDBRANCH  27  29
ENDBRANCH  26  27
ENDBRANCH  11  25
BRANCH  16  33
ATOM     33  C   UNL     1       2.321  12.951  18.394  0.00  0.00    +0.000 C 
ATOM     34  O   UNL     1       3.179  13.388  19.153  0.00  0.00    +0.000 OA
BRANCH  33  35
ATOM     35  O   UNL     1       2.630  12.474  17.180  0.00  0.00    +0.000 OA
ATOM     36  H   UNL     1       1.925  12.587  16.497  0.00  0.00    +0.000 HD
ENDBRANCH  33  35
ENDBRANCH  16  33
TORSDOF 10
ENDMDL
MODEL 8
REMARK VINA RESULT:      -7.1      1.259      1.749
REMARK  Name = 
REMARK  15 active torsions:
REMARK  status: ('A' for Active; 'I' for Inactive)
REMARK    1  A    between atoms: C_1  and  C_2
REMARK    2  A    between atoms: C_2  and  O_3
REMARK    3  A    between atoms: C_2  and  C_4
REMARK    4  A    between atoms: C_4  and  C_5
REMARK    5  A    between atoms: C_4  and  C_6
REMARK    6  A    between atoms: C_6  and  O_7
REMARK    7  A    between atoms: C_9  and  C_10
REMARK    8  A    between atoms: C_17  and  C_18
REMARK    9  A    between atoms: C_19  and  C_20
REMARK   10  A    between atoms: C_20  and  C_21
REMARK   11  A    between atoms: C_20  and  C_22
REMARK   12  A    between atoms: C_22  and  C_23
REMARK   13  A    between atoms: C_22  and  O_24
REMARK   14  A    between atoms: C_29  and  C_30
REMARK   15  A    between atoms: C_30  and  O_32
REMARK                            x       y       z     vdW  Elec       q    Type
REMARK                         _______ _______ _______ _____ _____    ______ ____
ROOT
ATOM      1  C   UNL     1       0.740  14.044  20.467  0.00  0.00    +0.000 C 
ATOM      2  O   UNL     1      -0.636  13.726  20.751  0.00  0.00    +0.000 OA
ATOM      3  C   UNL     1      -0.797  12.308  20.506  0.00  0.00    +0.000 C 
ATOM      4  C   UNL     1      -2.242  12.014  20.117  0.00  0.00    +0.000 C 
ATOM      5  C   UNL     1      -0.526  11.682  21.881  0.00  0.00    +0.000 C 
ATOM      6  O   UNL     1      -0.874  12.246  22.923  0.00  0.00    +0.000 OA
ATOM      7  C   UNL     1       0.157  10.369  21.934  0.00  0.00    +0.000 C 
ATOM      8 CL   UNL     1       0.051   9.559  23.469  0.00  0.00    +0.000 Cl
ATOM      9  C   UNL     1       0.770   9.865  20.848  0.00  0.00    +0.000 C 
ATOM     10  C   UNL     1       1.313   8.502  20.883  0.00  0.00    +0.000 C 
ATOM     11  C   UNL     1       1.790   7.943  19.759  0.00  0.00    +0.000 C 
ATOM     12  O   UNL     1       1.889   8.659  18.570  0.00  0.00    +0.000 OA
ATOM     13  C   UNL     1       1.415   9.958  18.537  0.00  0.00    +0.000 C 
ATOM     14  C   UNL     1       0.867  10.614  19.580  0.00  0.00    +0.000 C 
ATOM     15  C   UNL     1       0.184  11.958  19.380  0.00  0.00    +0.000 C 
ATOM     16  C   UNL     1       0.938  13.301  19.158  0.00  0.00    +0.000 C 
ENDROOT
BRANCH   1  17
ATOM     17  C   UNL     1       0.876  15.594  20.550  0.00  0.00    +0.000 C 
ATOM     18  C   UNL     1       0.122  16.182  21.747  0.00  0.00    +0.000 C 
BRANCH  17  20
ATOM     19  C   UNL     1      -0.287  17.607  19.456  0.00  0.00    +0.000 C 
ATOM     20  C   UNL     1       0.557  16.348  19.240  0.00  0.00    +0.000 C 
BRANCH  20  21
ATOM     21  O   UNL     1       1.768  16.748  18.600  0.00  0.00    +0.000 OA
ATOM     22  H   UNL     1       2.119  17.529  19.064  0.00  0.00    +0.000 HD
ENDBRANCH  20  21
ENDBRANCH  17  20
ENDBRANCH   1  17
BRANCH   1  23
ATOM     23  O   UNL     1       1.551  13.413  21.456  0.00  0.00    +0.000 OA
ATOM     24  H   UNL     1       1.073  13.529  22.301  0.00  0.00    +0.000 HD
ENDBRANCH   1  23
BRANCH  11  25
ATOM     25  C   UNL     1       2.192   6.547  19.704  0.00  0.00    +0.000 C 
ATOM     26  C   UNL     1       1.915   5.633  20.646  0.00  0.00    +0.000 C 
BRANCH  26  27
ATOM     27  C   UNL     1       2.373   4.184  20.596  0.00  0.00    +0.000 C 
ATOM     28  C   UNL     1       1.163   3.264  20.773  0.00  0.00    +0.000 C 
BRANCH  27  29
ATOM     29  C   UNL     1       3.155   3.854  19.301  0.00  0.00    +0.000 C 
ATOM     30  C   UNL     1       4.439   3.054  19.503  0.00  0.00    +0.000 C 
BRANCH  29  31
ATOM     31  O   UNL     1       2.309   3.139  18.394  0.00  0.00    +0.000 OA
ATOM     32  H   UNL     1       2.802   2.354  18.096  0.00  0.00    +0.000 HD
ENDBRANCH  29  31
ENDBRANCH  27  29
ENDBRANCH  26  27
ENDBRANCH  11  25
BRANCH  16  33
ATOM     33  C   UNL     1       2.315  13.181  18.579  0.00  0.00    +0.000 C 
ATOM     34  O   UNL     1       3.311  13.458  19.240  0.00  0.00    +0.000 OA
BRANCH  33  35
ATOM     35  O   UNL     1       2.404  12.803  17.296  0.00  0.00    +0.000 OA
ATOM     36  H   UNL     1       3.066  12.092  17.116  0.00  0.00    +0.000 HD
ENDBRANCH  33  35
ENDBRANCH  16  33
TORSDOF 10
ENDMDL
MODEL 9
REMARK VINA RESULT:      -7.1      0.863      1.204
REMARK  Name = 
REMARK  15 active torsions:
REMARK  status: ('A' for Active; 'I' for Inactive)
REMARK    1  A    between atoms: C_1  and  C_2
REMARK    2  A    between atoms: C_2  and  O_3
REMARK    3  A    between atoms: C_2  and  C_4
REMARK    4  A    between atoms: C_4  and  C_5
REMARK    5  A    between atoms: C_4  and  C_6
REMARK    6  A    between atoms: C_6  and  O_7
REMARK    7  A    between atoms: C_9  and  C_10
REMARK    8  A    between atoms: C_17  and  C_18
REMARK    9  A    between atoms: C_19  and  C_20
REMARK   10  A    between atoms: C_20  and  C_21
REMARK   11  A    between atoms: C_20  and  C_22
REMARK   12  A    between atoms: C_22  and  C_23
REMARK   13  A    between atoms: C_22  and  O_24
REMARK   14  A    between atoms: C_29  and  C_30
REMARK   15  A    between atoms: C_30  and  O_32
REMARK                            x       y       z     vdW  Elec       q    Type
REMARK                         _______ _______ _______ _____ _____    ______ ____
ROOT
ATOM      1  C   UNL     1       0.184  13.603  20.061  0.00  0.00    +0.000 C 
ATOM      2  O   UNL     1      -1.163  13.090  20.098  0.00  0.00    +0.000 OA
ATOM      3  C   UNL     1      -1.085  11.684  19.759  0.00  0.00    +0.000 C 
ATOM      4  C   UNL     1      -2.395  11.235  19.124  0.00  0.00    +0.000 C 
ATOM      5  C   UNL     1      -0.949  11.003  21.127  0.00  0.00    +0.000 C 
ATOM      6  O   UNL     1      -1.531  11.442  22.125  0.00  0.00    +0.000 OA
ATOM      7  C   UNL     1      -0.107   9.788  21.228  0.00  0.00    +0.000 C 
ATOM      8 CL   UNL     1      -0.340   8.864  22.682  0.00  0.00    +0.000 Cl
ATOM      9  C   UNL     1       0.733   9.446  20.234  0.00  0.00    +0.000 C 
ATOM     10  C   UNL     1       1.447   8.165  20.291  0.00  0.00    +0.000 C 
ATOM     11  C   UNL     1       2.167   7.754  19.236  0.00  0.00    +0.000 C 
ATOM     12  O   UNL     1       2.352   8.560  18.116  0.00  0.00    +0.000 OA
ATOM     13  C   UNL     1       1.713   9.786  18.069  0.00  0.00    +0.000 C 
ATOM     14  C   UNL     1       0.923  10.290  19.038  0.00  0.00    +0.000 C 
ATOM     15  C   UNL     1       0.100  11.545  18.795  0.00  0.00    +0.000 C 
ATOM     16  C   UNL     1       0.686  12.987  18.768  0.00  0.00    +0.000 C 
ENDROOT
BRANCH   1  17
ATOM     17  C   UNL     1       0.088  15.148  20.241  0.00  0.00    +0.000 C 
ATOM     18  C   UNL     1       0.989  15.660  21.369  0.00  0.00    +0.000 C 
BRANCH  17  20
ATOM     19  C   UNL     1      -1.585  16.522  21.624  0.00  0.00    +0.000 C 
ATOM     20  C   UNL     1      -1.348  15.705  20.351  0.00  0.00    +0.000 C 
BRANCH  20  21
ATOM     21  O   UNL     1      -1.630  16.552  19.238  0.00  0.00    +0.000 OA
ATOM     22  H   UNL     1      -2.276  16.102  18.664  0.00  0.00    +0.000 HD
ENDBRANCH  20  21
ENDBRANCH  17  20
ENDBRANCH   1  17
BRANCH   1  23
ATOM     23  O   UNL     1       0.909  13.012  21.137  0.00  0.00    +0.000 OA
ATOM     24  H   UNL     1       1.814  13.379  21.076  0.00  0.00    +0.000 HD
ENDBRANCH   1  23
BRANCH  11  25
ATOM     25  C   UNL     1       2.762   6.429  19.179  0.00  0.00    +0.000 C 
ATOM     26  C   UNL     1       2.950   5.722  18.055  0.00  0.00    +0.000 C 
BRANCH  26  27
ATOM     27  C   UNL     1       3.539   4.321  18.011  0.00  0.00    +0.000 C 
ATOM     28  C   UNL     1       4.474   4.201  16.805  0.00  0.00    +0.000 C 
BRANCH  27  29
ATOM     29  C   UNL     1       4.257   3.938  19.328  0.00  0.00    +0.000 C 
ATOM     30  C   UNL     1       3.599   2.814  20.123  0.00  0.00    +0.000 C 
BRANCH  29  31
ATOM     31  O   UNL     1       5.612   3.569  19.051  0.00  0.00    +0.000 OA
ATOM     32  H   UNL     1       6.170   3.983  19.733  0.00  0.00    +0.000 HD
ENDBRANCH  29  31
ENDBRANCH  27  29
ENDBRANCH  26  27
ENDBRANCH  11  25
BRANCH  16  33
ATOM     33  C   UNL     1       2.140  13.087  18.418  0.00  0.00    +0.000 C 
ATOM     34  O   UNL     1       2.974  13.422  19.252  0.00  0.00    +0.000 OA
BRANCH  33  35
ATOM     35  O   UNL     1       2.478  12.839  17.145  0.00  0.00    +0.000 OA
ATOM     36  H   UNL     1       2.779  11.915  16.967  0.00  0.00    +0.000 HD
ENDBRANCH  33  35
ENDBRANCH  16  33
TORSDOF 10
ENDMDL
