MODEL 1
REMARK VINA RESULT:      -7.1      0.000      0.000
REMARK  Name = 
REMARK  6 active torsions:
REMARK  status: ('A' for Active; 'I' for Inactive)
REMARK    1  A    between atoms: C_2  and  C_18
REMARK    2  A    between atoms: N_3  and  C_4
REMARK    3  A    between atoms: C_4  and  C_5
REMARK    4  A    between atoms: C_5  and  N_6
REMARK    5  A    between atoms: C_8  and  C_9
REMARK    6  A    between atoms: C_14  and  C_15
REMARK                            x       y       z     vdW  Elec       q    Type
REMARK                         _______ _______ _______ _____ _____    ______ ____
ROOT
ATOM      1  C   UNL     1       6.454   5.284  19.367  0.00  0.00    +0.000 C 
ENDROOT
BRANCH   1   2
ATOM      2  N   UNL     1       5.171   4.736  18.964  0.00  0.00    +0.000 N 
ATOM      3  N   UNL     1       4.996   3.397  18.995  0.00  0.00    +0.000 NA
ATOM      4  C   UNL     1       3.722   3.207  18.593  0.00  0.00    +0.000 A 
ATOM      5  C   UNL     1       3.093   4.451  18.322  0.00  0.00    +0.000 A 
ATOM      6  C   UNL     1       4.054   5.410  18.538  0.00  0.00    +0.000 A 
BRANCH   4   7
ATOM      7  C   UNL     1       3.090   1.849  18.440  0.00  0.00    +0.000 C 
ATOM      8  F   UNL     1       2.155   1.566  19.384  0.00  0.00    +0.000 F 
ATOM      9  F   UNL     1       2.484   1.705  17.230  0.00  0.00    +0.000 F 
ATOM     10  F   UNL     1       4.027   0.861  18.514  0.00  0.00    +0.000 F 
ENDBRANCH   4   7
BRANCH   6  11
ATOM     11  C   UNL     1       3.909   6.913  18.342  0.00  0.00    +0.000 C 
ATOM     12  C   UNL     1       3.936   7.468  16.932  0.00  0.00    +0.000 C 
ATOM     13  C   UNL     1       2.653   7.446  17.690  0.00  0.00    +0.000 C 
ENDBRANCH   6  11
ENDBRANCH   1   2
BRANCH   1  14
ATOM     14  C   UNL     1       7.610   4.826  18.482  0.00  0.00    +0.000 C 
BRANCH  14  17
ATOM     15  O   UNL     1       7.529   6.463  16.138  0.00  0.00    +0.000 OA
ATOM     16  C   UNL     1       7.181   5.291  16.077  0.00  0.00    +0.000 C 
ATOM     17  N   UNL     1       7.177   4.429  17.150  0.00  0.00    +0.000 N 
ATOM     18  H   UNL     1       7.068   3.434  16.988  0.00  0.00    +0.000 HD
BRANCH  16  19
ATOM     19  C   UNL     1       6.732   4.715  14.793  0.00  0.00    +0.000 A 
ATOM     20  C   UNL     1       5.516   4.040  14.668  0.00  0.00    +0.000 A 
ATOM     21  C   UNL     1       5.137   3.542  13.425  0.00  0.00    +0.000 A 
ATOM     22  C   UNL     1       5.988   3.742  12.350  0.00  0.00    +0.000 A 
ATOM     23  N   UNL     1       7.169   4.394  12.436  0.00  0.00    +0.000 NA
ATOM     24  C   UNL     1       7.514   4.875  13.659  0.00  0.00    +0.000 A 
ENDBRANCH  16  19
ENDBRANCH  14  17
ENDBRANCH   1  14
TORSDOF 6
ENDMDL
MODEL 2
REMARK VINA RESULT:      -7.1      3.685      5.102
REMARK  Name = 
REMARK  6 active torsions:
REMARK  status: ('A' for Active; 'I' for Inactive)
REMARK    1  A    between atoms: C_2  and  C_18
REMARK    2  A    between atoms: N_3  and  C_4
REMARK    3  A    between atoms: C_4  and  C_5
REMARK    4  A    between atoms: C_5  and  N_6
REMARK    5  A    between atoms: C_8  and  C_9
REMARK    6  A    between atoms: C_14  and  C_15
REMARK                            x       y       z     vdW  Elec       q    Type
REMARK                         _______ _______ _______ _____ _____    ______ ____
ROOT
ATOM      1  C   UNL     1       2.421   2.937  17.641  0.00  0.00    +0.000 C 
ENDROOT
BRANCH   1   2
ATOM      2  N   UNL     1       2.223   4.158  18.401  0.00  0.00    +0.000 N 
ATOM      3  N   UNL     1       2.410   5.345  17.785  0.00  0.00    +0.000 NA
ATOM      4  C   UNL     1       2.134   6.270  18.729  0.00  0.00    +0.000 A 
ATOM      5  C   UNL     1       1.756   5.643  19.945  0.00  0.00    +0.000 A 
ATOM      6  C   UNL     1       1.852   4.291  19.715  0.00  0.00    +0.000 A 
BRANCH   4   7
ATOM      7  C   UNL     1       2.245   7.754  18.500  0.00  0.00    +0.000 C 
ATOM      8  F   UNL     1       1.993   8.502  19.605  0.00  0.00    +0.000 F 
ATOM      9  F   UNL     1       3.482   8.107  18.057  0.00  0.00    +0.000 F 
ATOM     10  F   UNL     1       1.367   8.169  17.542  0.00  0.00    +0.000 F 
ENDBRANCH   4   7
BRANCH   6  11
ATOM     11  C   UNL     1       1.602   3.171  20.715  0.00  0.00    +0.000 C 
ATOM     12  C   UNL     1       2.789   2.400  21.257  0.00  0.00    +0.000 C 
ATOM     13  C   UNL     1       2.063   3.352  22.144  0.00  0.00    +0.000 C 
ENDBRANCH   6  11
ENDBRANCH   1   2
BRANCH   1  14
ATOM     14  C   UNL     1       3.892   2.598  17.416  0.00  0.00    +0.000 C 
BRANCH  14  17
ATOM     15  O   UNL     1       5.534   3.665  19.499  0.00  0.00    +0.000 OA
ATOM     16  C   UNL     1       5.502   4.213  18.406  0.00  0.00    +0.000 C 
ATOM     17  N   UNL     1       4.738   3.780  17.346  0.00  0.00    +0.000 N 
ATOM     18  H   UNL     1       4.910   4.160  16.422  0.00  0.00    +0.000 HD
BRANCH  16  19
ATOM     19  C   UNL     1       6.320   5.417  18.155  0.00  0.00    +0.000 A 
ATOM     20  C   UNL     1       7.399   5.764  18.971  0.00  0.00    +0.000 A 
ATOM     21  C   UNL     1       8.148   6.897  18.667  0.00  0.00    +0.000 A 
ATOM     22  C   UNL     1       7.792   7.641  17.553  0.00  0.00    +0.000 A 
ATOM     23  N   UNL     1       6.756   7.330  16.741  0.00  0.00    +0.000 NA
ATOM     24  C   UNL     1       6.045   6.217  17.056  0.00  0.00    +0.000 A 
ENDBRANCH  16  19
ENDBRANCH  14  17
ENDBRANCH   1  14
TORSDOF 6
ENDMDL
MODEL 3
REMARK VINA RESULT:      -6.9      4.019      7.231
REMARK  Name = 
REMARK  6 active torsions:
REMARK  status: ('A' for Active; 'I' for Inactive)
REMARK    1  A    between atoms: C_2  and  C_18
REMARK    2  A    between atoms: N_3  and  C_4
REMARK    3  A    between atoms: C_4  and  C_5
REMARK    4  A    between atoms: C_5  and  N_6
REMARK    5  A    between atoms: C_8  and  C_9
REMARK    6  A    between atoms: C_14  and  C_15
REMARK                            x       y       z     vdW  Elec       q    Type
REMARK                         _______ _______ _______ _____ _____    ______ ____
ROOT
ATOM      1  C   UNL     1       3.667   7.043  18.080  0.00  0.00    +0.000 C 
ENDROOT
BRANCH   1   2
ATOM      2  N   UNL     1       3.365   5.626  17.986  0.00  0.00    +0.000 N 
ATOM      3  N   UNL     1       2.420   5.106  18.798  0.00  0.00    +0.000 NA
ATOM      4  C   UNL     1       2.356   3.800  18.462  0.00  0.00    +0.000 A 
ATOM      5  C   UNL     1       3.269   3.511  17.414  0.00  0.00    +0.000 A 
ATOM      6  C   UNL     1       3.923   4.691  17.151  0.00  0.00    +0.000 A 
BRANCH   4   7
ATOM      7  C   UNL     1       1.449   2.808  19.140  0.00  0.00    +0.000 C 
ATOM      8  F   UNL     1       1.029   3.198  20.371  0.00  0.00    +0.000 F 
ATOM      9  F   UNL     1       0.333   2.556  18.403  0.00  0.00    +0.000 F 
ATOM     10  F   UNL     1       2.073   1.607  19.306  0.00  0.00    +0.000 F 
ENDBRANCH   4   7
BRANCH   6  11
ATOM     11  C   UNL     1       5.041   4.913  16.141  0.00  0.00    +0.000 C 
ATOM     12  C   UNL     1       6.475   4.708  16.586  0.00  0.00    +0.000 C 
ATOM     13  C   UNL     1       5.842   3.723  15.665  0.00  0.00    +0.000 C 
ENDBRANCH   6  11
ENDBRANCH   1   2
BRANCH   1  14
ATOM     14  C   UNL     1       2.448   7.935  17.859  0.00  0.00    +0.000 C 
BRANCH  14  17
ATOM     15  O   UNL     1       0.725  10.185  18.237  0.00  0.00    +0.000 OA
ATOM     16  C   UNL     1       1.008   9.467  19.186  0.00  0.00    +0.000 C 
ATOM     17  N   UNL     1       1.834   8.368  19.105  0.00  0.00    +0.000 N 
ATOM     18  H   UNL     1       1.864   7.712  19.878  0.00  0.00    +0.000 HD
BRANCH  16  19
ATOM     19  C   UNL     1       0.451   9.751  20.525  0.00  0.00    +0.000 A 
ATOM     20  C   UNL     1       0.000   8.734  21.370  0.00  0.00    +0.000 A 
ATOM     21  C   UNL     1      -0.491   9.064  22.630  0.00  0.00    +0.000 A 
ATOM     22  C   UNL     1      -0.510  10.399  23.000  0.00  0.00    +0.000 A 
ATOM     23  N   UNL     1      -0.078  11.406  22.207  0.00  0.00    +0.000 NA
ATOM     24  C   UNL     1       0.402  11.058  20.985  0.00  0.00    +0.000 A 
ENDBRANCH  16  19
ENDBRANCH  14  17
ENDBRANCH   1  14
TORSDOF 6
ENDMDL
MODEL 4
REMARK VINA RESULT:      -6.9      1.044      1.540
REMARK  Name = 
REMARK  6 active torsions:
REMARK  status: ('A' for Active; 'I' for Inactive)
REMARK    1  A    between atoms: C_2  and  C_18
REMARK    2  A    between atoms: N_3  and  C_4
REMARK    3  A    between atoms: C_4  and  C_5
REMARK    4  A    between atoms: C_5  and  N_6
REMARK    5  A    between atoms: C_8  and  C_9
REMARK    6  A    between atoms: C_14  and  C_15
REMARK                            x       y       z     vdW  Elec       q    Type
REMARK                         _______ _______ _______ _____ _____    ______ ____
ROOT
ATOM      1  C   UNL     1       5.596   5.586  18.909  0.00  0.00    +0.000 C 
ENDROOT
BRANCH   1   2
ATOM      2  N   UNL     1       4.239   5.139  18.651  0.00  0.00    +0.000 N 
ATOM      3  N   UNL     1       3.963   3.819  18.723  0.00  0.00    +0.000 NA
ATOM      4  C   UNL     1       2.643   3.727  18.461  0.00  0.00    +0.000 A 
ATOM      5  C   UNL     1       2.089   5.015  18.235  0.00  0.00    +0.000 A 
ATOM      6  C   UNL     1       3.140   5.896  18.333  0.00  0.00    +0.000 A 
BRANCH   4   7
ATOM      7  C   UNL     1       1.893   2.423  18.398  0.00  0.00    +0.000 C 
ATOM      8  F   UNL     1       2.112   1.610  19.464  0.00  0.00    +0.000 F 
ATOM      9  F   UNL     1       0.548   2.615  18.318  0.00  0.00    +0.000 F 
ATOM     10  F   UNL     1       2.241   1.710  17.289  0.00  0.00    +0.000 F 
ENDBRANCH   4   7
BRANCH   6  11
ATOM     11  C   UNL     1       3.093   7.404  18.127  0.00  0.00    +0.000 C 
ATOM     12  C   UNL     1       1.817   8.027  17.596  0.00  0.00    +0.000 C 
ATOM     13  C   UNL     1       2.201   8.236  19.020  0.00  0.00    +0.000 C 
ENDBRANCH   6  11
ENDBRANCH   1   2
BRANCH   1  14
ATOM     14  C   UNL     1       6.657   4.602  18.423  0.00  0.00    +0.000 C 
BRANCH  14  17
ATOM     15  O   UNL     1       7.553   6.300  16.305  0.00  0.00    +0.000 OA
ATOM     16  C   UNL     1       7.039   5.221  16.046  0.00  0.00    +0.000 C 
ATOM     17  N   UNL     1       6.571   4.340  16.994  0.00  0.00    +0.000 N 
ATOM     18  H   UNL     1       6.342   3.391  16.721  0.00  0.00    +0.000 HD
BRANCH  16  19
ATOM     19  C   UNL     1       6.893   4.785  14.641  0.00  0.00    +0.000 A 
ATOM     20  C   UNL     1       7.714   5.277  13.624  0.00  0.00    +0.000 A 
ATOM     21  C   UNL     1       7.544   4.808  12.325  0.00  0.00    +0.000 A 
ATOM     22  C   UNL     1       6.560   3.861  12.091  0.00  0.00    +0.000 A 
ATOM     23  N   UNL     1       5.752   3.363  13.054  0.00  0.00    +0.000 NA
ATOM     24  C   UNL     1       5.941   3.832  14.314  0.00  0.00    +0.000 A 
ENDBRANCH  16  19
ENDBRANCH  14  17
ENDBRANCH   1  14
TORSDOF 6
ENDMDL
MODEL 5
REMARK VINA RESULT:      -6.9      3.843      5.220
REMARK  Name = 
REMARK  6 active torsions:
REMARK  status: ('A' for Active; 'I' for Inactive)
REMARK    1  A    between atoms: C_2  and  C_18
REMARK    2  A    between atoms: N_3  and  C_4
REMARK    3  A    between atoms: C_4  and  C_5
REMARK    4  A    between atoms: C_5  and  N_6
REMARK    5  A    between atoms: C_8  and  C_9
REMARK    6  A    between atoms: C_14  and  C_15
REMARK                            x       y       z     vdW  Elec       q    Type
REMARK                         _______ _______ _______ _____ _____    ______ ____
ROOT
ATOM      1  C   UNL     1       2.463   3.268  18.044  0.00  0.00    +0.000 C 
ENDROOT
BRANCH   1   2
ATOM      2  N   UNL     1       2.354   4.564  18.690  0.00  0.00    +0.000 N 
ATOM      3  N   UNL     1       2.310   5.673  17.920  0.00  0.00    +0.000 NA
ATOM      4  C   UNL     1       2.188   6.695  18.794  0.00  0.00    +0.000 A 
ATOM      5  C   UNL     1       2.143   6.207  20.127  0.00  0.00    +0.000 A 
ATOM      6  C   UNL     1       2.282   4.843  20.031  0.00  0.00    +0.000 A 
BRANCH   4   7
ATOM      7  C   UNL     1       2.136   8.142  18.382  0.00  0.00    +0.000 C 
ATOM      8  F   UNL     1       1.203   8.411  17.432  0.00  0.00    +0.000 F 
ATOM      9  F   UNL     1       1.871   8.959  19.438  0.00  0.00    +0.000 F 
ATOM     10  F   UNL     1       3.334   8.552  17.877  0.00  0.00    +0.000 F 
ENDBRANCH   4   7
BRANCH   6  11
ATOM     11  C   UNL     1       2.347   3.846  21.180  0.00  0.00    +0.000 C 
ATOM     12  C   UNL     1       1.178   2.905  21.393  0.00  0.00    +0.000 C 
ATOM     13  C   UNL     1       2.465   2.373  20.863  0.00  0.00    +0.000 C 
ENDBRANCH   6  11
ENDBRANCH   1   2
BRANCH   1  14
ATOM     14  C   UNL     1       3.874   2.957  17.551  0.00  0.00    +0.000 C 
BRANCH  14  17
ATOM     15  O   UNL     1       5.752   3.863  19.507  0.00  0.00    +0.000 OA
ATOM     16  C   UNL     1       5.601   4.492  18.468  0.00  0.00    +0.000 C 
ATOM     17  N   UNL     1       4.717   4.141  17.473  0.00  0.00    +0.000 N 
ATOM     18  H   UNL     1       4.786   4.588  16.566  0.00  0.00    +0.000 HD
BRANCH  16  19
ATOM     19  C   UNL     1       6.396   5.712  18.215  0.00  0.00    +0.000 A 
ATOM     20  C   UNL     1       7.568   5.992  18.922  0.00  0.00    +0.000 A 
ATOM     21  C   UNL     1       8.287   7.144  18.619  0.00  0.00    +0.000 A 
ATOM     22  C   UNL     1       7.809   7.973  17.617  0.00  0.00    +0.000 A 
ATOM     23  N   UNL     1       6.682   7.729  16.912  0.00  0.00    +0.000 NA
ATOM     24  C   UNL     1       6.001   6.595  17.222  0.00  0.00    +0.000 A 
ENDBRANCH  16  19
ENDBRANCH  14  17
ENDBRANCH   1  14
TORSDOF 6
ENDMDL
MODEL 6
REMARK VINA RESULT:      -6.8      3.506      5.092
REMARK  Name = 
REMARK  6 active torsions:
REMARK  status: ('A' for Active; 'I' for Inactive)
REMARK    1  A    between atoms: C_2  and  C_18
REMARK    2  A    between atoms: N_3  and  C_4
REMARK    3  A    between atoms: C_4  and  C_5
REMARK    4  A    between atoms: C_5  and  N_6
REMARK    5  A    between atoms: C_8  and  C_9
REMARK    6  A    between atoms: C_14  and  C_15
REMARK                            x       y       z     vdW  Elec       q    Type
REMARK                         _______ _______ _______ _____ _____    ______ ____
ROOT
ATOM      1  C   UNL     1       2.294   2.927  17.590  0.00  0.00    +0.000 C 
ENDROOT
BRANCH   1   2
ATOM      2  N   UNL     1       2.170   4.161  18.346  0.00  0.00    +0.000 N 
ATOM      3  N   UNL     1       2.394   5.335  17.718  0.00  0.00    +0.000 NA
ATOM      4  C   UNL     1       2.184   6.277  18.661  0.00  0.00    +0.000 A 
ATOM      5  C   UNL     1       1.809   5.675  19.891  0.00  0.00    +0.000 A 
ATOM      6  C   UNL     1       1.838   4.319  19.667  0.00  0.00    +0.000 A 
BRANCH   4   7
ATOM      7  C   UNL     1       2.355   7.753  18.418  0.00  0.00    +0.000 C 
ATOM      8  F   UNL     1       3.584   8.096  17.953  0.00  0.00    +0.000 F 
ATOM      9  F   UNL     1       1.448   8.227  17.521  0.00  0.00    +0.000 F 
ATOM     10  F   UNL     1       2.161   8.464  19.565  0.00  0.00    +0.000 F 
ENDBRANCH   4   7
BRANCH   6  11
ATOM     11  C   UNL     1       1.563   3.217  20.682  0.00  0.00    +0.000 C 
ATOM     12  C   UNL     1       2.722   2.374  21.174  0.00  0.00    +0.000 C 
ATOM     13  C   UNL     1       2.096   3.370  22.089  0.00  0.00    +0.000 C 
ENDBRANCH   6  11
ENDBRANCH   1   2
BRANCH   1  14
ATOM     14  C   UNL     1       3.742   2.487  17.388  0.00  0.00    +0.000 C 
BRANCH  14  17
ATOM     15  O   UNL     1       5.747   3.706  15.755  0.00  0.00    +0.000 OA
ATOM     16  C   UNL     1       5.629   4.038  16.926  0.00  0.00    +0.000 C 
ATOM     17  N   UNL     1       4.701   3.504  17.792  0.00  0.00    +0.000 N 
ATOM     18  H   UNL     1       4.529   3.962  18.680  0.00  0.00    +0.000 HD
BRANCH  16  19
ATOM     19  C   UNL     1       6.510   5.078  17.496  0.00  0.00    +0.000 A 
ATOM     20  C   UNL     1       6.641   6.340  16.912  0.00  0.00    +0.000 A 
ATOM     21  C   UNL     1       7.468   7.286  17.511  0.00  0.00    +0.000 A 
ATOM     22  C   UNL     1       8.131   6.935  18.676  0.00  0.00    +0.000 A 
ATOM     23  N   UNL     1       8.023   5.725  19.269  0.00  0.00    +0.000 NA
ATOM     24  C   UNL     1       7.206   4.821  18.668  0.00  0.00    +0.000 A 
ENDBRANCH  16  19
ENDBRANCH  14  17
ENDBRANCH   1  14
TORSDOF 6
ENDMDL
MODEL 7
REMARK VINA RESULT:      -6.8      1.788      2.065
REMARK  Name = 
REMARK  6 active torsions:
REMARK  status: ('A' for Active; 'I' for Inactive)
REMARK    1  A    between atoms: C_2  and  C_18
REMARK    2  A    between atoms: N_3  and  C_4
REMARK    3  A    between atoms: C_4  and  C_5
REMARK    4  A    between atoms: C_5  and  N_6
REMARK    5  A    between atoms: C_8  and  C_9
REMARK    6  A    between atoms: C_14  and  C_15
REMARK                            x       y       z     vdW  Elec       q    Type
REMARK                         _______ _______ _______ _____ _____    ______ ____
ROOT
ATOM      1  C   UNL     1       5.197   5.471  18.931  0.00  0.00    +0.000 C 
ENDROOT
BRANCH   1   2
ATOM      2  N   UNL     1       3.826   5.203  19.327  0.00  0.00    +0.000 N 
ATOM      3  N   UNL     1       3.457   3.927  19.573  0.00  0.00    +0.000 NA
ATOM      4  C   UNL     1       2.159   4.006  19.932  0.00  0.00    +0.000 A 
ATOM      5  C   UNL     1       1.721   5.357  19.922  0.00  0.00    +0.000 A 
ATOM      6  C   UNL     1       2.800   6.096  19.500  0.00  0.00    +0.000 A 
BRANCH   4   7
ATOM      7  C   UNL     1       1.312   2.808  20.269  0.00  0.00    +0.000 C 
ATOM      8  F   UNL     1       0.911   2.763  21.565  0.00  0.00    +0.000 F 
ATOM      9  F   UNL     1       0.186   2.754  19.506  0.00  0.00    +0.000 F 
ATOM     10  F   UNL     1       1.987   1.648  20.031  0.00  0.00    +0.000 F 
ENDBRANCH   4   7
BRANCH   6  11
ATOM     11  C   UNL     1       2.846   7.601  19.270  0.00  0.00    +0.000 C 
ATOM     12  C   UNL     1       2.628   8.129  17.867  0.00  0.00    +0.000 C 
ATOM     13  C   UNL     1       1.570   8.322  18.898  0.00  0.00    +0.000 C 
ENDBRANCH   6  11
ENDBRANCH   1   2
BRANCH   1  14
ATOM     14  C   UNL     1       5.952   4.221  18.486  0.00  0.00    +0.000 C 
BRANCH  14  17
ATOM     15  O   UNL     1       4.421   3.902  16.092  0.00  0.00    +0.000 OA
ATOM     16  C   UNL     1       5.617   4.151  16.023  0.00  0.00    +0.000 C 
ATOM     17  N   UNL     1       6.437   4.314  17.117  0.00  0.00    +0.000 N 
ATOM     18  H   UNL     1       7.362   4.710  16.990  0.00  0.00    +0.000 HD
BRANCH  16  19
ATOM     19  C   UNL     1       6.270   4.302  14.707  0.00  0.00    +0.000 A 
ATOM     20  C   UNL     1       5.849   3.586  13.584  0.00  0.00    +0.000 A 
ATOM     21  C   UNL     1       6.489   3.791  12.365  0.00  0.00    +0.000 A 
ATOM     22  C   UNL     1       7.525   4.709  12.313  0.00  0.00    +0.000 A 
ATOM     23  N   UNL     1       7.955   5.421  13.380  0.00  0.00    +0.000 NA
ATOM     24  C   UNL     1       7.311   5.207  14.556  0.00  0.00    +0.000 A 
ENDBRANCH  16  19
ENDBRANCH  14  17
ENDBRANCH   1  14
TORSDOF 6
ENDMDL
MODEL 8
REMARK VINA RESULT:      -6.7      3.521      5.067
REMARK  Name = 
REMARK  6 active torsions:
REMARK  status: ('A' for Active; 'I' for Inactive)
REMARK    1  A    between atoms: C_2  and  C_18
REMARK    2  A    between atoms: N_3  and  C_4
REMARK    3  A    between atoms: C_4  and  C_5
REMARK    4  A    between atoms: C_5  and  N_6
REMARK    5  A    between atoms: C_8  and  C_9
REMARK    6  A    between atoms: C_14  and  C_15
REMARK                            x       y       z     vdW  Elec       q    Type
REMARK                         _______ _______ _______ _____ _____    ______ ____
ROOT
ATOM      1  C   UNL     1       2.471   3.013  18.397  0.00  0.00    +0.000 C 
ENDROOT
BRANCH   1   2
ATOM      2  N   UNL     1       2.364   4.359  18.932  0.00  0.00    +0.000 N 
ATOM      3  N   UNL     1       2.397   5.404  18.077  0.00  0.00    +0.000 NA
ATOM      4  C   UNL     1       2.255   6.494  18.860  0.00  0.00    +0.000 A 
ATOM      5  C   UNL     1       2.119   6.116  20.221  0.00  0.00    +0.000 A 
ATOM      6  C   UNL     1       2.223   4.745  20.240  0.00  0.00    +0.000 A 
BRANCH   4   7
ATOM      7  C   UNL     1       2.269   7.905  18.334  0.00  0.00    +0.000 C 
ATOM      8  F   UNL     1       2.021   8.847  19.280  0.00  0.00    +0.000 F 
ATOM      9  F   UNL     1       3.464   8.222  17.765  0.00  0.00    +0.000 F 
ATOM     10  F   UNL     1       1.329   8.075  17.361  0.00  0.00    +0.000 F 
ENDBRANCH   4   7
BRANCH   6  11
ATOM     11  C   UNL     1       2.193   3.841  21.466  0.00  0.00    +0.000 C 
ATOM     12  C   UNL     1       1.183   2.711  21.511  0.00  0.00    +0.000 C 
ATOM     13  C   UNL     1       2.628   2.400  21.321  0.00  0.00    +0.000 C 
ENDBRANCH   6  11
ENDBRANCH   1   2
BRANCH   1  14
ATOM     14  C   UNL     1       3.872   2.675  17.894  0.00  0.00    +0.000 C 
BRANCH  14  17
ATOM     15  O   UNL     1       5.199   4.233  15.898  0.00  0.00    +0.000 OA
ATOM     16  C   UNL     1       5.409   4.453  17.083  0.00  0.00    +0.000 C 
ATOM     17  N   UNL     1       4.826   3.752  18.114  0.00  0.00    +0.000 N 
ATOM     18  H   UNL     1       4.890   4.113  19.059  0.00  0.00    +0.000 HD
BRANCH  16  19
ATOM     19  C   UNL     1       6.336   5.531  17.486  0.00  0.00    +0.000 A 
ATOM     20  C   UNL     1       7.248   5.371  18.532  0.00  0.00    +0.000 A 
ATOM     21  C   UNL     1       8.112   6.416  18.848  0.00  0.00    +0.000 A 
ATOM     22  C   UNL     1       8.035   7.581  18.102  0.00  0.00    +0.000 A 
ATOM     23  N   UNL     1       7.166   7.766  17.082  0.00  0.00    +0.000 NA
ATOM     24  C   UNL     1       6.337   6.730  16.790  0.00  0.00    +0.000 A 
ENDBRANCH  16  19
ENDBRANCH  14  17
ENDBRANCH   1  14
TORSDOF 6
ENDMDL
MODEL 9
REMARK VINA RESULT:      -6.7      5.098      7.814
REMARK  Name = 
REMARK  6 active torsions:
REMARK  status: ('A' for Active; 'I' for Inactive)
REMARK    1  A    between atoms: C_2  and  C_18
REMARK    2  A    between atoms: N_3  and  C_4
REMARK    3  A    between atoms: C_4  and  C_5
REMARK    4  A    between atoms: C_5  and  N_6
REMARK    5  A    between atoms: C_8  and  C_9
REMARK    6  A    between atoms: C_14  and  C_15
REMARK                            x       y       z     vdW  Elec       q    Type
REMARK                         _______ _______ _______ _____ _____    ______ ____
ROOT
ATOM      1  C   UNL     1       2.133   7.982  19.106  0.00  0.00    +0.000 C 
ENDROOT
BRANCH   1   2
ATOM      2  N   UNL     1       2.918   6.846  18.658  0.00  0.00    +0.000 N 
ATOM      3  N   UNL     1       3.644   6.962  17.525  0.00  0.00    +0.000 NA
ATOM      4  C   UNL     1       4.265   5.772  17.389  0.00  0.00    +0.000 A 
ATOM      5  C   UNL     1       3.929   4.909  18.465  0.00  0.00    +0.000 A 
ATOM      6  C   UNL     1       3.041   5.612  19.244  0.00  0.00    +0.000 A 
BRANCH   4   7
ATOM      7  C   UNL     1       5.166   5.428  16.233  0.00  0.00    +0.000 C 
ATOM      8  F   UNL     1       4.830   4.278  15.596  0.00  0.00    +0.000 F 
ATOM      9  F   UNL     1       5.180   6.411  15.292  0.00  0.00    +0.000 F 
ATOM     10  F   UNL     1       6.458   5.280  16.645  0.00  0.00    +0.000 F 
ENDBRANCH   4   7
BRANCH   6  11
ATOM     11  C   UNL     1       2.335   5.119  20.501  0.00  0.00    +0.000 C 
ATOM     12  C   UNL     1       1.047   4.334  20.352  0.00  0.00    +0.000 C 
ATOM     13  C   UNL     1       2.291   3.634  20.779  0.00  0.00    +0.000 C 
ENDBRANCH   6  11
ENDBRANCH   1   2
BRANCH   1  14
ATOM     14  C   UNL     1       2.039   9.097  18.068  0.00  0.00    +0.000 C 
BRANCH  14  17
ATOM     15  O   UNL     1       0.301  10.800  19.569  0.00  0.00    +0.000 OA
ATOM     16  C   UNL     1      -0.093  10.289  18.529  0.00  0.00    +0.000 C 
ATOM     17  N   UNL     1       0.665   9.451  17.744  0.00  0.00    +0.000 N 
ATOM     18  H   UNL     1       0.348   9.226  16.807  0.00  0.00    +0.000 HD
BRANCH  16  19
ATOM     19  C   UNL     1      -1.461  10.561  18.040  0.00  0.00    +0.000 A 
ATOM     20  C   UNL     1      -1.989   9.913  16.921  0.00  0.00    +0.000 A 
ATOM     21  C   UNL     1      -3.294  10.193  16.524  0.00  0.00    +0.000 A 
ATOM     22  C   UNL     1      -4.023  11.110  17.264  0.00  0.00    +0.000 A 
ATOM     23  N   UNL     1      -3.542  11.751  18.353  0.00  0.00    +0.000 NA
ATOM     24  C   UNL     1      -2.269  11.456  18.723  0.00  0.00    +0.000 A 
ENDBRANCH  16  19
ENDBRANCH  14  17
ENDBRANCH   1  14
TORSDOF 6
ENDMDL
